MODEL 1
REMARK VINA RESULT:      -7.4      0.000      0.000
REMARK  Name = ZINC38658035
REMARK  12 active torsions:
REMARK  status: ('A' for Active; 'I' for Inactive)
REMARK    1  A    between atoms: C1_1  and  C2_2
REMARK    2  A    between atoms: C2_2  and  C3_3
REMARK    3  A    between atoms: C2_2  and  C4_4
REMARK    4  A    between atoms: C10_10  and  C19_21
REMARK    5  A    between atoms: C10_10  and  C20_22
REMARK    6  A    between atoms: C14_14  and  C18_20
REMARK    7  A    between atoms: C16_16  and  O2_19
REMARK    8  A    between atoms: C20_22  and  O3_23
REMARK    9  A    between atoms: O3_23  and  C21_24
REMARK   10  A    between atoms: C21_24  and  C22_26
REMARK   11  A    between atoms: C25_29  and  O6_33
REMARK   12  A    between atoms: C26_30  and  O5_32
REMARK                            x       y       z     vdW  Elec       q    Type
REMARK                         _______ _______ _______ _____ _____    ______ ____
ROOT
ATOM      3  C   UNL     1      42.744  19.838  19.585  0.00  0.00    -0.192 C 
ATOM      4  C   UNL     1      43.744  19.858  18.668  0.00  0.00    +0.109 C 
ATOM      5  C   UNL     1      44.809  18.931  18.762  0.00  0.00    -0.108 C 
ATOM      6  C   UNL     1      45.835  18.939  17.817  0.00  0.00    +0.142 C 
ATOM      7  C   UNL     1      46.897  18.027  17.844  0.00  0.00    -0.032 C 
ATOM      8  C   UNL     1      47.017  17.100  18.802  0.00  0.00    -0.018 C 
ATOM      9  C   UNL     1      48.134  16.089  18.787  0.00  0.00    -0.021 C 
ATOM     24  C   UNL     1      48.933  16.221  17.490  0.00  0.00    +0.056 C 
ATOM     25  C   UNL     1      47.517  14.688  18.874  0.00  0.00    +0.045 C 
ATOM     26  C   UNL     1      46.580  14.619  20.081  0.00  0.00    +0.012 C 
ATOM     27  C   UNL     1      45.432  15.617  19.913  0.00  0.00    +0.046 C 
ATOM     28  C   UNL     1      45.992  17.039  19.916  0.00  0.00    +0.010 C 
ATOM     29  C   UNL     1      46.714  17.264  21.246  0.00  0.00    +0.059 C 
ATOM     30  C   UNL     1      44.828  17.997  19.829  0.00  0.00    -0.053 C 
ATOM     31  C   UNL     1      43.829  17.975  20.741  0.00  0.00    +0.020 C 
ATOM     34  C   UNL     1      42.761  18.901  20.637  0.00  0.00    +0.388 C 
ATOM     35  O   UNL     1      41.855  18.887  21.458  0.00  0.00    -0.470 OA
ENDROOT
BRANCH   3   2
ATOM      1  C   UNL     1      42.166  22.206  19.131  0.00  0.00    +0.028 C 
ATOM      2  C   UNL     1      41.610  20.824  19.478  0.00  0.00    +0.038 C 
ATOM     36  C   UNL     1      40.644  20.373  18.380  0.00  0.00    +0.028 C 
ENDBRANCH   3   2
BRANCH  31  32
ATOM     32  O   UNL     1      43.852  17.070  21.756  0.00  0.00    -0.459 OA
ATOM     33  H   UNL     1      43.085  16.482  21.776  0.00  0.00    +0.400 HD
ENDBRANCH  31  32
BRANCH   9  10
ATOM     10  C   UNL     1      49.056  16.323  19.987  0.00  0.00    +0.230 C 
BRANCH  10  11
ATOM     11  O   UNL     1      50.219  17.037  19.563  0.00  0.00    -0.341 OA
BRANCH  11  12
ATOM     12  C   UNL     1      50.241  18.364  19.795  0.00  0.00    +0.511 C 
ATOM     23  O   UNL     1      49.912  18.795  20.882  0.00  0.00    -0.498 OA
BRANCH  12  13
ATOM     13  C   UNL     1      50.667  19.292  18.731  0.00  0.00    -0.121 A 
ATOM     14  C   UNL     1      50.297  20.639  18.788  0.00  0.00    +0.096 A 
ATOM     15  C   UNL     1      50.695  21.504  17.793  0.00  0.00    +0.001 A 
ATOM     16  C   UNL     1      51.464  21.044  16.734  0.00  0.00    +0.122 A 
ATOM     19  C   UNL     1      51.836  19.701  16.670  0.00  0.00    +0.071 A 
ATOM     22  C   UNL     1      51.445  18.828  17.667  0.00  0.00    +0.085 A 
BRANCH  16  17
ATOM     17  O   UNL     1      51.854  21.901  15.755  0.00  0.00    -0.485 OA
ATOM     18  H   UNL     1      51.305  22.695  15.688  0.00  0.00    +0.396 HD
ENDBRANCH  16  17
BRANCH  19  20
ATOM     20  O   UNL     1      52.589  19.252  15.629  0.00  0.00    -0.481 OA
ATOM     21  H   UNL     1      53.330  19.829  15.403  0.00  0.00    +0.391 HD
ENDBRANCH  19  20
ENDBRANCH  12  13
ENDBRANCH  11  12
ENDBRANCH  10  11
ENDBRANCH   9  10
TORSDOF 8
ENDMDL
MODEL 2
REMARK VINA RESULT:      -6.8      2.732      7.516
REMARK  Name = ZINC38658035
REMARK  12 active torsions:
REMARK  status: ('A' for Active; 'I' for Inactive)
REMARK    1  A    between atoms: C1_1  and  C2_2
REMARK    2  A    between atoms: C2_2  and  C3_3
REMARK    3  A    between atoms: C2_2  and  C4_4
REMARK    4  A    between atoms: C10_10  and  C19_21
REMARK    5  A    between atoms: C10_10  and  C20_22
REMARK    6  A    between atoms: C14_14  and  C18_20
REMARK    7  A    between atoms: C16_16  and  O2_19
REMARK    8  A    between atoms: C20_22  and  O3_23
REMARK    9  A    between atoms: O3_23  and  C21_24
REMARK   10  A    between atoms: C21_24  and  C22_26
REMARK   11  A    between atoms: C25_29  and  O6_33
REMARK   12  A    between atoms: C26_30  and  O5_32
REMARK                            x       y       z     vdW  Elec       q    Type
REMARK                         _______ _______ _______ _____ _____    ______ ____
ROOT
ATOM      3  C   UNL     1      47.727  13.932  17.475  0.00  0.00    -0.192 C 
ATOM      4  C   UNL     1      46.971  14.962  17.022  0.00  0.00    +0.109 C 
ATOM      5  C   UNL     1      47.003  16.211  17.686  0.00  0.00    -0.108 C 
ATOM      6  C   UNL     1      46.236  17.278  17.218  0.00  0.00    +0.142 C 
ATOM      7  C   UNL     1      46.251  18.542  17.817  0.00  0.00    -0.032 C 
ATOM      8  C   UNL     1      46.985  18.807  18.905  0.00  0.00    -0.018 C 
ATOM      9  C   UNL     1      47.035  20.188  19.507  0.00  0.00    -0.021 C 
ATOM     24  C   UNL     1      46.280  21.171  18.610  0.00  0.00    +0.056 C 
ATOM     25  C   UNL     1      48.505  20.612  19.615  0.00  0.00    +0.045 C 
ATOM     26  C   UNL     1      49.291  19.535  20.366  0.00  0.00    +0.012 C 
ATOM     27  C   UNL     1      49.249  18.217  19.589  0.00  0.00    +0.046 C 
ATOM     28  C   UNL     1      47.810  17.705  19.536  0.00  0.00    +0.010 C 
ATOM     29  C   UNL     1      47.324  17.503  20.973  0.00  0.00    +0.059 C 
ATOM     30  C   UNL     1      47.819  16.368  18.835  0.00  0.00    -0.053 C 
ATOM     31  C   UNL     1      48.576  15.341  19.286  0.00  0.00    +0.020 C 
ATOM     34  C   UNL     1      48.544  14.095  18.612  0.00  0.00    +0.388 C 
ATOM     35  O   UNL     1      49.226  13.164  19.015  0.00  0.00    -0.470 OA
ENDROOT
BRANCH   3   2
ATOM      1  C   UNL     1      46.280  12.023  16.835  0.00  0.00    +0.028 C 
ATOM      2  C   UNL     1      47.692  12.605  16.763  0.00  0.00    +0.038 C 
ATOM     36  C   UNL     1      48.087  12.804  15.298  0.00  0.00    +0.028 C 
ENDBRANCH   3   2
BRANCH  31  32
ATOM     32  O   UNL     1      49.361  15.504  20.385  0.00  0.00    -0.459 OA
ATOM     33  H   UNL     1      50.164  14.967  20.377  0.00  0.00    +0.400 HD
ENDBRANCH  31  32
BRANCH   9  10
ATOM     10  C   UNL     1      46.400  20.167  20.899  0.00  0.00    +0.230 C 
BRANCH  10  11
ATOM     11  O   UNL     1      45.115  20.791  20.846  0.00  0.00    -0.341 OA
BRANCH  11  12
ATOM     12  C   UNL     1      44.048  19.984  20.692  0.00  0.00    +0.511 C 
ATOM     23  O   UNL     1      44.070  18.856  21.142  0.00  0.00    -0.498 OA
BRANCH  12  13
ATOM     13  C   UNL     1      42.852  20.470  19.977  0.00  0.00    -0.121 A 
ATOM     14  C   UNL     1      41.714  19.663  19.890  0.00  0.00    +0.096 A 
ATOM     15  C   UNL     1      40.598  20.118  19.222  0.00  0.00    +0.001 A 
ATOM     16  C   UNL     1      40.600  21.377  18.636  0.00  0.00    +0.122 A 
ATOM     19  C   UNL     1      41.734  22.186  18.719  0.00  0.00    +0.071 A 
ATOM     22  C   UNL     1      42.854  21.739  19.392  0.00  0.00    +0.085 A 
BRANCH  16  17
ATOM     17  O   UNL     1      39.498  21.821  17.979  0.00  0.00    -0.485 OA
ATOM     18  H   UNL     1      39.342  22.770  18.072  0.00  0.00    +0.396 HD
ENDBRANCH  16  17
BRANCH  19  20
ATOM     20  O   UNL     1      41.733  23.418  18.143  0.00  0.00    -0.481 OA
ATOM     21  H   UNL     1      42.048  23.425  17.229  0.00  0.00    +0.391 HD
ENDBRANCH  19  20
ENDBRANCH  12  13
ENDBRANCH  11  12
ENDBRANCH  10  11
ENDBRANCH   9  10
TORSDOF 8
ENDMDL
MODEL 3
REMARK VINA RESULT:      -6.7      1.882      2.893
REMARK  Name = ZINC38658035
REMARK  12 active torsions:
REMARK  status: ('A' for Active; 'I' for Inactive)
REMARK    1  A    between atoms: C1_1  and  C2_2
REMARK    2  A    between atoms: C2_2  and  C3_3
REMARK    3  A    between atoms: C2_2  and  C4_4
REMARK    4  A    between atoms: C10_10  and  C19_21
REMARK    5  A    between atoms: C10_10  and  C20_22
REMARK    6  A    between atoms: C14_14  and  C18_20
REMARK    7  A    between atoms: C16_16  and  O2_19
REMARK    8  A    between atoms: C20_22  and  O3_23
REMARK    9  A    between atoms: O3_23  and  C21_24
REMARK   10  A    between atoms: C21_24  and  C22_26
REMARK   11  A    between atoms: C25_29  and  O6_33
REMARK   12  A    between atoms: C26_30  and  O5_32
REMARK                            x       y       z     vdW  Elec       q    Type
REMARK                         _______ _______ _______ _____ _____    ______ ____
ROOT
ATOM      3  C   UNL     1      43.072  19.793  19.840  0.00  0.00    -0.192 C 
ATOM      4  C   UNL     1      43.416  18.482  19.898  0.00  0.00    +0.109 C 
ATOM      5  C   UNL     1      44.780  18.107  19.899  0.00  0.00    -0.108 C 
ATOM      6  C   UNL     1      45.141  16.762  19.969  0.00  0.00    +0.142 C 
ATOM      7  C   UNL     1      46.474  16.336  20.002  0.00  0.00    -0.032 C 
ATOM      8  C   UNL     1      47.499  17.194  19.938  0.00  0.00    -0.018 C 
ATOM      9  C   UNL     1      48.928  16.726  20.032  0.00  0.00    -0.021 C 
ATOM     24  C   UNL     1      48.963  15.230  20.351  0.00  0.00    +0.056 C 
ATOM     25  C   UNL     1      49.619  17.509  21.155  0.00  0.00    +0.045 C 
ATOM     26  C   UNL     1      49.429  19.009  20.920  0.00  0.00    +0.012 C 
ATOM     27  C   UNL     1      47.941  19.363  20.961  0.00  0.00    +0.046 C 
ATOM     28  C   UNL     1      47.224  18.677  19.797  0.00  0.00    +0.010 C 
ATOM     29  C   UNL     1      47.860  19.162  18.493  0.00  0.00    +0.059 C 
ATOM     30  C   UNL     1      45.778  19.111  19.822  0.00  0.00    -0.053 C 
ATOM     31  C   UNL     1      45.436  20.419  19.767  0.00  0.00    +0.020 C 
ATOM     34  C   UNL     1      44.067  20.788  19.774  0.00  0.00    +0.388 C 
ATOM     35  O   UNL     1      43.751  21.968  19.725  0.00  0.00    -0.470 OA
ENDROOT
BRANCH   3   2
ATOM      1  C   UNL     1      41.057  20.086  18.424  0.00  0.00    +0.028 C 
ATOM      2  C   UNL     1      41.617  20.187  19.844  0.00  0.00    +0.038 C 
ATOM     36  C   UNL     1      40.838  19.248  20.767  0.00  0.00    +0.028 C 
ENDBRANCH   3   2
BRANCH  31  32
ATOM     32  O   UNL     1      46.401  21.375  19.701  0.00  0.00    -0.459 OA
ATOM     33  H   UNL     1      47.251  21.102  20.072  0.00  0.00    +0.400 HD
ENDBRANCH  31  32
BRANCH   9  10
ATOM     10  C   UNL     1      49.644  16.987  18.704  0.00  0.00    +0.230 C 
BRANCH  10  11
ATOM     11  O   UNL     1      50.831  16.192  18.638  0.00  0.00    -0.341 OA
BRANCH  11  12
ATOM     12  C   UNL     1      51.981  16.833  18.354  0.00  0.00    +0.511 C 
ATOM     23  O   UNL     1      53.046  16.317  18.629  0.00  0.00    -0.498 OA
BRANCH  12  13
ATOM     13  C   UNL     1      51.948  18.159  17.709  0.00  0.00    -0.121 A 
ATOM     14  C   UNL     1      51.781  18.260  16.326  0.00  0.00    +0.096 A 
ATOM     15  C   UNL     1      51.751  19.499  15.725  0.00  0.00    +0.001 A 
ATOM     16  C   UNL     1      51.884  20.649  16.490  0.00  0.00    +0.122 A 
ATOM     19  C   UNL     1      52.052  20.556  17.872  0.00  0.00    +0.071 A 
ATOM     22  C   UNL     1      52.078  19.317  18.481  0.00  0.00    +0.085 A 
BRANCH  16  17
ATOM     17  O   UNL     1      51.854  21.869  15.893  0.00  0.00    -0.485 OA
ATOM     18  H   UNL     1      52.522  22.484  16.223  0.00  0.00    +0.396 HD
ENDBRANCH  16  17
BRANCH  19  20
ATOM     20  O   UNL     1      52.184  21.685  18.619  0.00  0.00    -0.481 OA
ATOM     21  H   UNL     1      51.356  22.166  18.754  0.00  0.00    +0.391 HD
ENDBRANCH  19  20
ENDBRANCH  12  13
ENDBRANCH  11  12
ENDBRANCH  10  11
ENDBRANCH   9  10
TORSDOF 8
ENDMDL
MODEL 4
REMARK VINA RESULT:      -6.6      3.204      7.214
REMARK  Name = ZINC38658035
REMARK  12 active torsions:
REMARK  status: ('A' for Active; 'I' for Inactive)
REMARK    1  A    between atoms: C1_1  and  C2_2
REMARK    2  A    between atoms: C2_2  and  C3_3
REMARK    3  A    between atoms: C2_2  and  C4_4
REMARK    4  A    between atoms: C10_10  and  C19_21
REMARK    5  A    between atoms: C10_10  and  C20_22
REMARK    6  A    between atoms: C14_14  and  C18_20
REMARK    7  A    between atoms: C16_16  and  O2_19
REMARK    8  A    between atoms: C20_22  and  O3_23
REMARK    9  A    between atoms: O3_23  and  C21_24
REMARK   10  A    between atoms: C21_24  and  C22_26
REMARK   11  A    between atoms: C25_29  and  O6_33
REMARK   12  A    between atoms: C26_30  and  O5_32
REMARK                            x       y       z     vdW  Elec       q    Type
REMARK                         _______ _______ _______ _____ _____    ______ ____
ROOT
ATOM      3  C   UNL     1      50.806  19.102  18.009  0.00  0.00    -0.192 C 
ATOM      4  C   UNL     1      50.051  18.430  18.914  0.00  0.00    +0.109 C 
ATOM      5  C   UNL     1      49.995  17.016  18.878  0.00  0.00    -0.108 C 
ATOM      6  C   UNL     1      49.229  16.318  19.812  0.00  0.00    +0.142 C 
ATOM      7  C   UNL     1      49.160  14.921  19.842  0.00  0.00    -0.032 C 
ATOM      8  C   UNL     1      49.803  14.156  18.952  0.00  0.00    -0.018 C 
ATOM      9  C   UNL     1      49.764  12.651  19.031  0.00  0.00    -0.021 C 
ATOM     24  C   UNL     1      49.045  12.218  20.309  0.00  0.00    +0.056 C 
ATOM     25  C   UNL     1      51.208  12.133  19.049  0.00  0.00    +0.045 C 
ATOM     26  C   UNL     1      51.972  12.713  17.858  0.00  0.00    +0.012 C 
ATOM     27  C   UNL     1      52.030  14.239  17.963  0.00  0.00    +0.046 C 
ATOM     28  C   UNL     1      50.616  14.809  17.854  0.00  0.00    +0.010 C 
ATOM     29  C   UNL     1      50.033  14.381  16.506  0.00  0.00    +0.059 C 
ATOM     30  C   UNL     1      50.719  16.315  17.881  0.00  0.00    -0.053 C 
ATOM     31  C   UNL     1      51.475  16.985  16.981  0.00  0.00    +0.020 C 
ATOM     34  C   UNL     1      51.532  18.400  17.026  0.00  0.00    +0.388 C 
ATOM     35  O   UNL     1      52.214  19.012  16.216  0.00  0.00    -0.470 OA
ENDROOT
BRANCH   3   2
ATOM      1  C   UNL     1      49.582  21.151  18.680  0.00  0.00    +0.028 C 
ATOM      2  C   UNL     1      50.867  20.607  18.054  0.00  0.00    +0.038 C 
ATOM     36  C   UNL     1      52.068  21.043  18.895  0.00  0.00    +0.028 C 
ENDBRANCH   3   2
BRANCH  31  32
ATOM     32  O   UNL     1      52.171  16.303  16.033  0.00  0.00    -0.459 OA
ATOM     33  H   UNL     1      51.624  15.728  15.481  0.00  0.00    +0.400 HD
ENDBRANCH  31  32
BRANCH   9  10
ATOM     10  C   UNL     1      49.030  12.090  17.810  0.00  0.00    +0.230 C 
BRANCH  10  11
ATOM     11  O   UNL     1      47.656  11.875  18.138  0.00  0.00    -0.341 OA
BRANCH  11  12
ATOM     12  C   UNL     1      46.741  12.542  17.408  0.00  0.00    +0.511 C 
ATOM     23  O   UNL     1      46.138  11.971  16.522  0.00  0.00    -0.498 OA
BRANCH  12  13
ATOM     13  C   UNL     1      46.470  13.965  17.687  0.00  0.00    -0.121 A 
ATOM     14  C   UNL     1      45.837  14.337  18.876  0.00  0.00    +0.096 A 
ATOM     15  C   UNL     1      45.585  15.666  19.135  0.00  0.00    +0.001 A 
ATOM     16  C   UNL     1      45.958  16.639  18.217  0.00  0.00    +0.122 A 
ATOM     19  C   UNL     1      46.589  16.274  17.028  0.00  0.00    +0.071 A 
ATOM     22  C   UNL     1      46.851  14.944  16.765  0.00  0.00    +0.085 A 
BRANCH  16  17
ATOM     17  O   UNL     1      45.707  17.948  18.477  0.00  0.00    -0.485 OA
ATOM     18  H   UNL     1      44.892  18.100  18.974  0.00  0.00    +0.396 HD
ENDBRANCH  16  17
BRANCH  19  20
ATOM     20  O   UNL     1      46.953  17.230  16.131  0.00  0.00    -0.481 OA
ATOM     21  H   UNL     1      46.308  17.943  16.032  0.00  0.00    +0.391 HD
ENDBRANCH  19  20
ENDBRANCH  12  13
ENDBRANCH  11  12
ENDBRANCH  10  11
ENDBRANCH   9  10
TORSDOF 8
ENDMDL
MODEL 5
REMARK VINA RESULT:      -6.5      3.834      5.644
REMARK  Name = ZINC38658035
REMARK  12 active torsions:
REMARK  status: ('A' for Active; 'I' for Inactive)
REMARK    1  A    between atoms: C1_1  and  C2_2
REMARK    2  A    between atoms: C2_2  and  C3_3
REMARK    3  A    between atoms: C2_2  and  C4_4
REMARK    4  A    between atoms: C10_10  and  C19_21
REMARK    5  A    between atoms: C10_10  and  C20_22
REMARK    6  A    between atoms: C14_14  and  C18_20
REMARK    7  A    between atoms: C16_16  and  O2_19
REMARK    8  A    between atoms: C20_22  and  O3_23
REMARK    9  A    between atoms: O3_23  and  C21_24
REMARK   10  A    between atoms: C21_24  and  C22_26
REMARK   11  A    between atoms: C25_29  and  O6_33
REMARK   12  A    between atoms: C26_30  and  O5_32
REMARK                            x       y       z     vdW  Elec       q    Type
REMARK                         _______ _______ _______ _____ _____    ______ ____
ROOT
ATOM      3  C   UNL     1      44.019  18.573  20.153  0.00  0.00    -0.192 C 
ATOM      4  C   UNL     1      44.210  17.333  20.669  0.00  0.00    +0.109 C 
ATOM      5  C   UNL     1      45.125  16.445  20.057  0.00  0.00    -0.108 C 
ATOM      6  C   UNL     1      45.334  15.172  20.589  0.00  0.00    +0.142 C 
ATOM      7  C   UNL     1      46.248  14.264  20.042  0.00  0.00    -0.032 C 
ATOM      8  C   UNL     1      46.965  14.545  18.948  0.00  0.00    -0.018 C 
ATOM      9  C   UNL     1      47.987  13.579  18.404  0.00  0.00    -0.021 C 
ATOM     24  C   UNL     1      48.140  12.395  19.360  0.00  0.00    +0.056 C 
ATOM     25  C   UNL     1      49.326  14.316  18.275  0.00  0.00    +0.045 C 
ATOM     26  C   UNL     1      49.126  15.595  17.461  0.00  0.00    +0.012 C 
ATOM     27  C   UNL     1      48.154  16.531  18.183  0.00  0.00    +0.046 C 
ATOM     28  C   UNL     1      46.774  15.876  18.251  0.00  0.00    +0.010 C 
ATOM     29  C   UNL     1      46.305  15.605  16.820  0.00  0.00    +0.059 C 
ATOM     30  C   UNL     1      45.825  16.857  18.895  0.00  0.00    -0.053 C 
ATOM     31  C   UNL     1      45.638  18.095  18.382  0.00  0.00    +0.020 C 
ATOM     34  C   UNL     1      44.724  18.982  19.004  0.00  0.00    +0.388 C 
ATOM     35  O   UNL     1      44.550  20.103  18.546  0.00  0.00    -0.470 OA
ENDROOT
BRANCH   3   2
ATOM      1  C   UNL     1      41.643  19.275  20.253  0.00  0.00    +0.028 C 
ATOM      2  C   UNL     1      43.046  19.517  20.811  0.00  0.00    +0.038 C 
ATOM     36  C   UNL     1      43.043  19.274  22.322  0.00  0.00    +0.028 C 
ENDBRANCH   3   2
BRANCH  31  32
ATOM     32  O   UNL     1      46.319  18.483  17.271  0.00  0.00    -0.459 OA
ATOM     33  H   UNL     1      47.189  18.071  17.180  0.00  0.00    +0.400 HD
ENDBRANCH  31  32
BRANCH   9  10
ATOM     10  C   UNL     1      47.539  13.078  17.028  0.00  0.00    +0.230 C 
BRANCH  10  11
ATOM     11  O   UNL     1      48.418  12.039  16.591  0.00  0.00    -0.341 OA
BRANCH  11  12
ATOM     12  C   UNL     1      48.448  11.778  15.270  0.00  0.00    +0.511 C 
ATOM     23  O   UNL     1      47.602  11.061  14.774  0.00  0.00    -0.498 OA
BRANCH  12  13
ATOM     13  C   UNL     1      49.507  12.363  14.426  0.00  0.00    -0.121 A 
ATOM     14  C   UNL     1      50.768  12.624  14.967  0.00  0.00    +0.096 A 
ATOM     15  C   UNL     1      51.756  13.171  14.177  0.00  0.00    +0.001 A 
ATOM     16  C   UNL     1      51.502  13.462  12.844  0.00  0.00    +0.122 A 
ATOM     19  C   UNL     1      50.245  13.204  12.297  0.00  0.00    +0.071 A 
ATOM     22  C   UNL     1      49.252  12.650  13.082  0.00  0.00    +0.085 A 
BRANCH  16  17
ATOM     17  O   UNL     1      52.479  14.001  12.070  0.00  0.00    -0.485 OA
ATOM     18  H   UNL     1      52.185  14.248  11.182  0.00  0.00    +0.396 HD
ENDBRANCH  16  17
BRANCH  19  20
ATOM     20  O   UNL     1      49.999  13.491  10.991  0.00  0.00    -0.481 OA
ATOM     21  H   UNL     1      49.737  12.725  10.463  0.00  0.00    +0.391 HD
ENDBRANCH  19  20
ENDBRANCH  12  13
ENDBRANCH  11  12
ENDBRANCH  10  11
ENDBRANCH   9  10
TORSDOF 8
ENDMDL
MODEL 6
REMARK VINA RESULT:      -6.4      3.098      6.652
REMARK  Name = ZINC38658035
REMARK  12 active torsions:
REMARK  status: ('A' for Active; 'I' for Inactive)
REMARK    1  A    between atoms: C1_1  and  C2_2
REMARK    2  A    between atoms: C2_2  and  C3_3
REMARK    3  A    between atoms: C2_2  and  C4_4
REMARK    4  A    between atoms: C10_10  and  C19_21
REMARK    5  A    between atoms: C10_10  and  C20_22
REMARK    6  A    between atoms: C14_14  and  C18_20
REMARK    7  A    between atoms: C16_16  and  O2_19
REMARK    8  A    between atoms: C20_22  and  O3_23
REMARK    9  A    between atoms: O3_23  and  C21_24
REMARK   10  A    between atoms: C21_24  and  C22_26
REMARK   11  A    between atoms: C25_29  and  O6_33
REMARK   12  A    between atoms: C26_30  and  O5_32
REMARK                            x       y       z     vdW  Elec       q    Type
REMARK                         _______ _______ _______ _____ _____    ______ ____
ROOT
ATOM      3  C   UNL     1      50.069  12.945  15.399  0.00  0.00    -0.192 C 
ATOM      4  C   UNL     1      50.579  13.467  16.542  0.00  0.00    +0.109 C 
ATOM      5  C   UNL     1      49.719  14.066  17.493  0.00  0.00    -0.108 C 
ATOM      6  C   UNL     1      50.236  14.594  18.677  0.00  0.00    +0.142 C 
ATOM      7  C   UNL     1      49.429  15.171  19.664  0.00  0.00    -0.032 C 
ATOM      8  C   UNL     1      48.103  15.284  19.525  0.00  0.00    -0.018 C 
ATOM      9  C   UNL     1      47.240  15.856  20.621  0.00  0.00    -0.021 C 
ATOM     24  C   UNL     1      48.088  16.106  21.869  0.00  0.00    +0.056 C 
ATOM     25  C   UNL     1      46.134  14.843  20.942  0.00  0.00    +0.045 C 
ATOM     26  C   UNL     1      45.402  14.465  19.653  0.00  0.00    +0.012 C 
ATOM     27  C   UNL     1      46.370  13.794  18.676  0.00  0.00    +0.046 C 
ATOM     28  C   UNL     1      47.440  14.799  18.252  0.00  0.00    +0.010 C 
ATOM     29  C   UNL     1      46.742  15.989  17.591  0.00  0.00    +0.059 C 
ATOM     30  C   UNL     1      48.327  14.129  17.231  0.00  0.00    -0.053 C 
ATOM     31  C   UNL     1      47.818  13.607  16.091  0.00  0.00    +0.020 C 
ATOM     34  C   UNL     1      48.684  13.002  15.146  0.00  0.00    +0.388 C 
ATOM     35  O   UNL     1      48.230  12.528  14.115  0.00  0.00    -0.470 OA
ENDROOT
BRANCH   3   2
ATOM      1  C   UNL     1      51.588  13.384  13.488  0.00  0.00    +0.028 C 
ATOM      2  C   UNL     1      50.989  12.305  14.391  0.00  0.00    +0.038 C 
ATOM     36  C   UNL     1      52.114  11.572  15.124  0.00  0.00    +0.028 C 
ENDBRANCH   3   2
BRANCH  31  32
ATOM     32  O   UNL     1      46.480  13.667  15.852  0.00  0.00    -0.459 OA
ATOM     33  H   UNL     1      45.945  13.171  16.486  0.00  0.00    +0.400 HD
ENDBRANCH  31  32
BRANCH   9  10
ATOM     10  C   UNL     1      46.614  17.171  20.149  0.00  0.00    +0.230 C 
BRANCH  10  11
ATOM     11  O   UNL     1      47.544  18.239  20.346  0.00  0.00    -0.341 OA
BRANCH  11  12
ATOM     12  C   UNL     1      47.693  19.115  19.333  0.00  0.00    +0.511 C 
ATOM     23  O   UNL     1      46.772  19.842  19.020  0.00  0.00    -0.498 OA
BRANCH  12  13
ATOM     13  C   UNL     1      48.974  19.192  18.606  0.00  0.00    -0.121 A 
ATOM     14  C   UNL     1      49.355  18.156  17.749  0.00  0.00    +0.096 A 
ATOM     15  C   UNL     1      50.553  18.230  17.071  0.00  0.00    +0.001 A 
ATOM     16  C   UNL     1      51.381  19.331  17.235  0.00  0.00    +0.122 A 
ATOM     19  C   UNL     1      51.007  20.368  18.090  0.00  0.00    +0.071 A 
ATOM     22  C   UNL     1      49.805  20.304  18.768  0.00  0.00    +0.085 A 
BRANCH  16  17
ATOM     17  O   UNL     1      52.560  19.399  16.565  0.00  0.00    -0.485 OA
ATOM     18  H   UNL     1      52.810  20.294  16.300  0.00  0.00    +0.396 HD
ENDBRANCH  16  17
BRANCH  19  20
ATOM     20  O   UNL     1      51.821  21.446  18.249  0.00  0.00    -0.481 OA
ATOM     21  H   UNL     1      51.634  21.966  19.041  0.00  0.00    +0.391 HD
ENDBRANCH  19  20
ENDBRANCH  12  13
ENDBRANCH  11  12
ENDBRANCH  10  11
ENDBRANCH   9  10
TORSDOF 8
ENDMDL
MODEL 7
REMARK VINA RESULT:      -6.3      2.591      5.872
REMARK  Name = ZINC38658035
REMARK  12 active torsions:
REMARK  status: ('A' for Active; 'I' for Inactive)
REMARK    1  A    between atoms: C1_1  and  C2_2
REMARK    2  A    between atoms: C2_2  and  C3_3
REMARK    3  A    between atoms: C2_2  and  C4_4
REMARK    4  A    between atoms: C10_10  and  C19_21
REMARK    5  A    between atoms: C10_10  and  C20_22
REMARK    6  A    between atoms: C14_14  and  C18_20
REMARK    7  A    between atoms: C16_16  and  O2_19
REMARK    8  A    between atoms: C20_22  and  O3_23
REMARK    9  A    between atoms: O3_23  and  C21_24
REMARK   10  A    between atoms: C21_24  and  C22_26
REMARK   11  A    between atoms: C25_29  and  O6_33
REMARK   12  A    between atoms: C26_30  and  O5_32
REMARK                            x       y       z     vdW  Elec       q    Type
REMARK                         _______ _______ _______ _____ _____    ______ ____
ROOT
ATOM      3  C   UNL     1      46.744  12.742  17.150  0.00  0.00    -0.192 C 
ATOM      4  C   UNL     1      46.016  12.949  18.275  0.00  0.00    +0.109 C 
ATOM      5  C   UNL     1      45.906  14.251  18.818  0.00  0.00    -0.108 C 
ATOM      6  C   UNL     1      45.149  14.473  19.969  0.00  0.00    +0.142 C 
ATOM      7  C   UNL     1      44.982  15.742  20.533  0.00  0.00    -0.032 C 
ATOM      8  C   UNL     1      45.567  16.832  20.021  0.00  0.00    -0.018 C 
ATOM      9  C   UNL     1      45.333  18.202  20.606  0.00  0.00    -0.021 C 
ATOM     24  C   UNL     1      44.264  18.123  21.697  0.00  0.00    +0.056 C 
ATOM     25  C   UNL     1      44.856  19.130  19.482  0.00  0.00    +0.045 C 
ATOM     26  C   UNL     1      45.846  19.069  18.317  0.00  0.00    +0.012 C 
ATOM     27  C   UNL     1      45.901  17.649  17.748  0.00  0.00    +0.046 C 
ATOM     28  C   UNL     1      46.463  16.700  18.807  0.00  0.00    +0.010 C 
ATOM     29  C   UNL     1      47.862  17.185  19.188  0.00  0.00    +0.059 C 
ATOM     30  C   UNL     1      46.577  15.328  18.187  0.00  0.00    -0.053 C 
ATOM     31  C   UNL     1      47.302  15.123  17.062  0.00  0.00    +0.020 C 
ATOM     34  C   UNL     1      47.402  13.817  16.520  0.00  0.00    +0.388 C 
ATOM     35  O   UNL     1      48.055  13.625  15.504  0.00  0.00    -0.470 OA
ENDROOT
BRANCH   3   2
ATOM      1  C   UNL     1      47.373  10.395  17.644  0.00  0.00    +0.028 C 
ATOM      2  C   UNL     1      46.855  11.355  16.572  0.00  0.00    +0.038 C 
ATOM     36  C   UNL     1      45.476  10.890  16.097  0.00  0.00    +0.028 C 
ENDBRANCH   3   2
BRANCH  31  32
ATOM     32  O   UNL     1      47.936  16.164  16.460  0.00  0.00    -0.459 OA
ATOM     33  H   UNL     1      47.884  16.150  15.495  0.00  0.00    +0.400 HD
ENDBRANCH  31  32
BRANCH   9  10
ATOM     10  C   UNL     1      46.638  18.738  21.199  0.00  0.00    +0.230 C 
BRANCH  10  11
ATOM     11  O   UNL     1      46.715  20.149  20.984  0.00  0.00    -0.341 OA
BRANCH  11  12
ATOM     12  C   UNL     1      47.833  20.772  21.404  0.00  0.00    +0.511 C 
ATOM     23  O   UNL     1      47.865  21.286  22.504  0.00  0.00    -0.498 OA
BRANCH  12  13
ATOM     13  C   UNL     1      49.019  20.829  20.529  0.00  0.00    -0.121 A 
ATOM     14  C   UNL     1      48.863  20.883  19.142  0.00  0.00    +0.096 A 
ATOM     15  C   UNL     1      49.972  20.935  18.326  0.00  0.00    +0.001 A 
ATOM     16  C   UNL     1      51.246  20.938  18.878  0.00  0.00    +0.122 A 
ATOM     19  C   UNL     1      51.409  20.884  20.263  0.00  0.00    +0.071 A 
ATOM     22  C   UNL     1      50.301  20.836  21.087  0.00  0.00    +0.085 A 
BRANCH  16  17
ATOM     17  O   UNL     1      52.335  20.990  18.070  0.00  0.00    -0.485 OA
ATOM     18  H   UNL     1      52.897  20.204  18.116  0.00  0.00    +0.396 HD
ENDBRANCH  16  17
BRANCH  19  20
ATOM     20  O   UNL     1      52.658  20.885  20.801  0.00  0.00    -0.481 OA
ATOM     21  H   UNL     1      52.758  20.299  21.563  0.00  0.00    +0.391 HD
ENDBRANCH  19  20
ENDBRANCH  12  13
ENDBRANCH  11  12
ENDBRANCH  10  11
ENDBRANCH   9  10
TORSDOF 8
ENDMDL
MODEL 8
REMARK VINA RESULT:      -6.2      2.639      7.245
REMARK  Name = ZINC38658035
REMARK  12 active torsions:
REMARK  status: ('A' for Active; 'I' for Inactive)
REMARK    1  A    between atoms: C1_1  and  C2_2
REMARK    2  A    between atoms: C2_2  and  C3_3
REMARK    3  A    between atoms: C2_2  and  C4_4
REMARK    4  A    between atoms: C10_10  and  C19_21
REMARK    5  A    between atoms: C10_10  and  C20_22
REMARK    6  A    between atoms: C14_14  and  C18_20
REMARK    7  A    between atoms: C16_16  and  O2_19
REMARK    8  A    between atoms: C20_22  and  O3_23
REMARK    9  A    between atoms: O3_23  and  C21_24
REMARK   10  A    between atoms: C21_24  and  C22_26
REMARK   11  A    between atoms: C25_29  and  O6_33
REMARK   12  A    between atoms: C26_30  and  O5_32
REMARK                            x       y       z     vdW  Elec       q    Type
REMARK                         _______ _______ _______ _____ _____    ______ ____
ROOT
ATOM      3  C   UNL     1      51.318  20.140  20.901  0.00  0.00    -0.192 C 
ATOM      4  C   UNL     1      50.475  19.349  21.611  0.00  0.00    +0.109 C 
ATOM      5  C   UNL     1      49.315  18.819  20.997  0.00  0.00    -0.108 C 
ATOM      6  C   UNL     1      48.450  17.996  21.717  0.00  0.00    +0.142 C 
ATOM      7  C   UNL     1      47.306  17.422  21.152  0.00  0.00    -0.032 C 
ATOM      8  C   UNL     1      46.945  17.649  19.884  0.00  0.00    -0.018 C 
ATOM      9  C   UNL     1      45.741  16.978  19.273  0.00  0.00    -0.021 C 
ATOM     24  C   UNL     1      45.165  15.956  20.253  0.00  0.00    +0.056 C 
ATOM     25  C   UNL     1      46.186  16.268  17.988  0.00  0.00    +0.045 C 
ATOM     26  C   UNL     1      46.919  17.262  17.085  0.00  0.00    +0.012 C 
ATOM     27  C   UNL     1      48.178  17.778  17.784  0.00  0.00    +0.046 C 
ATOM     28  C   UNL     1      47.779  18.577  19.025  0.00  0.00    +0.010 C 
ATOM     29  C   UNL     1      46.893  19.741  18.577  0.00  0.00    +0.059 C 
ATOM     30  C   UNL     1      49.038  19.136  19.643  0.00  0.00    -0.053 C 
ATOM     31  C   UNL     1      49.880  19.923  18.934  0.00  0.00    +0.020 C 
ATOM     34  C   UNL     1      51.043  20.445  19.553  0.00  0.00    +0.388 C 
ATOM     35  O   UNL     1      51.808  21.156  18.918  0.00  0.00    -0.470 OA
ENDROOT
BRANCH   3   2
ATOM      1  C   UNL     1      52.186  21.954  22.352  0.00  0.00    +0.028 C 
ATOM      2  C   UNL     1      52.553  20.699  21.559  0.00  0.00    +0.038 C 
ATOM     36  C   UNL     1      53.144  19.652  22.505  0.00  0.00    +0.028 C 
ENDBRANCH   3   2
BRANCH  31  32
ATOM     32  O   UNL     1      49.608  20.215  17.634  0.00  0.00    -0.459 OA
ATOM     33  H   UNL     1      50.084  19.662  16.999  0.00  0.00    +0.400 HD
ENDBRANCH  31  32
BRANCH   9  10
ATOM     10  C   UNL     1      44.680  18.030  18.940  0.00  0.00    +0.230 C 
BRANCH  10  11
ATOM     11  O   UNL     1      43.820  18.212  20.067  0.00  0.00    -0.341 OA
BRANCH  11  12
ATOM     12  C   UNL     1      43.063  19.326  20.085  0.00  0.00    +0.511 C 
ATOM     23  O   UNL     1      41.869  19.252  19.873  0.00  0.00    -0.498 OA
BRANCH  12  13
ATOM     13  C   UNL     1      43.682  20.635  20.365  0.00  0.00    -0.121 A 
ATOM     14  C   UNL     1      44.606  20.763  21.407  0.00  0.00    +0.096 A 
ATOM     15  C   UNL     1      45.183  21.986  21.667  0.00  0.00    +0.001 A 
ATOM     16  C   UNL     1      44.852  23.093  20.897  0.00  0.00    +0.122 A 
ATOM     19  C   UNL     1      43.931  22.972  19.857  0.00  0.00    +0.071 A 
ATOM     22  C   UNL     1      43.352  21.747  19.586  0.00  0.00    +0.085 A 
BRANCH  16  17
ATOM     17  O   UNL     1      45.425  24.296  21.158  0.00  0.00    -0.485 OA
ATOM     18  H   UNL     1      45.834  24.355  22.032  0.00  0.00    +0.396 HD
ENDBRANCH  16  17
BRANCH  19  20
ATOM     20  O   UNL     1      43.607  24.058  19.105  0.00  0.00    -0.481 OA
ATOM     21  H   UNL     1      43.198  24.776  19.606  0.00  0.00    +0.391 HD
ENDBRANCH  19  20
ENDBRANCH  12  13
ENDBRANCH  11  12
ENDBRANCH  10  11
ENDBRANCH   9  10
TORSDOF 8
ENDMDL
MODEL 9
REMARK VINA RESULT:      -6.2      2.756      5.414
REMARK  Name = ZINC38658035
REMARK  12 active torsions:
REMARK  status: ('A' for Active; 'I' for Inactive)
REMARK    1  A    between atoms: C1_1  and  C2_2
REMARK    2  A    between atoms: C2_2  and  C3_3
REMARK    3  A    between atoms: C2_2  and  C4_4
REMARK    4  A    between atoms: C10_10  and  C19_21
REMARK    5  A    between atoms: C10_10  and  C20_22
REMARK    6  A    between atoms: C14_14  and  C18_20
REMARK    7  A    between atoms: C16_16  and  O2_19
REMARK    8  A    between atoms: C20_22  and  O3_23
REMARK    9  A    between atoms: O3_23  and  C21_24
REMARK   10  A    between atoms: C21_24  and  C22_26
REMARK   11  A    between atoms: C25_29  and  O6_33
REMARK   12  A    between atoms: C26_30  and  O5_32
REMARK                            x       y       z     vdW  Elec       q    Type
REMARK                         _______ _______ _______ _____ _____    ______ ____
ROOT
ATOM      3  C   UNL     1      47.296  13.758  17.748  0.00  0.00    -0.192 C 
ATOM      4  C   UNL     1      47.447  14.132  19.044  0.00  0.00    +0.109 C 
ATOM      5  C   UNL     1      47.397  15.501  19.397  0.00  0.00    -0.108 C 
ATOM      6  C   UNL     1      47.539  15.892  20.728  0.00  0.00    +0.142 C 
ATOM      7  C   UNL     1      47.470  17.228  21.137  0.00  0.00    -0.032 C 
ATOM      8  C   UNL     1      47.290  18.231  20.270  0.00  0.00    -0.018 C 
ATOM      9  C   UNL     1      47.160  19.660  20.731  0.00  0.00    -0.021 C 
ATOM     24  C   UNL     1      47.114  19.708  22.259  0.00  0.00    +0.056 C 
ATOM     25  C   UNL     1      45.859  20.235  20.157  0.00  0.00    +0.045 C 
ATOM     26  C   UNL     1      45.835  20.024  18.642  0.00  0.00    +0.012 C 
ATOM     27  C   UNL     1      45.858  18.529  18.319  0.00  0.00    +0.046 C 
ATOM     28  C   UNL     1      47.183  17.929  18.789  0.00  0.00    +0.010 C 
ATOM     29  C   UNL     1      48.319  18.657  18.068  0.00  0.00    +0.059 C 
ATOM     30  C   UNL     1      47.205  16.475  18.384  0.00  0.00    -0.053 C 
ATOM     31  C   UNL     1      47.052  16.102  17.092  0.00  0.00    +0.020 C 
ATOM     34  C   UNL     1      47.096  14.729  16.747  0.00  0.00    +0.388 C 
ATOM     35  O   UNL     1      46.958  14.385  15.581  0.00  0.00    -0.470 OA
ENDROOT
BRANCH   3   2
ATOM      1  C   UNL     1      48.083  11.520  18.470  0.00  0.00    +0.028 C 
ATOM      2  C   UNL     1      47.347  12.298  17.379  0.00  0.00    +0.038 C 
ATOM     36  C   UNL     1      45.921  11.759  17.241  0.00  0.00    +0.028 C 
ENDBRANCH   3   2
BRANCH  31  32
ATOM     32  O   UNL     1      46.861  17.043  16.129  0.00  0.00    -0.459 OA
ATOM     33  H   UNL     1      47.539  17.043  15.439  0.00  0.00    +0.400 HD
ENDBRANCH  31  32
BRANCH   9  10
ATOM     10  C   UNL     1      48.352  20.475  20.224  0.00  0.00    +0.230 C 
BRANCH  10  11
ATOM     11  O   UNL     1      49.430  20.373  21.156  0.00  0.00    -0.341 OA
BRANCH  11  12
ATOM     12  C   UNL     1      50.645  20.773  20.733  0.00  0.00    +0.511 C 
ATOM     23  O   UNL     1      51.320  21.505  21.430  0.00  0.00    -0.498 OA
BRANCH  12  13
ATOM     13  C   UNL     1      51.158  20.320  19.426  0.00  0.00    -0.121 A 
ATOM     14  C   UNL     1      51.099  21.171  18.320  0.00  0.00    +0.096 A 
ATOM     15  C   UNL     1      51.577  20.747  17.099  0.00  0.00    +0.001 A 
ATOM     16  C   UNL     1      52.120  19.476  16.966  0.00  0.00    +0.122 A 
ATOM     19  C   UNL     1      52.180  18.621  18.067  0.00  0.00    +0.071 A 
ATOM     22  C   UNL     1      51.708  19.042  19.294  0.00  0.00    +0.085 A 
BRANCH  16  17
ATOM     17  O   UNL     1      52.590  19.062  15.761  0.00  0.00    -0.485 OA
ATOM     18  H   UNL     1      53.050  19.751  15.262  0.00  0.00    +0.396 HD
ENDBRANCH  16  17
BRANCH  19  20
ATOM     20  O   UNL     1      52.711  17.376  17.932  0.00  0.00    -0.481 OA
ATOM     21  H   UNL     1      52.470  16.932  17.109  0.00  0.00    +0.391 HD
ENDBRANCH  19  20
ENDBRANCH  12  13
ENDBRANCH  11  12
ENDBRANCH  10  11
ENDBRANCH   9  10
TORSDOF 8
ENDMDL
