MODEL 1
REMARK VINA RESULT:      -7.2      0.000      0.000
REMARK  Name = ZINC95486081
REMARK  7 active torsions:
REMARK  status: ('A' for Active; 'I' for Inactive)
REMARK    1  A    between atoms: C1_1  and  C2_2
REMARK    2  A    between atoms: C2_2  and  C23_31
REMARK    3  A    between atoms: C3_3  and  C4_4
REMARK    4  A    between atoms: C4_4  and  C5_5
REMARK    5  A    between atoms: C9_10  and  C14_18
REMARK    6  A    between atoms: C13_15  and  O2_17
REMARK    7  A    between atoms: C20_26  and  O5_30
REMARK                            x       y       z     vdW  Elec       q    Type
REMARK                         _______ _______ _______ _____ _____    ______ ____
ROOT
ATOM      6  C   UNL     1      50.992  21.086  19.321  0.00  0.00    -0.007 C 
ATOM      7  C   UNL     1      49.682  20.294  19.278  0.00  0.00    +0.101 C 
ATOM      8  C   UNL     1      48.781  20.744  20.400  0.00  0.00    -0.144 A 
ATOM      9  C   UNL     1      47.431  20.444  20.332  0.00  0.00    +0.060 A 
ATOM     10  C   UNL     1      46.577  20.837  21.343  0.00  0.00    -0.122 A 
ATOM     24  C   UNL     1      47.070  21.534  22.432  0.00  0.00    +0.074 A 
ATOM     25  C   UNL     1      48.413  21.837  22.505  0.00  0.00    -0.013 A 
ATOM     26  C   UNL     1      49.276  21.443  21.487  0.00  0.00    +0.144 A 
ATOM     27  O   UNL     1      50.591  21.769  21.590  0.00  0.00    -0.334 OA
ATOM     28  C   UNL     1      51.520  21.069  20.761  0.00  0.00    +0.381 C 
ENDROOT
BRANCH  10  11
ATOM     11  C   UNL     1      45.109  20.509  21.260  0.00  0.00    +0.240 C 
ATOM     12  C   UNL     1      44.933  18.997  21.048  0.00  0.00    +0.038 C 
ATOM     13  C   UNL     1      43.443  18.730  20.939  0.00  0.00    +0.402 C 
ATOM     14  C   UNL     1      42.653  19.708  20.175  0.00  0.00    -0.265 A 
ATOM     15  C   UNL     1      41.334  19.427  19.804  0.00  0.00    +0.135 A 
ATOM     16  C   UNL     1      40.616  20.352  19.101  0.00  0.00    -0.051 A 
ATOM     17  C   UNL     1      41.193  21.572  18.752  0.00  0.00    +0.181 A 
ATOM     20  C   UNL     1      42.500  21.862  19.112  0.00  0.00    -0.045 A 
ATOM     21  C   UNL     1      43.244  20.934  19.822  0.00  0.00    +0.201 A 
ATOM     22  O   UNL     1      42.929  17.759  21.455  0.00  0.00    -0.442 OA
ATOM     23  O   UNL     1      44.524  21.211  20.163  0.00  0.00    -0.300 OA
BRANCH  17  18
ATOM     18  O   UNL     1      40.467  22.483  18.057  0.00  0.00    -0.494 OA
ATOM     19  H   UNL     1      40.978  23.246  17.756  0.00  0.00    +0.401 HD
ENDBRANCH  17  18
ENDBRANCH  10  11
BRANCH  28  29
ATOM     29  O   UNL     1      51.643  19.718  21.214  0.00  0.00    -0.562 OA
ATOM     30  H   UNL     1      51.660  19.065  20.502  0.00  0.00    +0.387 HD
ENDBRANCH  28  29
BRANCH   6   5
ATOM      5  C   UNL     1      52.017  20.437  18.389  0.00  0.00    +0.077 C 
BRANCH   5   4
ATOM      1  C   UNL     1      51.987  19.470  15.740  0.00  0.00    +0.075 C 
ATOM      2  C   UNL     1      51.544  18.582  16.874  0.00  0.00    -0.122 C 
ATOM      3  C   UNL     1      51.020  17.198  16.588  0.00  0.00    +0.073 C 
ATOM      4  C   UNL     1      51.613  19.013  18.110  0.00  0.00    -0.071 C 
ENDBRANCH   5   4
ENDBRANCH   6   5
TORSDOF 5
ENDMDL
MODEL 2
REMARK VINA RESULT:      -7.1      2.264      8.380
REMARK  Name = ZINC95486081
REMARK  7 active torsions:
REMARK  status: ('A' for Active; 'I' for Inactive)
REMARK    1  A    between atoms: C1_1  and  C2_2
REMARK    2  A    between atoms: C2_2  and  C23_31
REMARK    3  A    between atoms: C3_3  and  C4_4
REMARK    4  A    between atoms: C4_4  and  C5_5
REMARK    5  A    between atoms: C9_10  and  C14_18
REMARK    6  A    between atoms: C13_15  and  O2_17
REMARK    7  A    between atoms: C20_26  and  O5_30
REMARK                            x       y       z     vdW  Elec       q    Type
REMARK                         _______ _______ _______ _____ _____    ______ ____
ROOT
ATOM      6  C   UNL     1      43.909  21.504  20.132  0.00  0.00    -0.007 C 
ATOM      7  C   UNL     1      45.008  21.236  19.100  0.00  0.00    +0.101 C 
ATOM      8  C   UNL     1      46.350  21.206  19.785  0.00  0.00    -0.144 A 
ATOM      9  C   UNL     1      47.420  20.620  19.129  0.00  0.00    +0.060 A 
ATOM     10  C   UNL     1      48.665  20.578  19.725  0.00  0.00    -0.122 A 
ATOM     24  C   UNL     1      48.848  21.124  20.982  0.00  0.00    +0.074 A 
ATOM     25  C   UNL     1      47.787  21.708  21.641  0.00  0.00    -0.013 A 
ATOM     26  C   UNL     1      46.530  21.751  21.044  0.00  0.00    +0.144 A 
ATOM     27  O   UNL     1      45.507  22.325  21.729  0.00  0.00    -0.334 OA
ATOM     28  C   UNL     1      44.338  22.697  20.996  0.00  0.00    +0.381 C 
ENDROOT
BRANCH  10  11
ATOM     11  C   UNL     1      49.823  19.937  19.005  0.00  0.00    +0.240 C 
ATOM     12  C   UNL     1      50.259  20.832  17.836  0.00  0.00    +0.038 C 
ATOM     13  C   UNL     1      51.402  20.124  17.130  0.00  0.00    +0.402 C 
ATOM     14  C   UNL     1      51.276  18.667  16.974  0.00  0.00    -0.265 A 
ATOM     15  C   UNL     1      52.139  17.962  16.129  0.00  0.00    +0.135 A 
ATOM     16  C   UNL     1      52.010  16.608  16.004  0.00  0.00    -0.051 A 
ATOM     17  C   UNL     1      51.022  15.928  16.714  0.00  0.00    +0.181 A 
ATOM     20  C   UNL     1      50.159  16.615  17.555  0.00  0.00    -0.045 A 
ATOM     21  C   UNL     1      50.274  17.989  17.691  0.00  0.00    +0.201 A 
ATOM     22  O   UNL     1      52.369  20.729  16.716  0.00  0.00    -0.442 OA
ATOM     23  O   UNL     1      49.424  18.662  18.501  0.00  0.00    -0.300 OA
BRANCH  17  18
ATOM     18  O   UNL     1      50.907  14.583  16.583  0.00  0.00    -0.494 OA
ATOM     19  H   UNL     1      51.717  14.097  16.788  0.00  0.00    +0.401 HD
ENDBRANCH  17  18
ENDBRANCH  10  11
BRANCH  28  29
ATOM     29  O   UNL     1      44.634  23.817  20.159  0.00  0.00    -0.562 OA
ATOM     30  H   UNL     1      45.370  23.670  19.551  0.00  0.00    +0.387 HD
ENDBRANCH  28  29
BRANCH   6   5
ATOM      5  C   UNL     1      42.597  21.832  19.416  0.00  0.00    +0.077 C 
BRANCH   5   4
ATOM      1  C   UNL     1      39.913  21.673  18.568  0.00  0.00    +0.075 C 
ATOM      2  C   UNL     1      40.850  20.517  18.331  0.00  0.00    -0.122 C 
ATOM      3  C   UNL     1      40.339  19.248  17.700  0.00  0.00    +0.073 C 
ATOM      4  C   UNL     1      42.112  20.615  18.674  0.00  0.00    -0.071 C 
ENDBRANCH   5   4
ENDBRANCH   6   5
TORSDOF 5
ENDMDL
MODEL 3
REMARK VINA RESULT:      -7.1      4.687      6.923
REMARK  Name = ZINC95486081
REMARK  7 active torsions:
REMARK  status: ('A' for Active; 'I' for Inactive)
REMARK    1  A    between atoms: C1_1  and  C2_2
REMARK    2  A    between atoms: C2_2  and  C23_31
REMARK    3  A    between atoms: C3_3  and  C4_4
REMARK    4  A    between atoms: C4_4  and  C5_5
REMARK    5  A    between atoms: C9_10  and  C14_18
REMARK    6  A    between atoms: C13_15  and  O2_17
REMARK    7  A    between atoms: C20_26  and  O5_30
REMARK                            x       y       z     vdW  Elec       q    Type
REMARK                         _______ _______ _______ _____ _____    ______ ____
ROOT
ATOM      6  C   UNL     1      47.516  12.358  16.399  0.00  0.00    -0.007 C 
ATOM      7  C   UNL     1      47.222  13.819  16.046  0.00  0.00    +0.101 C 
ATOM      8  C   UNL     1      46.614  14.516  17.237  0.00  0.00    -0.144 A 
ATOM      9  C   UNL     1      46.617  15.900  17.272  0.00  0.00    +0.060 A 
ATOM     10  C   UNL     1      46.064  16.572  18.344  0.00  0.00    -0.122 A 
ATOM     24  C   UNL     1      45.504  15.861  19.390  0.00  0.00    +0.074 A 
ATOM     25  C   UNL     1      45.499  14.483  19.361  0.00  0.00    -0.013 A 
ATOM     26  C   UNL     1      46.056  13.803  18.282  0.00  0.00    +0.144 A 
ATOM     27  O   UNL     1      46.042  12.444  18.296  0.00  0.00    -0.334 OA
ATOM     28  C   UNL     1      46.267  11.761  17.061  0.00  0.00    +0.381 C 
ENDROOT
BRANCH  10  11
ATOM     11  C   UNL     1      46.073  18.079  18.375  0.00  0.00    +0.240 C 
ATOM     12  C   UNL     1      47.200  18.565  19.300  0.00  0.00    +0.038 C 
ATOM     13  C   UNL     1      47.140  20.082  19.319  0.00  0.00    +0.402 C 
ATOM     14  C   UNL     1      45.800  20.687  19.360  0.00  0.00    -0.265 A 
ATOM     15  C   UNL     1      45.640  22.049  19.632  0.00  0.00    +0.135 A 
ATOM     16  C   UNL     1      44.387  22.593  19.659  0.00  0.00    -0.051 A 
ATOM     17  C   UNL     1      43.270  21.795  19.416  0.00  0.00    +0.181 A 
ATOM     20  C   UNL     1      43.415  20.443  19.146  0.00  0.00    -0.045 A 
ATOM     21  C   UNL     1      44.678  19.875  19.119  0.00  0.00    +0.201 A 
ATOM     22  O   UNL     1      48.146  20.761  19.302  0.00  0.00    -0.442 OA
ATOM     23  O   UNL     1      44.820  18.552  18.869  0.00  0.00    -0.300 OA
BRANCH  17  18
ATOM     18  O   UNL     1      42.032  22.349  19.442  0.00  0.00    -0.494 OA
ATOM     19  H   UNL     1      41.983  23.180  19.933  0.00  0.00    +0.401 HD
ENDBRANCH  17  18
ENDBRANCH  10  11
BRANCH  28  29
ATOM     29  O   UNL     1      45.137  11.936  16.204  0.00  0.00    -0.562 OA
ATOM     30  H   UNL     1      44.314  11.577  16.560  0.00  0.00    +0.387 HD
ENDBRANCH  28  29
BRANCH   6   5
ATOM      5  C   UNL     1      47.847  11.577  15.126  0.00  0.00    +0.077 C 
BRANCH   5   4
ATOM      1  C   UNL     1      50.378  10.602  14.356  0.00  0.00    +0.075 C 
ATOM      2  C   UNL     1      49.939  11.980  13.934  0.00  0.00    -0.122 C 
ATOM      3  C   UNL     1      50.877  12.866  13.155  0.00  0.00    +0.073 C 
ATOM      4  C   UNL     1      48.740  12.409  14.243  0.00  0.00    -0.071 C 
ENDBRANCH   5   4
ENDBRANCH   6   5
TORSDOF 5
ENDMDL
MODEL 4
REMARK VINA RESULT:      -6.8      1.933      2.968
REMARK  Name = ZINC95486081
REMARK  7 active torsions:
REMARK  status: ('A' for Active; 'I' for Inactive)
REMARK    1  A    between atoms: C1_1  and  C2_2
REMARK    2  A    between atoms: C2_2  and  C23_31
REMARK    3  A    between atoms: C3_3  and  C4_4
REMARK    4  A    between atoms: C4_4  and  C5_5
REMARK    5  A    between atoms: C9_10  and  C14_18
REMARK    6  A    between atoms: C13_15  and  O2_17
REMARK    7  A    between atoms: C20_26  and  O5_30
REMARK                            x       y       z     vdW  Elec       q    Type
REMARK                         _______ _______ _______ _____ _____    ______ ____
ROOT
ATOM      6  C   UNL     1      50.159  17.469  17.250  0.00  0.00    -0.007 C 
ATOM      7  C   UNL     1      48.895  17.199  18.072  0.00  0.00    +0.101 C 
ATOM      8  C   UNL     1      48.398  18.488  18.675  0.00  0.00    -0.144 A 
ATOM      9  C   UNL     1      47.092  18.549  19.133  0.00  0.00    +0.060 A 
ATOM     10  C   UNL     1      46.603  19.712  19.694  0.00  0.00    -0.122 A 
ATOM     24  C   UNL     1      47.419  20.823  19.801  0.00  0.00    +0.074 A 
ATOM     25  C   UNL     1      48.719  20.769  19.346  0.00  0.00    -0.013 A 
ATOM     26  C   UNL     1      49.215  19.599  18.779  0.00  0.00    +0.144 A 
ATOM     27  O   UNL     1      50.498  19.588  18.332  0.00  0.00    -0.334 OA
ATOM     28  C   UNL     1      51.113  18.321  18.097  0.00  0.00    +0.381 C 
ENDROOT
BRANCH  10  11
ATOM     11  C   UNL     1      45.181  19.770  20.188  0.00  0.00    +0.240 C 
ATOM     12  C   UNL     1      44.681  18.347  20.481  0.00  0.00    +0.038 C 
ATOM     13  C   UNL     1      43.239  18.464  20.941  0.00  0.00    +0.402 C 
ATOM     14  C   UNL     1      42.399  19.441  20.231  0.00  0.00    -0.265 A 
ATOM     15  C   UNL     1      41.011  19.448  20.404  0.00  0.00    +0.135 A 
ATOM     16  C   UNL     1      40.250  20.368  19.741  0.00  0.00    -0.051 A 
ATOM     17  C   UNL     1      40.851  21.297  18.894  0.00  0.00    +0.181 A 
ATOM     20  C   UNL     1      42.226  21.300  18.713  0.00  0.00    -0.045 A 
ATOM     21  C   UNL     1      43.012  20.372  19.375  0.00  0.00    +0.201 A 
ATOM     22  O   UNL     1      42.802  17.786  21.848  0.00  0.00    -0.442 OA
ATOM     23  O   UNL     1      44.353  20.366  19.189  0.00  0.00    -0.300 OA
BRANCH  17  18
ATOM     18  O   UNL     1      40.083  22.207  18.244  0.00  0.00    -0.494 OA
ATOM     19  H   UNL     1      39.692  22.876  18.822  0.00  0.00    +0.401 HD
ENDBRANCH  17  18
ENDBRANCH  10  11
BRANCH  28  29
ATOM     29  O   UNL     1      51.361  17.670  19.345  0.00  0.00    -0.562 OA
ATOM     30  H   UNL     1      51.621  18.269  20.057  0.00  0.00    +0.387 HD
ENDBRANCH  28  29
BRANCH   6   5
ATOM      5  C   UNL     1      50.833  16.144  16.890  0.00  0.00    +0.077 C 
BRANCH   5   4
ATOM      1  C   UNL     1      51.157  13.648  15.619  0.00  0.00    +0.075 C 
ATOM      2  C   UNL     1      50.023  13.861  16.588  0.00  0.00    -0.122 C 
ATOM      3  C   UNL     1      49.020  12.762  16.829  0.00  0.00    +0.073 C 
ATOM      4  C   UNL     1      49.907  15.003  17.221  0.00  0.00    -0.071 C 
ENDBRANCH   5   4
ENDBRANCH   6   5
TORSDOF 5
ENDMDL
MODEL 5
REMARK VINA RESULT:      -6.8      1.864      8.516
REMARK  Name = ZINC95486081
REMARK  7 active torsions:
REMARK  status: ('A' for Active; 'I' for Inactive)
REMARK    1  A    between atoms: C1_1  and  C2_2
REMARK    2  A    between atoms: C2_2  and  C23_31
REMARK    3  A    between atoms: C3_3  and  C4_4
REMARK    4  A    between atoms: C4_4  and  C5_5
REMARK    5  A    between atoms: C9_10  and  C14_18
REMARK    6  A    between atoms: C13_15  and  O2_17
REMARK    7  A    between atoms: C20_26  and  O5_30
REMARK                            x       y       z     vdW  Elec       q    Type
REMARK                         _______ _______ _______ _____ _____    ______ ____
ROOT
ATOM      6  C   UNL     1      42.608  18.697  20.221  0.00  0.00    -0.007 C 
ATOM      7  C   UNL     1      43.901  19.485  19.992  0.00  0.00    +0.101 C 
ATOM      8  C   UNL     1      45.043  18.803  20.701  0.00  0.00    -0.144 A 
ATOM      9  C   UNL     1      46.340  19.118  20.331  0.00  0.00    +0.060 A 
ATOM     10  C   UNL     1      47.411  18.516  20.962  0.00  0.00    -0.122 A 
ATOM     24  C   UNL     1      47.190  17.594  21.969  0.00  0.00    +0.074 A 
ATOM     25  C   UNL     1      45.901  17.275  22.341  0.00  0.00    -0.013 A 
ATOM     26  C   UNL     1      44.820  17.879  21.707  0.00  0.00    +0.144 A 
ATOM     27  O   UNL     1      43.565  17.532  22.093  0.00  0.00    -0.334 OA
ATOM     28  C   UNL     1      42.487  18.393  21.720  0.00  0.00    +0.381 C 
ENDROOT
BRANCH  10  11
ATOM     11  C   UNL     1      48.819  18.862  20.553  0.00  0.00    +0.240 C 
ATOM     12  C   UNL     1      49.093  20.342  20.861  0.00  0.00    +0.038 C 
ATOM     13  C   UNL     1      50.508  20.642  20.399  0.00  0.00    +0.402 C 
ATOM     14  C   UNL     1      50.928  20.033  19.128  0.00  0.00    -0.265 A 
ATOM     15  C   UNL     1      52.105  20.443  18.494  0.00  0.00    +0.135 A 
ATOM     16  C   UNL     1      52.481  19.860  17.318  0.00  0.00    -0.051 A 
ATOM     17  C   UNL     1      51.695  18.860  16.747  0.00  0.00    +0.181 A 
ATOM     20  C   UNL     1      50.525  18.445  17.364  0.00  0.00    -0.045 A 
ATOM     21  C   UNL     1      50.127  19.029  18.556  0.00  0.00    +0.201 A 
ATOM     22  O   UNL     1      51.253  21.348  21.045  0.00  0.00    -0.442 OA
ATOM     23  O   UNL     1      48.978  18.634  19.153  0.00  0.00    -0.300 OA
BRANCH  17  18
ATOM     18  O   UNL     1      52.082  18.287  15.580  0.00  0.00    -0.494 OA
ATOM     19  H   UNL     1      51.353  18.103  14.972  0.00  0.00    +0.401 HD
ENDBRANCH  17  18
ENDBRANCH  10  11
BRANCH  28  29
ATOM     29  O   UNL     1      42.566  19.609  22.466  0.00  0.00    -0.562 OA
ATOM     30  H   UNL     1      42.025  20.326  22.109  0.00  0.00    +0.387 HD
ENDBRANCH  28  29
BRANCH   6   5
ATOM      5  C   UNL     1      41.409  19.530  19.766  0.00  0.00    +0.077 C 
BRANCH   5   4
ATOM      1  C   UNL     1      39.581  21.363  18.650  0.00  0.00    +0.075 C 
ATOM      2  C   UNL     1      41.042  21.719  18.750  0.00  0.00    -0.122 C 
ATOM      3  C   UNL     1      41.540  23.028  18.193  0.00  0.00    +0.073 C 
ATOM      4  C   UNL     1      41.880  20.889  19.321  0.00  0.00    -0.071 C 
ENDBRANCH   5   4
ENDBRANCH   6   5
TORSDOF 5
ENDMDL
MODEL 6
REMARK VINA RESULT:      -6.7      4.892      9.184
REMARK  Name = ZINC95486081
REMARK  7 active torsions:
REMARK  status: ('A' for Active; 'I' for Inactive)
REMARK    1  A    between atoms: C1_1  and  C2_2
REMARK    2  A    between atoms: C2_2  and  C23_31
REMARK    3  A    between atoms: C3_3  and  C4_4
REMARK    4  A    between atoms: C4_4  and  C5_5
REMARK    5  A    between atoms: C9_10  and  C14_18
REMARK    6  A    between atoms: C13_15  and  O2_17
REMARK    7  A    between atoms: C20_26  and  O5_30
REMARK                            x       y       z     vdW  Elec       q    Type
REMARK                         _______ _______ _______ _____ _____    ______ ____
ROOT
ATOM      6  C   UNL     1      42.869  18.663  20.594  0.00  0.00    -0.007 C 
ATOM      7  C   UNL     1      44.063  18.092  19.823  0.00  0.00    +0.101 C 
ATOM      8  C   UNL     1      44.508  16.801  20.462  0.00  0.00    -0.144 A 
ATOM      9  C   UNL     1      45.306  15.937  19.731  0.00  0.00    +0.060 A 
ATOM     10  C   UNL     1      45.737  14.748  20.285  0.00  0.00    -0.122 A 
ATOM     24  C   UNL     1      45.371  14.416  21.577  0.00  0.00    +0.074 A 
ATOM     25  C   UNL     1      44.576  15.271  22.309  0.00  0.00    -0.013 A 
ATOM     26  C   UNL     1      44.140  16.470  21.753  0.00  0.00    +0.144 A 
ATOM     27  O   UNL     1      43.348  17.282  22.502  0.00  0.00    -0.334 OA
ATOM     28  C   UNL     1      43.207  18.643  22.091  0.00  0.00    +0.381 C 
ENDROOT
BRANCH  10  11
ATOM     11  C   UNL     1      46.604  13.812  19.483  0.00  0.00    +0.240 C 
ATOM     12  C   UNL     1      47.891  14.539  19.063  0.00  0.00    +0.038 C 
ATOM     13  C   UNL     1      48.706  13.564  18.233  0.00  0.00    +0.402 C 
ATOM     14  C   UNL     1      47.959  12.720  17.288  0.00  0.00    -0.265 A 
ATOM     15  C   UNL     1      48.629  11.978  16.309  0.00  0.00    +0.135 A 
ATOM     16  C   UNL     1      47.917  11.195  15.446  0.00  0.00    -0.051 A 
ATOM     17  C   UNL     1      46.528  11.134  15.536  0.00  0.00    +0.181 A 
ATOM     20  C   UNL     1      45.851  11.865  16.501  0.00  0.00    -0.045 A 
ATOM     21  C   UNL     1      46.557  12.667  17.382  0.00  0.00    +0.201 A 
ATOM     22  O   UNL     1      49.912  13.484  18.343  0.00  0.00    -0.442 OA
ATOM     23  O   UNL     1      45.897  13.391  18.316  0.00  0.00    -0.300 OA
BRANCH  17  18
ATOM     18  O   UNL     1      45.833  10.350  14.674  0.00  0.00    -0.494 OA
ATOM     19  H   UNL     1      45.075  10.789  14.266  0.00  0.00    +0.401 HD
ENDBRANCH  17  18
ENDBRANCH  10  11
BRANCH  28  29
ATOM     29  O   UNL     1      44.433  19.341  22.317  0.00  0.00    -0.562 OA
ATOM     30  H   UNL     1      45.223  18.839  22.075  0.00  0.00    +0.387 HD
ENDBRANCH  28  29
BRANCH   6   5
ATOM      5  C   UNL     1      42.605  20.101  20.145  0.00  0.00    +0.077 C 
BRANCH   5   4
ATOM      1  C   UNL     1      41.839  22.430  18.754  0.00  0.00    +0.075 C 
ATOM      2  C   UNL     1      40.865  21.292  18.916  0.00  0.00    -0.122 C 
ATOM      3  C   UNL     1      39.457  21.423  18.393  0.00  0.00    +0.073 C 
ATOM      4  C   UNL     1      41.241  20.188  19.513  0.00  0.00    -0.071 C 
ENDBRANCH   5   4
ENDBRANCH   6   5
TORSDOF 5
ENDMDL
MODEL 7
REMARK VINA RESULT:      -6.7      3.277      8.189
REMARK  Name = ZINC95486081
REMARK  7 active torsions:
REMARK  status: ('A' for Active; 'I' for Inactive)
REMARK    1  A    between atoms: C1_1  and  C2_2
REMARK    2  A    between atoms: C2_2  and  C23_31
REMARK    3  A    between atoms: C3_3  and  C4_4
REMARK    4  A    between atoms: C4_4  and  C5_5
REMARK    5  A    between atoms: C9_10  and  C14_18
REMARK    6  A    between atoms: C13_15  and  O2_17
REMARK    7  A    between atoms: C20_26  and  O5_30
REMARK                            x       y       z     vdW  Elec       q    Type
REMARK                         _______ _______ _______ _____ _____    ______ ____
ROOT
ATOM      6  C   UNL     1      44.009  21.097  19.895  0.00  0.00    -0.007 C 
ATOM      7  C   UNL     1      44.573  19.995  18.994  0.00  0.00    +0.101 C 
ATOM      8  C   UNL     1      46.039  19.801  19.290  0.00  0.00    -0.144 A 
ATOM      9  C   UNL     1      46.653  18.631  18.876  0.00  0.00    +0.060 A 
ATOM     10  C   UNL     1      47.994  18.420  19.125  0.00  0.00    -0.122 A 
ATOM     24  C   UNL     1      48.732  19.382  19.791  0.00  0.00    +0.074 A 
ATOM     25  C   UNL     1      48.126  20.549  20.207  0.00  0.00    -0.013 A 
ATOM     26  C   UNL     1      46.774  20.764  19.958  0.00  0.00    +0.144 A 
ATOM     27  O   UNL     1      46.211  21.921  20.392  0.00  0.00    -0.334 OA
ATOM     28  C   UNL     1      44.954  22.304  19.832  0.00  0.00    +0.381 C 
ENDROOT
BRANCH  10  11
ATOM     11  C   UNL     1      48.654  17.143  18.673  0.00  0.00    +0.240 C 
ATOM     12  C   UNL     1      49.991  17.471  17.990  0.00  0.00    +0.038 C 
ATOM     13  C   UNL     1      50.592  16.156  17.528  0.00  0.00    +0.402 C 
ATOM     14  C   UNL     1      49.661  15.171  16.957  0.00  0.00    -0.265 A 
ATOM     15  C   UNL     1      50.139  14.046  16.278  0.00  0.00    +0.135 A 
ATOM     16  C   UNL     1      49.257  13.140  15.762  0.00  0.00    -0.051 A 
ATOM     17  C   UNL     1      47.885  13.333  15.908  0.00  0.00    +0.181 A 
ATOM     20  C   UNL     1      47.397  14.446  16.577  0.00  0.00    -0.045 A 
ATOM     21  C   UNL     1      48.278  15.376  17.104  0.00  0.00    +0.201 A 
ATOM     22  O   UNL     1      51.781  15.929  17.624  0.00  0.00    -0.442 OA
ATOM     23  O   UNL     1      47.803  16.469  17.747  0.00  0.00    -0.300 OA
BRANCH  17  18
ATOM     18  O   UNL     1      47.020  12.424  15.393  0.00  0.00    -0.494 OA
ATOM     19  H   UNL     1      46.827  11.685  15.985  0.00  0.00    +0.401 HD
ENDBRANCH  17  18
ENDBRANCH  10  11
BRANCH  28  29
ATOM     29  O   UNL     1      45.137  22.703  18.472  0.00  0.00    -0.562 OA
ATOM     30  H   UNL     1      45.879  23.307  18.335  0.00  0.00    +0.387 HD
ENDBRANCH  28  29
BRANCH   6   5
ATOM      5  C   UNL     1      42.619  21.505  19.401  0.00  0.00    +0.077 C 
BRANCH   5   4
ATOM      1  C   UNL     1      39.888  21.541  18.703  0.00  0.00    +0.075 C 
ATOM      2  C   UNL     1      40.761  20.388  18.280  0.00  0.00    -0.122 C 
ATOM      3  C   UNL     1      40.162  19.220  17.540  0.00  0.00    +0.073 C 
ATOM      4  C   UNL     1      42.042  20.401  18.555  0.00  0.00    -0.071 C 
ENDBRANCH   5   4
ENDBRANCH   6   5
TORSDOF 5
ENDMDL
MODEL 8
REMARK VINA RESULT:      -6.5      4.757      9.085
REMARK  Name = ZINC95486081
REMARK  7 active torsions:
REMARK  status: ('A' for Active; 'I' for Inactive)
REMARK    1  A    between atoms: C1_1  and  C2_2
REMARK    2  A    between atoms: C2_2  and  C23_31
REMARK    3  A    between atoms: C3_3  and  C4_4
REMARK    4  A    between atoms: C4_4  and  C5_5
REMARK    5  A    between atoms: C9_10  and  C14_18
REMARK    6  A    between atoms: C13_15  and  O2_17
REMARK    7  A    between atoms: C20_26  and  O5_30
REMARK                            x       y       z     vdW  Elec       q    Type
REMARK                         _______ _______ _______ _____ _____    ______ ____
ROOT
ATOM      6  C   UNL     1      42.882  18.602  20.586  0.00  0.00    -0.007 C 
ATOM      7  C   UNL     1      44.156  18.177  19.850  0.00  0.00    +0.101 C 
ATOM      8  C   UNL     1      44.663  16.879  20.425  0.00  0.00    -0.144 A 
ATOM      9  C   UNL     1      45.564  16.130  19.686  0.00  0.00    +0.060 A 
ATOM     10  C   UNL     1      46.053  14.938  20.183  0.00  0.00    -0.122 A 
ATOM     24  C   UNL     1      45.644  14.488  21.424  0.00  0.00    +0.074 A 
ATOM     25  C   UNL     1      44.746  15.228  22.164  0.00  0.00    -0.013 A 
ATOM     26  C   UNL     1      44.250  16.429  21.666  0.00  0.00    +0.144 A 
ATOM     27  O   UNL     1      43.360  17.125  22.420  0.00  0.00    -0.334 OA
ATOM     28  C   UNL     1      43.137  18.498  22.095  0.00  0.00    +0.381 C 
ENDROOT
BRANCH  10  11
ATOM     11  C   UNL     1      47.032  14.129  19.372  0.00  0.00    +0.240 C 
ATOM     12  C   UNL     1      48.456  14.648  19.620  0.00  0.00    +0.038 C 
ATOM     13  C   UNL     1      49.392  13.821  18.756  0.00  0.00    +0.402 C 
ATOM     14  C   UNL     1      48.920  13.495  17.402  0.00  0.00    -0.265 A 
ATOM     15  C   UNL     1      49.795  12.962  16.450  0.00  0.00    +0.135 A 
ATOM     16  C   UNL     1      49.335  12.659  15.200  0.00  0.00    -0.051 A 
ATOM     17  C   UNL     1      47.999  12.880  14.871  0.00  0.00    +0.181 A 
ATOM     20  C   UNL     1      47.121  13.409  15.805  0.00  0.00    -0.045 A 
ATOM     21  C   UNL     1      47.572  13.725  17.076  0.00  0.00    +0.201 A 
ATOM     22  O   UNL     1      50.473  13.449  19.162  0.00  0.00    -0.442 OA
ATOM     23  O   UNL     1      46.719  14.253  17.984  0.00  0.00    -0.300 OA
BRANCH  17  18
ATOM     18  O   UNL     1      47.555  12.572  13.627  0.00  0.00    -0.494 OA
ATOM     19  H   UNL     1      47.348  11.636  13.503  0.00  0.00    +0.401 HD
ENDBRANCH  17  18
ENDBRANCH  10  11
BRANCH  28  29
ATOM     29  O   UNL     1      44.292  19.265  22.442  0.00  0.00    -0.562 OA
ATOM     30  H   UNL     1      44.598  19.855  21.740  0.00  0.00    +0.387 HD
ENDBRANCH  28  29
BRANCH   6   5
ATOM      5  C   UNL     1      42.534  20.047  20.221  0.00  0.00    +0.077 C 
BRANCH   5   4
ATOM      1  C   UNL     1      41.728  22.337  18.787  0.00  0.00    +0.075 C 
ATOM      2  C   UNL     1      40.784  21.173  18.943  0.00  0.00    -0.122 C 
ATOM      3  C   UNL     1      39.385  21.256  18.391  0.00  0.00    +0.073 C 
ATOM      4  C   UNL     1      41.181  20.086  19.560  0.00  0.00    -0.071 C 
ENDBRANCH   5   4
ENDBRANCH   6   5
TORSDOF 5
ENDMDL
MODEL 9
REMARK VINA RESULT:      -6.4      4.752      8.893
REMARK  Name = ZINC95486081
REMARK  7 active torsions:
REMARK  status: ('A' for Active; 'I' for Inactive)
REMARK    1  A    between atoms: C1_1  and  C2_2
REMARK    2  A    between atoms: C2_2  and  C23_31
REMARK    3  A    between atoms: C3_3  and  C4_4
REMARK    4  A    between atoms: C4_4  and  C5_5
REMARK    5  A    between atoms: C9_10  and  C14_18
REMARK    6  A    between atoms: C13_15  and  O2_17
REMARK    7  A    between atoms: C20_26  and  O5_30
REMARK                            x       y       z     vdW  Elec       q    Type
REMARK                         _______ _______ _______ _____ _____    ______ ____
ROOT
ATOM      6  C   UNL     1      45.037  19.681  20.245  0.00  0.00    -0.007 C 
ATOM      7  C   UNL     1      44.726  18.620  19.184  0.00  0.00    +0.101 C 
ATOM      8  C   UNL     1      46.014  18.062  18.634  0.00  0.00    -0.144 A 
ATOM      9  C   UNL     1      45.980  16.855  17.955  0.00  0.00    +0.060 A 
ATOM     10  C   UNL     1      47.139  16.316  17.434  0.00  0.00    -0.122 A 
ATOM     24  C   UNL     1      48.341  16.982  17.587  0.00  0.00    +0.074 A 
ATOM     25  C   UNL     1      48.381  18.183  18.263  0.00  0.00    -0.013 A 
ATOM     26  C   UNL     1      47.215  18.729  18.791  0.00  0.00    +0.144 A 
ATOM     27  O   UNL     1      47.297  19.909  19.460  0.00  0.00    -0.334 OA
ATOM     28  C   UNL     1      46.089  20.641  19.674  0.00  0.00    +0.381 C 
ENDROOT
BRANCH  10  11
ATOM     11  C   UNL     1      47.094  15.001  16.698  0.00  0.00    +0.240 C 
ATOM     12  C   UNL     1      46.379  13.954  17.564  0.00  0.00    +0.038 C 
ATOM     13  C   UNL     1      46.393  12.647  16.791  0.00  0.00    +0.402 C 
ATOM     14  C   UNL     1      47.631  12.325  16.065  0.00  0.00    -0.265 A 
ATOM     15  C   UNL     1      47.838  11.047  15.537  0.00  0.00    +0.135 A 
ATOM     16  C   UNL     1      48.992  10.771  14.861  0.00  0.00    -0.051 A 
ATOM     17  C   UNL     1      49.962  11.757  14.696  0.00  0.00    +0.181 A 
ATOM     20  C   UNL     1      49.771  13.029  15.216  0.00  0.00    -0.045 A 
ATOM     21  C   UNL     1      48.607  13.325  15.908  0.00  0.00    +0.201 A 
ATOM     22  O   UNL     1      45.432  11.906  16.773  0.00  0.00    -0.442 OA
ATOM     23  O   UNL     1      48.425  14.561  16.427  0.00  0.00    -0.300 OA
BRANCH  17  18
ATOM     18  O   UNL     1      51.102  11.471  14.019  0.00  0.00    -0.494 OA
ATOM     19  H   UNL     1      51.630  12.248  13.791  0.00  0.00    +0.401 HD
ENDBRANCH  17  18
ENDBRANCH  10  11
BRANCH  28  29
ATOM     29  O   UNL     1      45.627  21.178  18.433  0.00  0.00    -0.562 OA
ATOM     30  H   UNL     1      44.837  21.730  18.513  0.00  0.00    +0.387 HD
ENDBRANCH  28  29
BRANCH   6   5
ATOM      5  C   UNL     1      43.764  20.456  20.588  0.00  0.00    +0.077 C 
BRANCH   5   4
ATOM      1  C   UNL     1      42.256  22.302  19.080  0.00  0.00    +0.075 C 
ATOM      2  C   UNL     1      41.896  20.839  19.063  0.00  0.00    -0.122 C 
ATOM      3  C   UNL     1      40.689  20.368  18.293  0.00  0.00    +0.073 C 
ATOM      4  C   UNL     1      42.632  19.974  19.718  0.00  0.00    -0.071 C 
ENDBRANCH   5   4
ENDBRANCH   6   5
TORSDOF 5
ENDMDL
