MODEL 1
REMARK VINA RESULT:      -5.9      0.000      0.000
REMARK  Name = ZINC00035526
REMARK  12 active torsions:
REMARK  status: ('A' for Active; 'I' for Inactive)
REMARK    1  A    between atoms: C1_1  and  C2_2
REMARK    2  A    between atoms: C2_2  and  C3_3
REMARK    3  A    between atoms: C2_2  and  C4_4
REMARK    4  A    between atoms: C2_2  and  O6_26
REMARK    5  A    between atoms: C4_4  and  C5_6
REMARK    6  A    between atoms: C4_4  and  O5_25
REMARK    7  A    between atoms: C5_6  and  O1_7
REMARK    8  A    between atoms: O1_7  and  C6_8
REMARK    9  A    between atoms: C11_13  and  O2_14
REMARK   10  A    between atoms: O2_14  and  C12_15
REMARK   11  A    between atoms: C15_19  and  O3_20
REMARK   12  A    between atoms: O3_20  and  C16_21
REMARK                            x       y       z     vdW  Elec       q    Type
REMARK                         _______ _______ _______ _____ _____    ______ ____
ROOT
ATOM     10  C   UNL     1      47.407  19.291  18.830  0.00  0.00    +0.224 A 
ATOM     11  C   UNL     1      47.598  20.533  19.443  0.00  0.00    -0.018 A 
ATOM     12  C   UNL     1      46.549  21.372  19.658  0.00  0.00    +0.173 A 
ATOM     13  C   UNL     1      45.255  20.993  19.261  0.00  0.00    -0.158 A 
ATOM     14  C   UNL     1      45.046  19.736  18.638  0.00  0.00    +0.227 A 
ATOM     15  N   UNL     1      43.821  19.363  18.255  0.00  0.00    -0.468 N 
ATOM     16  H   UNL     1      43.704  18.499  17.831  0.00  0.00    +0.449 HD
ATOM     17  C   UNL     1      42.767  20.136  18.438  0.00  0.00    +0.352 A 
ATOM     18  C   UNL     1      42.901  21.400  19.053  0.00  0.00    -0.209 A 
ATOM     19  C   UNL     1      41.547  21.967  19.090  0.00  0.00    +0.041 A 
ATOM     20  C   UNL     1      40.746  21.055  18.527  0.00  0.00    +0.281 A 
ATOM     21  O   UNL     1      41.459  19.979  18.143  0.00  0.00    -0.167 OA
ATOM     22  C   UNL     1      44.152  21.844  19.474  0.00  0.00    +0.347 A 
ATOM     25  C   UNL     1      46.152  18.890  18.423  0.00  0.00    +0.009 A 
ENDROOT
BRANCH  22  23
ATOM     23  O   UNL     1      44.302  23.054  20.066  0.00  0.00    -0.318 OA
ATOM     24  C   UNL     1      44.444  24.185  19.204  0.00  0.00    +0.297 C 
ENDBRANCH  22  23
BRANCH  25  26
ATOM     26  O   UNL     1      45.982  17.681  17.823  0.00  0.00    -0.306 OA
ATOM     27  C   UNL     1      45.812  16.549  18.680  0.00  0.00    +0.243 C 
ENDBRANCH  25  26
BRANCH  10   9
ATOM      9  O   UNL     1      48.473  18.472  18.628  0.00  0.00    -0.267 OA
BRANCH   9   8
ATOM      8  C   UNL     1      49.768  19.011  18.905  0.00  0.00    +0.193 C 
BRANCH   8   5
ATOM      5  C   UNL     1      50.764  18.508  17.858  0.00  0.00    +0.250 C 
BRANCH   5   2
ATOM      1  C   UNL     1      51.875  19.565  15.886  0.00  0.00    +0.036 C 
ATOM      2  C   UNL     1      51.647  19.668  17.395  0.00  0.00    +0.101 C 
ATOM     28  C   UNL     1      50.955  20.995  17.717  0.00  0.00    +0.017 C 
BRANCH   2   3
ATOM      3  O   UNL     1      52.904  19.609  18.072  0.00  0.00    -0.560 OA
ATOM      4  H   UNL     1      52.918  19.001  18.824  0.00  0.00    +0.390 HD
ENDBRANCH   2   3
ENDBRANCH   5   2
BRANCH   5   6
ATOM      6  O   UNL     1      50.052  17.975  16.739  0.00  0.00    -0.535 OA
ATOM      7  H   UNL     1      50.168  17.022  16.618  0.00  0.00    +0.377 HD
ENDBRANCH   5   6
ENDBRANCH   8   5
ENDBRANCH   9   8
ENDBRANCH  10   9
TORSDOF 8
ENDMDL
MODEL 2
REMARK VINA RESULT:      -5.9      3.688      6.874
REMARK  Name = ZINC00035526
REMARK  12 active torsions:
REMARK  status: ('A' for Active; 'I' for Inactive)
REMARK    1  A    between atoms: C1_1  and  C2_2
REMARK    2  A    between atoms: C2_2  and  C3_3
REMARK    3  A    between atoms: C2_2  and  C4_4
REMARK    4  A    between atoms: C2_2  and  O6_26
REMARK    5  A    between atoms: C4_4  and  C5_6
REMARK    6  A    between atoms: C4_4  and  O5_25
REMARK    7  A    between atoms: C5_6  and  O1_7
REMARK    8  A    between atoms: O1_7  and  C6_8
REMARK    9  A    between atoms: C11_13  and  O2_14
REMARK   10  A    between atoms: O2_14  and  C12_15
REMARK   11  A    between atoms: C15_19  and  O3_20
REMARK   12  A    between atoms: O3_20  and  C16_21
REMARK                            x       y       z     vdW  Elec       q    Type
REMARK                         _______ _______ _______ _____ _____    ______ ____
ROOT
ATOM     10  C   UNL     1      44.544  19.478  19.199  0.00  0.00    +0.224 A 
ATOM     11  C   UNL     1      45.366  18.958  18.195  0.00  0.00    -0.018 A 
ATOM     12  C   UNL     1      45.832  17.682  18.267  0.00  0.00    +0.173 A 
ATOM     13  C   UNL     1      45.488  16.872  19.363  0.00  0.00    -0.158 A 
ATOM     14  C   UNL     1      44.656  17.385  20.389  0.00  0.00    +0.227 A 
ATOM     15  N   UNL     1      44.321  16.625  21.437  0.00  0.00    -0.468 N 
ATOM     16  H   UNL     1      43.751  16.999  22.126  0.00  0.00    +0.449 HD
ATOM     17  C   UNL     1      44.744  15.381  21.559  0.00  0.00    +0.352 A 
ATOM     18  C   UNL     1      45.575  14.804  20.575  0.00  0.00    -0.209 A 
ATOM     19  C   UNL     1      45.841  13.435  21.034  0.00  0.00    +0.041 A 
ATOM     20  C   UNL     1      45.188  13.299  22.195  0.00  0.00    +0.281 A 
ATOM     21  O   UNL     1      44.543  14.439  22.505  0.00  0.00    -0.167 OA
ATOM     22  C   UNL     1      45.958  15.546  19.460  0.00  0.00    +0.347 A 
ATOM     25  C   UNL     1      44.192  18.712  20.291  0.00  0.00    +0.009 A 
ENDROOT
BRANCH  22  23
ATOM     23  O   UNL     1      46.755  15.011  18.503  0.00  0.00    -0.318 OA
ATOM     24  C   UNL     1      48.147  14.902  18.806  0.00  0.00    +0.297 C 
ENDBRANCH  22  23
BRANCH  25  26
ATOM     26  O   UNL     1      43.396  19.233  21.263  0.00  0.00    -0.306 OA
ATOM     27  C   UNL     1      41.986  19.059  21.109  0.00  0.00    +0.243 C 
ENDBRANCH  25  26
BRANCH  10   9
ATOM      9  O   UNL     1      44.092  20.756  19.101  0.00  0.00    -0.267 OA
BRANCH   9   8
ATOM      8  C   UNL     1      45.074  21.795  19.111  0.00  0.00    +0.193 C 
BRANCH   8   5
ATOM      5  C   UNL     1      44.473  23.059  19.729  0.00  0.00    +0.250 C 
BRANCH   5   2
ATOM      1  C   UNL     1      46.175  22.247  21.368  0.00  0.00    +0.036 C 
ATOM      2  C   UNL     1      45.170  23.358  21.057  0.00  0.00    +0.101 C 
ATOM     28  C   UNL     1      45.905  24.697  20.956  0.00  0.00    +0.017 C 
BRANCH   2   3
ATOM      3  O   UNL     1      44.197  23.427  22.102  0.00  0.00    -0.560 OA
ATOM      4  H   UNL     1      43.758  22.585  22.286  0.00  0.00    +0.390 HD
ENDBRANCH   2   3
ENDBRANCH   5   2
BRANCH   5   6
ATOM      6  O   UNL     1      43.076  22.860  19.959  0.00  0.00    -0.535 OA
ATOM      7  H   UNL     1      42.870  22.485  20.828  0.00  0.00    +0.377 HD
ENDBRANCH   5   6
ENDBRANCH   8   5
ENDBRANCH   9   8
ENDBRANCH  10   9
TORSDOF 8
ENDMDL
MODEL 3
REMARK VINA RESULT:      -5.6      2.219      6.995
REMARK  Name = ZINC00035526
REMARK  12 active torsions:
REMARK  status: ('A' for Active; 'I' for Inactive)
REMARK    1  A    between atoms: C1_1  and  C2_2
REMARK    2  A    between atoms: C2_2  and  C3_3
REMARK    3  A    between atoms: C2_2  and  C4_4
REMARK    4  A    between atoms: C2_2  and  O6_26
REMARK    5  A    between atoms: C4_4  and  C5_6
REMARK    6  A    between atoms: C4_4  and  O5_25
REMARK    7  A    between atoms: C5_6  and  O1_7
REMARK    8  A    between atoms: O1_7  and  C6_8
REMARK    9  A    between atoms: C11_13  and  O2_14
REMARK   10  A    between atoms: O2_14  and  C12_15
REMARK   11  A    between atoms: C15_19  and  O3_20
REMARK   12  A    between atoms: O3_20  and  C16_21
REMARK                            x       y       z     vdW  Elec       q    Type
REMARK                         _______ _______ _______ _____ _____    ______ ____
ROOT
ATOM     10  C   UNL     1      47.300  19.419  20.898  0.00  0.00    +0.224 A 
ATOM     11  C   UNL     1      48.041  20.537  21.291  0.00  0.00    -0.018 A 
ATOM     12  C   UNL     1      49.154  20.911  20.604  0.00  0.00    +0.173 A 
ATOM     13  C   UNL     1      49.571  20.169  19.486  0.00  0.00    -0.158 A 
ATOM     14  C   UNL     1      48.829  19.032  19.076  0.00  0.00    +0.227 A 
ATOM     15  N   UNL     1      49.214  18.316  18.014  0.00  0.00    -0.468 N 
ATOM     16  H   UNL     1      48.690  17.543  17.753  0.00  0.00    +0.449 HD
ATOM     17  C   UNL     1      50.285  18.632  17.311  0.00  0.00    +0.352 A 
ATOM     18  C   UNL     1      51.071  19.752  17.662  0.00  0.00    -0.209 A 
ATOM     19  C   UNL     1      52.159  19.796  16.676  0.00  0.00    +0.041 A 
ATOM     20  C   UNL     1      51.958  18.760  15.854  0.00  0.00    +0.281 A 
ATOM     21  O   UNL     1      50.859  18.075  16.224  0.00  0.00    -0.167 OA
ATOM     22  C   UNL     1      50.721  20.536  18.758  0.00  0.00    +0.347 A 
ATOM     25  C   UNL     1      47.683  18.664  19.809  0.00  0.00    +0.009 A 
ENDROOT
BRANCH  22  23
ATOM     23  O   UNL     1      51.461  21.616  19.111  0.00  0.00    -0.318 OA
ATOM     24  C   UNL     1      52.631  21.370  19.894  0.00  0.00    +0.297 C 
ENDBRANCH  22  23
BRANCH  25  26
ATOM     26  O   UNL     1      46.955  17.576  19.441  0.00  0.00    -0.306 OA
ATOM     27  C   UNL     1      45.864  17.797  18.545  0.00  0.00    +0.243 C 
ENDBRANCH  25  26
BRANCH  10   9
ATOM      9  O   UNL     1      46.191  19.068  21.602  0.00  0.00    -0.267 OA
BRANCH   9   8
ATOM      8  C   UNL     1      45.286  20.117  21.954  0.00  0.00    +0.193 C 
BRANCH   8   5
ATOM      5  C   UNL     1      44.284  20.329  20.818  0.00  0.00    +0.250 C 
BRANCH   5   2
ATOM      1  C   UNL     1      44.942  22.662  21.422  0.00  0.00    +0.036 C 
ATOM      2  C   UNL     1      44.381  21.769  20.313  0.00  0.00    +0.101 C 
ATOM     28  C   UNL     1      45.310  21.821  19.097  0.00  0.00    +0.017 C 
BRANCH   2   3
ATOM      3  O   UNL     1      43.081  22.232  19.940  0.00  0.00    -0.560 OA
ATOM      4  H   UNL     1      43.076  22.800  19.157  0.00  0.00    +0.390 HD
ENDBRANCH   2   3
ENDBRANCH   5   2
BRANCH   5   6
ATOM      6  O   UNL     1      42.960  20.081  21.297  0.00  0.00    -0.535 OA
ATOM      7  H   UNL     1      42.930  19.593  22.132  0.00  0.00    +0.377 HD
ENDBRANCH   5   6
ENDBRANCH   8   5
ENDBRANCH   9   8
ENDBRANCH  10   9
TORSDOF 8
ENDMDL
MODEL 4
REMARK VINA RESULT:      -5.6      1.787      7.423
REMARK  Name = ZINC00035526
REMARK  12 active torsions:
REMARK  status: ('A' for Active; 'I' for Inactive)
REMARK    1  A    between atoms: C1_1  and  C2_2
REMARK    2  A    between atoms: C2_2  and  C3_3
REMARK    3  A    between atoms: C2_2  and  C4_4
REMARK    4  A    between atoms: C2_2  and  O6_26
REMARK    5  A    between atoms: C4_4  and  C5_6
REMARK    6  A    between atoms: C4_4  and  O5_25
REMARK    7  A    between atoms: C5_6  and  O1_7
REMARK    8  A    between atoms: O1_7  and  C6_8
REMARK    9  A    between atoms: C11_13  and  O2_14
REMARK   10  A    between atoms: O2_14  and  C12_15
REMARK   11  A    between atoms: C15_19  and  O3_20
REMARK   12  A    between atoms: O3_20  and  C16_21
REMARK                            x       y       z     vdW  Elec       q    Type
REMARK                         _______ _______ _______ _____ _____    ______ ____
ROOT
ATOM     10  C   UNL     1      46.304  19.739  19.207  0.00  0.00    +0.224 A 
ATOM     11  C   UNL     1      47.295  20.693  19.456  0.00  0.00    -0.018 A 
ATOM     12  C   UNL     1      48.598  20.438  19.161  0.00  0.00    +0.173 A 
ATOM     13  C   UNL     1      48.960  19.202  18.599  0.00  0.00    -0.158 A 
ATOM     14  C   UNL     1      47.966  18.224  18.340  0.00  0.00    +0.227 A 
ATOM     15  N   UNL     1      48.296  17.044  17.805  0.00  0.00    -0.468 N 
ATOM     16  H   UNL     1      47.599  16.392  17.638  0.00  0.00    +0.449 HD
ATOM     17  C   UNL     1      49.544  16.742  17.499  0.00  0.00    +0.352 A 
ATOM     18  C   UNL     1      50.585  17.668  17.729  0.00  0.00    -0.209 A 
ATOM     19  C   UNL     1      51.813  17.003  17.274  0.00  0.00    +0.041 A 
ATOM     20  C   UNL     1      51.441  15.796  16.831  0.00  0.00    +0.281 A 
ATOM     21  O   UNL     1      50.110  15.640  16.962  0.00  0.00    -0.167 OA
ATOM     22  C   UNL     1      50.304  18.913  18.283  0.00  0.00    +0.347 A 
ATOM     25  C   UNL     1      46.625  18.514  18.661  0.00  0.00    +0.009 A 
ENDROOT
BRANCH  22  23
ATOM     23  O   UNL     1      51.288  19.817  18.511  0.00  0.00    -0.318 OA
ATOM     24  C   UNL     1      51.677  20.642  17.411  0.00  0.00    +0.297 C 
ENDBRANCH  22  23
BRANCH  25  26
ATOM     26  O   UNL     1      45.651  17.593  18.428  0.00  0.00    -0.306 OA
ATOM     27  C   UNL     1      45.350  16.685  19.490  0.00  0.00    +0.243 C 
ENDBRANCH  25  26
BRANCH  10   9
ATOM      9  O   UNL     1      45.010  20.021  19.511  0.00  0.00    -0.267 OA
BRANCH   9   8
ATOM      8  C   UNL     1      44.530  21.323  19.168  0.00  0.00    +0.193 C 
BRANCH   8   5
ATOM      5  C   UNL     1      43.173  21.558  19.832  0.00  0.00    +0.250 C 
BRANCH   5   2
ATOM      1  C   UNL     1      41.466  19.735  19.908  0.00  0.00    +0.036 C 
ATOM      2  C   UNL     1      42.084  20.833  19.039  0.00  0.00    +0.101 C 
ATOM     28  C   UNL     1      40.999  21.832  18.631  0.00  0.00    +0.017 C 
BRANCH   2   3
ATOM      3  O   UNL     1      42.657  20.247  17.868  0.00  0.00    -0.560 OA
ATOM      4  H   UNL     1      42.592  19.283  17.839  0.00  0.00    +0.390 HD
ENDBRANCH   2   3
ENDBRANCH   5   2
BRANCH   5   6
ATOM      6  O   UNL     1      42.890  22.959  19.857  0.00  0.00    -0.535 OA
ATOM      7  H   UNL     1      43.660  23.519  19.682  0.00  0.00    +0.377 HD
ENDBRANCH   5   6
ENDBRANCH   8   5
ENDBRANCH   9   8
ENDBRANCH  10   9
TORSDOF 8
ENDMDL
MODEL 5
REMARK VINA RESULT:      -5.6      2.922      7.515
REMARK  Name = ZINC00035526
REMARK  12 active torsions:
REMARK  status: ('A' for Active; 'I' for Inactive)
REMARK    1  A    between atoms: C1_1  and  C2_2
REMARK    2  A    between atoms: C2_2  and  C3_3
REMARK    3  A    between atoms: C2_2  and  C4_4
REMARK    4  A    between atoms: C2_2  and  O6_26
REMARK    5  A    between atoms: C4_4  and  C5_6
REMARK    6  A    between atoms: C4_4  and  O5_25
REMARK    7  A    between atoms: C5_6  and  O1_7
REMARK    8  A    between atoms: O1_7  and  C6_8
REMARK    9  A    between atoms: C11_13  and  O2_14
REMARK   10  A    between atoms: O2_14  and  C12_15
REMARK   11  A    between atoms: C15_19  and  O3_20
REMARK   12  A    between atoms: O3_20  and  C16_21
REMARK                            x       y       z     vdW  Elec       q    Type
REMARK                         _______ _______ _______ _____ _____    ______ ____
ROOT
ATOM     10  C   UNL     1      45.010  18.478  20.503  0.00  0.00    +0.224 A 
ATOM     11  C   UNL     1      44.535  17.598  21.479  0.00  0.00    -0.018 A 
ATOM     12  C   UNL     1      44.618  16.252  21.305  0.00  0.00    +0.173 A 
ATOM     13  C   UNL     1      45.189  15.731  20.131  0.00  0.00    -0.158 A 
ATOM     14  C   UNL     1      45.676  16.611  19.131  0.00  0.00    +0.227 A 
ATOM     15  N   UNL     1      46.221  16.129  18.009  0.00  0.00    -0.468 N 
ATOM     16  H   UNL     1      46.547  16.751  17.340  0.00  0.00    +0.449 HD
ATOM     17  C   UNL     1      46.328  14.833  17.786  0.00  0.00    +0.352 A 
ATOM     18  C   UNL     1      45.865  13.899  18.739  0.00  0.00    -0.209 A 
ATOM     19  C   UNL     1      46.144  12.576  18.165  0.00  0.00    +0.041 A 
ATOM     20  C   UNL     1      46.721  12.801  16.978  0.00  0.00    +0.281 A 
ATOM     21  O   UNL     1      46.830  14.124  16.753  0.00  0.00    -0.167 OA
ATOM     22  C   UNL     1      45.288  14.339  19.927  0.00  0.00    +0.347 A 
ATOM     25  C   UNL     1      45.571  18.001  19.336  0.00  0.00    +0.009 A 
ENDROOT
BRANCH  22  23
ATOM     23  O   UNL     1      44.837  13.460  20.855  0.00  0.00    -0.318 OA
ATOM     24  C   UNL     1      45.726  13.137  21.926  0.00  0.00    +0.297 C 
ENDBRANCH  22  23
BRANCH  25  26
ATOM     26  O   UNL     1      46.025  18.868  18.392  0.00  0.00    -0.306 OA
ATOM     27  C   UNL     1      47.328  19.421  18.592  0.00  0.00    +0.243 C 
ENDBRANCH  25  26
BRANCH  10   9
ATOM      9  O   UNL     1      44.914  19.818  20.703  0.00  0.00    -0.267 OA
BRANCH   9   8
ATOM      8  C   UNL     1      43.604  20.354  20.899  0.00  0.00    +0.193 C 
BRANCH   8   5
ATOM      5  C   UNL     1      43.241  21.261  19.722  0.00  0.00    +0.250 C 
BRANCH   5   2
ATOM      1  C   UNL     1      41.387  19.590  19.833  0.00  0.00    +0.036 C 
ATOM      2  C   UNL     1      42.045  20.671  18.973  0.00  0.00    +0.101 C 
ATOM     28  C   UNL     1      41.030  21.779  18.682  0.00  0.00    +0.017 C 
BRANCH   2   3
ATOM      3  O   UNL     1      42.490  20.096  17.742  0.00  0.00    -0.560 OA
ATOM      4  H   UNL     1      43.334  19.630  17.809  0.00  0.00    +0.390 HD
ENDBRANCH   2   3
ENDBRANCH   5   2
BRANCH   5   6
ATOM      6  O   UNL     1      44.357  21.360  18.835  0.00  0.00    -0.535 OA
ATOM      7  H   UNL     1      45.143  21.760  19.234  0.00  0.00    +0.377 HD
ENDBRANCH   5   6
ENDBRANCH   8   5
ENDBRANCH   9   8
ENDBRANCH  10   9
TORSDOF 8
ENDMDL
MODEL 6
REMARK VINA RESULT:      -5.5      3.360      5.401
REMARK  Name = ZINC00035526
REMARK  12 active torsions:
REMARK  status: ('A' for Active; 'I' for Inactive)
REMARK    1  A    between atoms: C1_1  and  C2_2
REMARK    2  A    between atoms: C2_2  and  C3_3
REMARK    3  A    between atoms: C2_2  and  C4_4
REMARK    4  A    between atoms: C2_2  and  O6_26
REMARK    5  A    between atoms: C4_4  and  C5_6
REMARK    6  A    between atoms: C4_4  and  O5_25
REMARK    7  A    between atoms: C5_6  and  O1_7
REMARK    8  A    between atoms: O1_7  and  C6_8
REMARK    9  A    between atoms: C11_13  and  O2_14
REMARK   10  A    between atoms: O2_14  and  C12_15
REMARK   11  A    between atoms: C15_19  and  O3_20
REMARK   12  A    between atoms: O3_20  and  C16_21
REMARK                            x       y       z     vdW  Elec       q    Type
REMARK                         _______ _______ _______ _____ _____    ______ ____
ROOT
ATOM     10  C   UNL     1      46.186  15.210  18.759  0.00  0.00    +0.224 A 
ATOM     11  C   UNL     1      45.391  15.036  19.895  0.00  0.00    -0.018 A 
ATOM     12  C   UNL     1      44.807  16.101  20.507  0.00  0.00    +0.173 A 
ATOM     13  C   UNL     1      45.003  17.396  19.998  0.00  0.00    -0.158 A 
ATOM     14  C   UNL     1      45.807  17.589  18.846  0.00  0.00    +0.227 A 
ATOM     15  N   UNL     1      46.001  18.815  18.350  0.00  0.00    -0.468 N 
ATOM     16  H   UNL     1      46.556  18.921  17.561  0.00  0.00    +0.449 HD
ATOM     17  C   UNL     1      45.461  19.885  18.903  0.00  0.00    +0.352 A 
ATOM     18  C   UNL     1      44.648  19.767  20.052  0.00  0.00    -0.209 A 
ATOM     19  C   UNL     1      44.228  21.136  20.380  0.00  0.00    +0.041 A 
ATOM     20  C   UNL     1      44.788  21.928  19.458  0.00  0.00    +0.281 A 
ATOM     21  O   UNL     1      45.512  21.197  18.590  0.00  0.00    -0.167 OA
ATOM     22  C   UNL     1      44.409  18.516  20.614  0.00  0.00    +0.347 A 
ATOM     25  C   UNL     1      46.403  16.467  18.235  0.00  0.00    +0.009 A 
ENDROOT
BRANCH  22  23
ATOM     23  O   UNL     1      43.631  18.381  21.716  0.00  0.00    -0.318 OA
ATOM     24  C   UNL     1      42.217  18.460  21.525  0.00  0.00    +0.297 C 
ENDBRANCH  22  23
BRANCH  25  26
ATOM     26  O   UNL     1      47.184  16.623  17.132  0.00  0.00    -0.306 OA
ATOM     27  C   UNL     1      48.573  16.877  17.350  0.00  0.00    +0.243 C 
ENDBRANCH  25  26
BRANCH  10   9
ATOM      9  O   UNL     1      46.756  14.128  18.166  0.00  0.00    -0.267 OA
BRANCH   9   8
ATOM      8  C   UNL     1      45.911  13.313  17.351  0.00  0.00    +0.193 C 
BRANCH   8   5
ATOM      5  C   UNL     1      46.771  12.366  16.512  0.00  0.00    +0.250 C 
BRANCH   5   2
ATOM      1  C   UNL     1      49.016  13.379  16.095  0.00  0.00    +0.036 C 
ATOM      2  C   UNL     1      47.611  13.178  15.525  0.00  0.00    +0.101 C 
ATOM     28  C   UNL     1      47.702  12.427  14.195  0.00  0.00    +0.017 C 
BRANCH   2   3
ATOM      3  O   UNL     1      46.997  14.451  15.312  0.00  0.00    -0.560 OA
ATOM      4  H   UNL     1      46.686  14.878  16.122  0.00  0.00    +0.390 HD
ENDBRANCH   2   3
ENDBRANCH   5   2
BRANCH   5   6
ATOM      6  O   UNL     1      45.926  11.467  15.791  0.00  0.00    -0.535 OA
ATOM      7  H   UNL     1      45.521  11.855  15.002  0.00  0.00    +0.377 HD
ENDBRANCH   5   6
ENDBRANCH   8   5
ENDBRANCH   9   8
ENDBRANCH  10   9
TORSDOF 8
ENDMDL
MODEL 7
REMARK VINA RESULT:      -5.4      3.951      5.858
REMARK  Name = ZINC00035526
REMARK  12 active torsions:
REMARK  status: ('A' for Active; 'I' for Inactive)
REMARK    1  A    between atoms: C1_1  and  C2_2
REMARK    2  A    between atoms: C2_2  and  C3_3
REMARK    3  A    between atoms: C2_2  and  C4_4
REMARK    4  A    between atoms: C2_2  and  O6_26
REMARK    5  A    between atoms: C4_4  and  C5_6
REMARK    6  A    between atoms: C4_4  and  O5_25
REMARK    7  A    between atoms: C5_6  and  O1_7
REMARK    8  A    between atoms: O1_7  and  C6_8
REMARK    9  A    between atoms: C11_13  and  O2_14
REMARK   10  A    between atoms: O2_14  and  C12_15
REMARK   11  A    between atoms: C15_19  and  O3_20
REMARK   12  A    between atoms: O3_20  and  C16_21
REMARK                            x       y       z     vdW  Elec       q    Type
REMARK                         _______ _______ _______ _____ _____    ______ ____
ROOT
ATOM     10  C   UNL     1      47.111  15.459  17.666  0.00  0.00    +0.224 A 
ATOM     11  C   UNL     1      47.225  16.691  17.015  0.00  0.00    -0.018 A 
ATOM     12  C   UNL     1      46.520  17.773  17.441  0.00  0.00    +0.173 A 
ATOM     13  C   UNL     1      45.664  17.659  18.549  0.00  0.00    -0.158 A 
ATOM     14  C   UNL     1      45.537  16.416  19.221  0.00  0.00    +0.227 A 
ATOM     15  N   UNL     1      44.726  16.293  20.276  0.00  0.00    -0.468 N 
ATOM     16  H   UNL     1      44.657  15.433  20.719  0.00  0.00    +0.449 HD
ATOM     17  C   UNL     1      44.018  17.309  20.734  0.00  0.00    +0.352 A 
ATOM     18  C   UNL     1      44.095  18.576  20.115  0.00  0.00    -0.209 A 
ATOM     19  C   UNL     1      43.191  19.445  20.879  0.00  0.00    +0.041 A 
ATOM     20  C   UNL     1      42.667  18.680  21.844  0.00  0.00    +0.281 A 
ATOM     21  O   UNL     1      43.151  17.426  21.761  0.00  0.00    -0.167 OA
ATOM     22  C   UNL     1      44.923  18.766  19.012  0.00  0.00    +0.347 A 
ATOM     25  C   UNL     1      46.276  15.310  18.753  0.00  0.00    +0.009 A 
ENDROOT
BRANCH  22  23
ATOM     23  O   UNL     1      45.012  19.974  18.403  0.00  0.00    -0.318 OA
ATOM     24  C   UNL     1      45.913  20.923  18.976  0.00  0.00    +0.297 C 
ENDBRANCH  22  23
BRANCH  25  26
ATOM     26  O   UNL     1      46.170  14.105  19.375  0.00  0.00    -0.306 OA
ATOM     27  C   UNL     1      47.135  13.811  20.388  0.00  0.00    +0.243 C 
ENDBRANCH  25  26
BRANCH  10   9
ATOM      9  O   UNL     1      47.828  14.395  17.218  0.00  0.00    -0.267 OA
BRANCH   9   8
ATOM      8  C   UNL     1      47.349  13.736  16.044  0.00  0.00    +0.193 C 
BRANCH   8   5
ATOM      5  C   UNL     1      46.804  12.357  16.418  0.00  0.00    +0.250 C 
BRANCH   5   2
ATOM      1  C   UNL     1      48.184  10.561  15.361  0.00  0.00    +0.036 C 
ATOM      2  C   UNL     1      46.924  11.418  15.216  0.00  0.00    +0.101 C 
ATOM     28  C   UNL     1      45.694  10.509  15.155  0.00  0.00    +0.017 C 
BRANCH   2   3
ATOM      3  O   UNL     1      47.008  12.189  14.016  0.00  0.00    -0.560 OA
ATOM      4  H   UNL     1      46.679  13.094  14.106  0.00  0.00    +0.390 HD
ENDBRANCH   2   3
ENDBRANCH   5   2
BRANCH   5   6
ATOM      6  O   UNL     1      45.431  12.473  16.797  0.00  0.00    -0.535 OA
ATOM      7  H   UNL     1      45.070  13.365  16.696  0.00  0.00    +0.377 HD
ENDBRANCH   5   6
ENDBRANCH   8   5
ENDBRANCH   9   8
ENDBRANCH  10   9
TORSDOF 8
ENDMDL
MODEL 8
REMARK VINA RESULT:      -5.4      2.263      7.376
REMARK  Name = ZINC00035526
REMARK  12 active torsions:
REMARK  status: ('A' for Active; 'I' for Inactive)
REMARK    1  A    between atoms: C1_1  and  C2_2
REMARK    2  A    between atoms: C2_2  and  C3_3
REMARK    3  A    between atoms: C2_2  and  C4_4
REMARK    4  A    between atoms: C2_2  and  O6_26
REMARK    5  A    between atoms: C4_4  and  C5_6
REMARK    6  A    between atoms: C4_4  and  O5_25
REMARK    7  A    between atoms: C5_6  and  O1_7
REMARK    8  A    between atoms: O1_7  and  C6_8
REMARK    9  A    between atoms: C11_13  and  O2_14
REMARK   10  A    between atoms: O2_14  and  C12_15
REMARK   11  A    between atoms: C15_19  and  O3_20
REMARK   12  A    between atoms: O3_20  and  C16_21
REMARK                            x       y       z     vdW  Elec       q    Type
REMARK                         _______ _______ _______ _____ _____    ______ ____
ROOT
ATOM     10  C   UNL     1      46.714  19.027  20.851  0.00  0.00    +0.224 A 
ATOM     11  C   UNL     1      47.155  17.707  20.728  0.00  0.00    -0.018 A 
ATOM     12  C   UNL     1      48.272  17.409  20.010  0.00  0.00    +0.173 A 
ATOM     13  C   UNL     1      48.996  18.437  19.382  0.00  0.00    -0.158 A 
ATOM     14  C   UNL     1      48.560  19.781  19.498  0.00  0.00    +0.227 A 
ATOM     15  N   UNL     1      49.240  20.769  18.905  0.00  0.00    -0.468 N 
ATOM     16  H   UNL     1      48.922  21.680  18.999  0.00  0.00    +0.449 HD
ATOM     17  C   UNL     1      50.329  20.539  18.197  0.00  0.00    +0.352 A 
ATOM     18  C   UNL     1      50.821  19.224  18.040  0.00  0.00    -0.209 A 
ATOM     19  C   UNL     1      52.024  19.349  17.208  0.00  0.00    +0.041 A 
ATOM     20  C   UNL     1      52.159  20.654  16.942  0.00  0.00    +0.281 A 
ATOM     21  O   UNL     1      51.166  21.355  17.521  0.00  0.00    -0.167 OA
ATOM     22  C   UNL     1      50.157  18.154  18.633  0.00  0.00    +0.347 A 
ATOM     25  C   UNL     1      47.397  20.060  20.243  0.00  0.00    +0.009 A 
ENDROOT
BRANCH  22  23
ATOM     23  O   UNL     1      50.612  16.885  18.495  0.00  0.00    -0.318 OA
ATOM     24  C   UNL     1      50.262  16.199  17.292  0.00  0.00    +0.297 C 
ENDBRANCH  22  23
BRANCH  25  26
ATOM     26  O   UNL     1      46.954  21.339  20.367  0.00  0.00    -0.306 OA
ATOM     27  C   UNL     1      47.408  22.076  21.504  0.00  0.00    +0.243 C 
ENDBRANCH  25  26
BRANCH  10   9
ATOM      9  O   UNL     1      45.595  19.296  21.574  0.00  0.00    -0.267 OA
BRANCH   9   8
ATOM      8  C   UNL     1      44.339  18.984  20.968  0.00  0.00    +0.193 C 
BRANCH   8   5
ATOM      5  C   UNL     1      43.514  20.263  20.817  0.00  0.00    +0.250 C 
BRANCH   5   2
ATOM      1  C   UNL     1      44.110  19.583  18.488  0.00  0.00    +0.036 C 
ATOM      2  C   UNL     1      43.504  20.693  19.349  0.00  0.00    +0.101 C 
ATOM     28  C   UNL     1      42.062  20.954  18.905  0.00  0.00    +0.017 C 
BRANCH   2   3
ATOM      3  O   UNL     1      44.273  21.888  19.196  0.00  0.00    -0.560 OA
ATOM      4  H   UNL     1      44.992  21.813  18.554  0.00  0.00    +0.390 HD
ENDBRANCH   2   3
ENDBRANCH   5   2
BRANCH   5   6
ATOM      6  O   UNL     1      44.092  21.301  21.612  0.00  0.00    -0.535 OA
ATOM      7  H   UNL     1      45.033  21.175  21.799  0.00  0.00    +0.377 HD
ENDBRANCH   5   6
ENDBRANCH   8   5
ENDBRANCH   9   8
ENDBRANCH  10   9
TORSDOF 8
ENDMDL
MODEL 9
REMARK VINA RESULT:      -5.1      2.197      7.850
REMARK  Name = ZINC00035526
REMARK  12 active torsions:
REMARK  status: ('A' for Active; 'I' for Inactive)
REMARK    1  A    between atoms: C1_1  and  C2_2
REMARK    2  A    between atoms: C2_2  and  C3_3
REMARK    3  A    between atoms: C2_2  and  C4_4
REMARK    4  A    between atoms: C2_2  and  O6_26
REMARK    5  A    between atoms: C4_4  and  C5_6
REMARK    6  A    between atoms: C4_4  and  O5_25
REMARK    7  A    between atoms: C5_6  and  O1_7
REMARK    8  A    between atoms: O1_7  and  C6_8
REMARK    9  A    between atoms: C11_13  and  O2_14
REMARK   10  A    between atoms: O2_14  and  C12_15
REMARK   11  A    between atoms: C15_19  and  O3_20
REMARK   12  A    between atoms: O3_20  and  C16_21
REMARK                            x       y       z     vdW  Elec       q    Type
REMARK                         _______ _______ _______ _____ _____    ______ ____
ROOT
ATOM     10  C   UNL     1      46.033  19.798  18.740  0.00  0.00    +0.224 A 
ATOM     11  C   UNL     1      45.491  18.667  18.122  0.00  0.00    -0.018 A 
ATOM     12  C   UNL     1      46.286  17.630  17.745  0.00  0.00    +0.173 A 
ATOM     13  C   UNL     1      47.671  17.689  17.976  0.00  0.00    -0.158 A 
ATOM     14  C   UNL     1      48.236  18.830  18.602  0.00  0.00    +0.227 A 
ATOM     15  N   UNL     1      49.551  18.899  18.828  0.00  0.00    -0.468 N 
ATOM     16  H   UNL     1      49.914  19.689  19.257  0.00  0.00    +0.449 HD
ATOM     17  C   UNL     1      50.371  17.923  18.484  0.00  0.00    +0.352 A 
ATOM     18  C   UNL     1      49.878  16.757  17.857  0.00  0.00    -0.209 A 
ATOM     19  C   UNL     1      51.052  15.906  17.625  0.00  0.00    +0.041 A 
ATOM     20  C   UNL     1      52.103  16.584  18.101  0.00  0.00    +0.281 A 
ATOM     21  O   UNL     1      51.706  17.768  18.606  0.00  0.00    -0.167 OA
ATOM     22  C   UNL     1      48.516  16.627  17.595  0.00  0.00    +0.347 A 
ATOM     25  C   UNL     1      47.388  19.891  18.977  0.00  0.00    +0.009 A 
ENDROOT
BRANCH  22  23
ATOM     23  O   UNL     1      48.022  15.516  16.995  0.00  0.00    -0.318 OA
ATOM     24  C   UNL     1      47.798  14.376  17.827  0.00  0.00    +0.297 C 
ENDBRANCH  22  23
BRANCH  25  26
ATOM     26  O   UNL     1      47.903  20.999  19.575  0.00  0.00    -0.306 OA
ATOM     27  C   UNL     1      47.923  21.016  21.004  0.00  0.00    +0.243 C 
ENDBRANCH  25  26
BRANCH  10   9
ATOM      9  O   UNL     1      45.214  20.819  19.107  0.00  0.00    -0.267 OA
BRANCH   9   8
ATOM      8  C   UNL     1      44.161  20.511  20.022  0.00  0.00    +0.193 C 
BRANCH   8   5
ATOM      5  C   UNL     1      42.981  21.453  19.778  0.00  0.00    +0.250 C 
BRANCH   5   2
ATOM      1  C   UNL     1      41.358  19.554  19.853  0.00  0.00    +0.036 C 
ATOM      2  C   UNL     1      41.888  20.712  19.004  0.00  0.00    +0.101 C 
ATOM     28  C   UNL     1      40.745  21.678  18.686  0.00  0.00    +0.017 C 
BRANCH   2   3
ATOM      3  O   UNL     1      42.432  20.199  17.786  0.00  0.00    -0.560 OA
ATOM      4  H   UNL     1      42.344  19.241  17.688  0.00  0.00    +0.390 HD
ENDBRANCH   2   3
ENDBRANCH   5   2
BRANCH   5   6
ATOM      6  O   UNL     1      43.420  22.581  19.019  0.00  0.00    -0.535 OA
ATOM      7  H   UNL     1      44.347  22.816  19.164  0.00  0.00    +0.377 HD
ENDBRANCH   5   6
ENDBRANCH   8   5
ENDBRANCH   9   8
ENDBRANCH  10   9
TORSDOF 8
ENDMDL
