MODEL 1
REMARK VINA RESULT:      -6.4      0.000      0.000
REMARK  Name = ZINC14780240
REMARK  5 active torsions:
REMARK  status: ('A' for Active; 'I' for Inactive)
REMARK    1  A    between atoms: C1_1  and  C2_2
REMARK    2  A    between atoms: C2_2  and  C18_24
REMARK    3  A    between atoms: C8_8  and  O5_22
REMARK    4  A    between atoms: C14_15  and  O4_21
REMARK    5  A    between atoms: C15_16  and  O3_20
REMARK                            x       y       z     vdW  Elec       q    Type
REMARK                         _______ _______ _______ _____ _____    ______ ____
ROOT
ATOM      1  C   UNL     1      52.131  18.656  17.522  0.00  0.00    +0.039 C 
ATOM      2  C   UNL     1      51.904  17.850  18.803  0.00  0.00    +0.144 C 
ATOM      3  C   UNL     1      53.129  16.975  19.072  0.00  0.00    +0.089 C 
ATOM      4  C   UNL     1      51.706  18.797  19.958  0.00  0.00    -0.047 C 
ATOM      5  C   UNL     1      50.486  19.238  20.255  0.00  0.00    +0.059 C 
ATOM      6  C   UNL     1      49.354  18.761  19.430  0.00  0.00    -0.175 A 
ATOM      7  C   UNL     1      49.545  17.627  18.627  0.00  0.00    +0.219 A 
ATOM      8  C   UNL     1      48.511  17.145  17.841  0.00  0.00    -0.051 A 
ATOM      9  C   UNL     1      47.283  17.786  17.841  0.00  0.00    +0.243 A 
ATOM     12  C   UNL     1      47.082  18.918  18.643  0.00  0.00    -0.289 A 
ATOM     13  C   UNL     1      45.782  19.610  18.657  0.00  0.00    +0.440 A 
ATOM     14  O   UNL     1      44.844  19.219  17.985  0.00  0.00    -0.419 OA
ATOM     15  C   UNL     1      45.669  20.799  19.523  0.00  0.00    -0.243 A 
ATOM     16  C   UNL     1      44.473  21.521  19.597  0.00  0.00    +0.177 A 
ATOM     19  C   UNL     1      44.398  22.637  20.421  0.00  0.00    +0.048 A 
ATOM     22  C   UNL     1      45.504  23.026  21.162  0.00  0.00    +0.091 A 
ATOM     23  C   UNL     1      46.686  22.317  21.093  0.00  0.00    +0.016 A 
ATOM     24  C   UNL     1      46.785  21.196  20.277  0.00  0.00    +0.168 A 
ATOM     25  O   UNL     1      47.943  20.507  20.217  0.00  0.00    -0.221 OA
ATOM     26  C   UNL     1      48.122  19.417  19.446  0.00  0.00    +0.226 A 
ATOM     27  O   UNL     1      50.757  17.016  18.637  0.00  0.00    -0.292 OA
ENDROOT
BRANCH   9  10
ATOM     10  O   UNL     1      46.273  17.315  17.067  0.00  0.00    -0.471 OA
ATOM     11  H   UNL     1      46.486  17.273  16.125  0.00  0.00    +0.406 HD
ENDBRANCH   9  10
BRANCH  16  17
ATOM     17  O   UNL     1      43.393  21.134  18.869  0.00  0.00    -0.465 OA
ATOM     18  H   UNL     1      42.551  21.465  19.210  0.00  0.00    +0.398 HD
ENDBRANCH  16  17
BRANCH  19  20
ATOM     20  O   UNL     1      43.240  23.348  20.501  0.00  0.00    -0.479 OA
ATOM     21  H   UNL     1      43.179  24.072  19.864  0.00  0.00    +0.390 HD
ENDBRANCH  19  20
TORSDOF 3
ENDMDL
MODEL 2
REMARK VINA RESULT:      -6.3      1.741      1.958
REMARK  Name = ZINC14780240
REMARK  5 active torsions:
REMARK  status: ('A' for Active; 'I' for Inactive)
REMARK    1  A    between atoms: C1_1  and  C2_2
REMARK    2  A    between atoms: C2_2  and  C18_24
REMARK    3  A    between atoms: C8_8  and  O5_22
REMARK    4  A    between atoms: C14_15  and  O4_21
REMARK    5  A    between atoms: C15_16  and  O3_20
REMARK                            x       y       z     vdW  Elec       q    Type
REMARK                         _______ _______ _______ _____ _____    ______ ____
ROOT
ATOM      1  C   UNL     1      51.091  19.181  16.602  0.00  0.00    +0.039 C 
ATOM      2  C   UNL     1      51.396  19.458  18.076  0.00  0.00    +0.144 C 
ATOM      3  C   UNL     1      52.910  19.443  18.289  0.00  0.00    +0.089 C 
ATOM      4  C   UNL     1      50.854  20.811  18.451  0.00  0.00    -0.047 C 
ATOM      5  C   UNL     1      49.603  20.929  18.892  0.00  0.00    +0.059 C 
ATOM      6  C   UNL     1      48.789  19.700  19.009  0.00  0.00    -0.175 A 
ATOM      7  C   UNL     1      49.446  18.460  18.998  0.00  0.00    +0.219 A 
ATOM      8  C   UNL     1      48.722  17.284  19.107  0.00  0.00    -0.051 A 
ATOM      9  C   UNL     1      47.342  17.327  19.223  0.00  0.00    +0.243 A 
ATOM     12  C   UNL     1      46.678  18.562  19.239  0.00  0.00    -0.289 A 
ATOM     13  C   UNL     1      45.211  18.626  19.364  0.00  0.00    +0.440 A 
ATOM     14  O   UNL     1      44.535  17.618  19.467  0.00  0.00    -0.419 OA
ATOM     15  C   UNL     1      44.600  19.969  19.359  0.00  0.00    -0.243 A 
ATOM     16  C   UNL     1      43.215  20.126  19.470  0.00  0.00    +0.177 A 
ATOM     19  C   UNL     1      42.669  21.403  19.461  0.00  0.00    +0.048 A 
ATOM     22  C   UNL     1      43.497  22.510  19.344  0.00  0.00    +0.091 A 
ATOM     23  C   UNL     1      44.865  22.359  19.235  0.00  0.00    +0.016 A 
ATOM     24  C   UNL     1      45.434  21.092  19.242  0.00  0.00    +0.168 A 
ATOM     25  O   UNL     1      46.772  20.955  19.138  0.00  0.00    -0.221 OA
ATOM     26  C   UNL     1      47.400  19.762  19.130  0.00  0.00    +0.226 A 
ATOM     27  O   UNL     1      50.798  18.439  18.879  0.00  0.00    -0.292 OA
ENDROOT
BRANCH   9  10
ATOM     10  O   UNL     1      46.635  16.175  19.326  0.00  0.00    -0.471 OA
ATOM     11  H   UNL     1      46.116  15.959  18.539  0.00  0.00    +0.406 HD
ENDBRANCH   9  10
BRANCH  16  17
ATOM     17  O   UNL     1      42.409  19.038  19.585  0.00  0.00    -0.465 OA
ATOM     18  H   UNL     1      42.440  18.445  18.822  0.00  0.00    +0.398 HD
ENDBRANCH  16  17
BRANCH  19  20
ATOM     20  O   UNL     1      41.322  21.569  19.568  0.00  0.00    -0.479 OA
ATOM     21  H   UNL     1      41.034  21.905  20.427  0.00  0.00    +0.390 HD
ENDBRANCH  19  20
TORSDOF 3
ENDMDL
MODEL 3
REMARK VINA RESULT:      -6.1      1.817      3.731
REMARK  Name = ZINC14780240
REMARK  5 active torsions:
REMARK  status: ('A' for Active; 'I' for Inactive)
REMARK    1  A    between atoms: C1_1  and  C2_2
REMARK    2  A    between atoms: C2_2  and  C18_24
REMARK    3  A    between atoms: C8_8  and  O5_22
REMARK    4  A    between atoms: C14_15  and  O4_21
REMARK    5  A    between atoms: C15_16  and  O3_20
REMARK                            x       y       z     vdW  Elec       q    Type
REMARK                         _______ _______ _______ _____ _____    ______ ____
ROOT
ATOM      1  C   UNL     1      48.340  14.032  18.372  0.00  0.00    +0.039 C 
ATOM      2  C   UNL     1      48.385  14.631  16.964  0.00  0.00    +0.144 C 
ATOM      3  C   UNL     1      48.900  13.577  15.984  0.00  0.00    +0.089 C 
ATOM      4  C   UNL     1      46.998  15.053  16.558  0.00  0.00    -0.047 C 
ATOM      5  C   UNL     1      46.562  16.277  16.850  0.00  0.00    +0.059 C 
ATOM      6  C   UNL     1      47.482  17.190  17.563  0.00  0.00    -0.175 A 
ATOM      7  C   UNL     1      48.849  16.877  17.587  0.00  0.00    +0.219 A 
ATOM      8  C   UNL     1      49.744  17.707  18.242  0.00  0.00    -0.051 A 
ATOM      9  C   UNL     1      49.292  18.849  18.882  0.00  0.00    +0.243 A 
ATOM     12  C   UNL     1      47.927  19.172  18.860  0.00  0.00    -0.289 A 
ATOM     13  C   UNL     1      47.430  20.384  19.533  0.00  0.00    +0.440 A 
ATOM     14  O   UNL     1      48.182  21.143  20.118  0.00  0.00    -0.419 OA
ATOM     15  C   UNL     1      45.978  20.634  19.467  0.00  0.00    -0.243 A 
ATOM     16  C   UNL     1      45.415  21.759  20.080  0.00  0.00    +0.177 A 
ATOM     19  C   UNL     1      44.044  21.966  20.001  0.00  0.00    +0.048 A 
ATOM     22  C   UNL     1      43.244  21.062  19.317  0.00  0.00    +0.091 A 
ATOM     23  C   UNL     1      43.795  19.951  18.710  0.00  0.00    +0.016 A 
ATOM     24  C   UNL     1      45.164  19.723  18.774  0.00  0.00    +0.168 A 
ATOM     25  O   UNL     1      45.694  18.636  18.175  0.00  0.00    -0.221 OA
ATOM     26  C   UNL     1      47.008  18.340  18.199  0.00  0.00    +0.226 A 
ATOM     27  O   UNL     1      49.272  15.751  16.958  0.00  0.00    -0.292 OA
ENDROOT
BRANCH   9  10
ATOM     10  O   UNL     1      50.170  19.657  19.526  0.00  0.00    -0.471 OA
ATOM     11  H   UNL     1      51.032  19.726  19.094  0.00  0.00    +0.406 HD
ENDBRANCH   9  10
BRANCH  16  17
ATOM     17  O   UNL     1      46.203  22.640  20.748  0.00  0.00    -0.465 OA
ATOM     18  H   UNL     1      45.835  22.933  21.593  0.00  0.00    +0.398 HD
ENDBRANCH  16  17
BRANCH  19  20
ATOM     20  O   UNL     1      43.485  23.056  20.594  0.00  0.00    -0.479 OA
ATOM     21  H   UNL     1      42.984  22.854  21.395  0.00  0.00    +0.390 HD
ENDBRANCH  19  20
TORSDOF 3
ENDMDL
MODEL 4
REMARK VINA RESULT:      -6.0      3.459      7.088
REMARK  Name = ZINC14780240
REMARK  5 active torsions:
REMARK  status: ('A' for Active; 'I' for Inactive)
REMARK    1  A    between atoms: C1_1  and  C2_2
REMARK    2  A    between atoms: C2_2  and  C18_24
REMARK    3  A    between atoms: C8_8  and  O5_22
REMARK    4  A    between atoms: C14_15  and  O4_21
REMARK    5  A    between atoms: C15_16  and  O3_20
REMARK                            x       y       z     vdW  Elec       q    Type
REMARK                         _______ _______ _______ _____ _____    ______ ____
ROOT
ATOM      1  C   UNL     1      46.461  21.901  21.067  0.00  0.00    +0.039 C 
ATOM      2  C   UNL     1      45.237  21.981  20.151  0.00  0.00    +0.144 C 
ATOM      3  C   UNL     1      44.714  23.418  20.134  0.00  0.00    +0.089 C 
ATOM      4  C   UNL     1      45.633  21.579  18.756  0.00  0.00    -0.047 C 
ATOM      5  C   UNL     1      45.576  20.300  18.390  0.00  0.00    +0.059 C 
ATOM      6  C   UNL     1      45.105  19.313  19.386  0.00  0.00    -0.175 A 
ATOM      7  C   UNL     1      44.420  19.781  20.517  0.00  0.00    +0.219 A 
ATOM      8  C   UNL     1      43.960  18.890  21.473  0.00  0.00    -0.051 A 
ATOM      9  C   UNL     1      44.181  17.531  21.319  0.00  0.00    +0.243 A 
ATOM     12  C   UNL     1      44.862  17.055  20.189  0.00  0.00    -0.289 A 
ATOM     13  C   UNL     1      45.103  15.613  20.008  0.00  0.00    +0.440 A 
ATOM     14  O   UNL     1      44.714  14.794  20.822  0.00  0.00    -0.419 OA
ATOM     15  C   UNL     1      45.838  15.207  18.796  0.00  0.00    -0.243 A 
ATOM     16  C   UNL     1      46.115  13.860  18.542  0.00  0.00    +0.177 A 
ATOM     19  C   UNL     1      46.811  13.509  17.392  0.00  0.00    +0.048 A 
ATOM     22  C   UNL     1      47.225  14.493  16.505  0.00  0.00    +0.091 A 
ATOM     23  C   UNL     1      46.953  15.824  16.751  0.00  0.00    +0.016 A 
ATOM     24  C   UNL     1      46.257  16.199  17.894  0.00  0.00    +0.168 A 
ATOM     25  O   UNL     1      45.993  17.502  18.125  0.00  0.00    -0.221 OA
ATOM     26  C   UNL     1      45.333  17.947  19.212  0.00  0.00    +0.226 A 
ATOM     27  O   UNL     1      44.218  21.116  20.652  0.00  0.00    -0.292 OA
ENDROOT
BRANCH   9  10
ATOM     10  O   UNL     1      43.733  16.661  22.258  0.00  0.00    -0.471 OA
ATOM     11  H   UNL     1      44.394  16.426  22.924  0.00  0.00    +0.406 HD
ENDBRANCH   9  10
BRANCH  16  17
ATOM     17  O   UNL     1      45.708  12.901  19.414  0.00  0.00    -0.465 OA
ATOM     18  H   UNL     1      46.249  12.099  19.396  0.00  0.00    +0.398 HD
ENDBRANCH  16  17
BRANCH  19  20
ATOM     20  O   UNL     1      47.088  12.202  17.135  0.00  0.00    -0.479 OA
ATOM     21  H   UNL     1      47.579  12.058  16.315  0.00  0.00    +0.390 HD
ENDBRANCH  19  20
TORSDOF 3
ENDMDL
MODEL 5
REMARK VINA RESULT:      -5.9      3.820      5.108
REMARK  Name = ZINC14780240
REMARK  5 active torsions:
REMARK  status: ('A' for Active; 'I' for Inactive)
REMARK    1  A    between atoms: C1_1  and  C2_2
REMARK    2  A    between atoms: C2_2  and  C18_24
REMARK    3  A    between atoms: C8_8  and  O5_22
REMARK    4  A    between atoms: C14_15  and  O4_21
REMARK    5  A    between atoms: C15_16  and  O3_20
REMARK                            x       y       z     vdW  Elec       q    Type
REMARK                         _______ _______ _______ _____ _____    ______ ____
ROOT
ATOM      1  C   UNL     1      45.452  12.236  17.160  0.00  0.00    +0.039 C 
ATOM      2  C   UNL     1      46.864  12.583  17.636  0.00  0.00    +0.144 C 
ATOM      3  C   UNL     1      47.823  11.465  17.226  0.00  0.00    +0.089 C 
ATOM      4  C   UNL     1      47.302  13.874  16.995  0.00  0.00    -0.047 C 
ATOM      5  C   UNL     1      47.031  15.036  17.587  0.00  0.00    +0.059 C 
ATOM      6  C   UNL     1      46.309  15.007  18.877  0.00  0.00    -0.175 A 
ATOM      7  C   UNL     1      46.255  13.797  19.585  0.00  0.00    +0.219 A 
ATOM      8  C   UNL     1      45.591  13.728  20.799  0.00  0.00    -0.051 A 
ATOM      9  C   UNL     1      44.971  14.853  21.317  0.00  0.00    +0.243 A 
ATOM     12  C   UNL     1      45.023  16.067  20.618  0.00  0.00    -0.289 A 
ATOM     13  C   UNL     1      44.372  17.274  21.156  0.00  0.00    +0.440 A 
ATOM     14  O   UNL     1      43.780  17.259  22.221  0.00  0.00    -0.419 OA
ATOM     15  C   UNL     1      44.469  18.502  20.344  0.00  0.00    -0.243 A 
ATOM     16  C   UNL     1      43.879  19.694  20.774  0.00  0.00    +0.177 A 
ATOM     19  C   UNL     1      43.987  20.834  19.986  0.00  0.00    +0.048 A 
ATOM     22  C   UNL     1      44.677  20.782  18.784  0.00  0.00    +0.091 A 
ATOM     23  C   UNL     1      45.262  19.607  18.356  0.00  0.00    +0.016 A 
ATOM     24  C   UNL     1      45.169  18.455  19.127  0.00  0.00    +0.168 A 
ATOM     25  O   UNL     1      45.746  17.312  18.702  0.00  0.00    -0.221 OA
ATOM     26  C   UNL     1      45.694  16.152  19.386  0.00  0.00    +0.226 A 
ATOM     27  O   UNL     1      46.864  12.705  19.059  0.00  0.00    -0.292 OA
ENDROOT
BRANCH   9  10
ATOM     10  O   UNL     1      44.319  14.781  22.504  0.00  0.00    -0.471 OA
ATOM     11  H   UNL     1      43.918  15.615  22.785  0.00  0.00    +0.406 HD
ENDBRANCH   9  10
BRANCH  16  17
ATOM     17  O   UNL     1      43.204  19.739  21.952  0.00  0.00    -0.465 OA
ATOM     18  H   UNL     1      43.690  19.358  22.697  0.00  0.00    +0.398 HD
ENDBRANCH  16  17
BRANCH  19  20
ATOM     20  O   UNL     1      43.416  22.000  20.394  0.00  0.00    -0.479 OA
ATOM     21  H   UNL     1      42.904  22.448  19.707  0.00  0.00    +0.390 HD
ENDBRANCH  19  20
TORSDOF 3
ENDMDL
MODEL 6
REMARK VINA RESULT:      -5.8      3.026      3.806
REMARK  Name = ZINC14780240
REMARK  5 active torsions:
REMARK  status: ('A' for Active; 'I' for Inactive)
REMARK    1  A    between atoms: C1_1  and  C2_2
REMARK    2  A    between atoms: C2_2  and  C18_24
REMARK    3  A    between atoms: C8_8  and  O5_22
REMARK    4  A    between atoms: C14_15  and  O4_21
REMARK    5  A    between atoms: C15_16  and  O3_20
REMARK                            x       y       z     vdW  Elec       q    Type
REMARK                         _______ _______ _______ _____ _____    ______ ____
ROOT
ATOM      1  C   UNL     1      48.829  14.777  16.880  0.00  0.00    +0.039 C 
ATOM      2  C   UNL     1      49.622  15.839  17.646  0.00  0.00    +0.144 C 
ATOM      3  C   UNL     1      51.109  15.688  17.322  0.00  0.00    +0.089 C 
ATOM      4  C   UNL     1      49.158  17.207  17.223  0.00  0.00    -0.047 C 
ATOM      5  C   UNL     1      48.143  17.791  17.858  0.00  0.00    +0.059 C 
ATOM      6  C   UNL     1      47.514  17.061  18.980  0.00  0.00    -0.175 A 
ATOM      7  C   UNL     1      48.208  15.983  19.549  0.00  0.00    +0.219 A 
ATOM      8  C   UNL     1      47.654  15.274  20.603  0.00  0.00    -0.051 A 
ATOM      9  C   UNL     1      46.409  15.624  21.097  0.00  0.00    +0.243 A 
ATOM     12  C   UNL     1      45.709  16.703  20.537  0.00  0.00    -0.289 A 
ATOM     13  C   UNL     1      44.385  17.090  21.052  0.00  0.00    +0.440 A 
ATOM     14  O   UNL     1      43.863  16.497  21.979  0.00  0.00    -0.419 OA
ATOM     15  C   UNL     1      43.720  18.230  20.392  0.00  0.00    -0.243 A 
ATOM     16  C   UNL     1      42.460  18.666  20.812  0.00  0.00    +0.177 A 
ATOM     19  C   UNL     1      41.859  19.741  20.169  0.00  0.00    +0.048 A 
ATOM     22  C   UNL     1      42.510  20.373  19.120  0.00  0.00    +0.091 A 
ATOM     23  C   UNL     1      43.755  19.947  18.703  0.00  0.00    +0.016 A 
ATOM     24  C   UNL     1      44.376  18.874  19.331  0.00  0.00    +0.168 A 
ATOM     25  O   UNL     1      45.595  18.466  18.918  0.00  0.00    -0.221 OA
ATOM     26  C   UNL     1      46.259  17.431  19.468  0.00  0.00    +0.226 A 
ATOM     27  O   UNL     1      49.425  15.653  19.048  0.00  0.00    -0.292 OA
ENDROOT
BRANCH   9  10
ATOM     10  O   UNL     1      45.868  14.926  22.126  0.00  0.00    -0.471 OA
ATOM     11  H   UNL     1      46.213  14.027  22.217  0.00  0.00    +0.406 HD
ENDBRANCH   9  10
BRANCH  16  17
ATOM     17  O   UNL     1      41.827  18.043  21.840  0.00  0.00    -0.465 OA
ATOM     18  H   UNL     1      41.180  18.598  22.297  0.00  0.00    +0.398 HD
ENDBRANCH  16  17
BRANCH  19  20
ATOM     20  O   UNL     1      40.632  20.174  20.568  0.00  0.00    -0.479 OA
ATOM     21  H   UNL     1      39.948  20.095  19.890  0.00  0.00    +0.390 HD
ENDBRANCH  19  20
TORSDOF 3
ENDMDL
MODEL 7
REMARK VINA RESULT:      -5.6      2.245      6.527
REMARK  Name = ZINC14780240
REMARK  5 active torsions:
REMARK  status: ('A' for Active; 'I' for Inactive)
REMARK    1  A    between atoms: C1_1  and  C2_2
REMARK    2  A    between atoms: C2_2  and  C18_24
REMARK    3  A    between atoms: C8_8  and  O5_22
REMARK    4  A    between atoms: C14_15  and  O4_21
REMARK    5  A    between atoms: C15_16  and  O3_20
REMARK                            x       y       z     vdW  Elec       q    Type
REMARK                         _______ _______ _______ _____ _____    ______ ____
ROOT
ATOM      1  C   UNL     1      43.261  19.297  22.050  0.00  0.00    +0.039 C 
ATOM      2  C   UNL     1      42.897  19.310  20.563  0.00  0.00    +0.144 C 
ATOM      3  C   UNL     1      41.382  19.461  20.417  0.00  0.00    +0.089 C 
ATOM      4  C   UNL     1      43.579  20.474  19.894  0.00  0.00    -0.047 C 
ATOM      5  C   UNL     1      44.803  20.327  19.389  0.00  0.00    +0.059 C 
ATOM      6  C   UNL     1      45.445  18.999  19.499  0.00  0.00    -0.175 A 
ATOM      7  C   UNL     1      44.639  17.890  19.794  0.00  0.00    +0.219 A 
ATOM      8  C   UNL     1      45.200  16.628  19.904  0.00  0.00    -0.051 A 
ATOM      9  C   UNL     1      46.563  16.457  19.728  0.00  0.00    +0.243 A 
ATOM     12  C   UNL     1      47.376  17.560  19.430  0.00  0.00    -0.289 A 
ATOM     13  C   UNL     1      48.828  17.395  19.237  0.00  0.00    +0.440 A 
ATOM     14  O   UNL     1      49.362  16.304  19.320  0.00  0.00    -0.419 OA
ATOM     15  C   UNL     1      49.602  18.615  18.938  0.00  0.00    -0.243 A 
ATOM     16  C   UNL     1      50.986  18.554  18.743  0.00  0.00    +0.177 A 
ATOM     19  C   UNL     1      51.689  19.720  18.465  0.00  0.00    +0.048 A 
ATOM     22  C   UNL     1      51.017  20.931  18.382  0.00  0.00    +0.091 A 
ATOM     23  C   UNL     1      49.651  20.995  18.573  0.00  0.00    +0.016 A 
ATOM     24  C   UNL     1      48.927  19.842  18.851  0.00  0.00    +0.168 A 
ATOM     25  O   UNL     1      47.592  19.914  19.034  0.00  0.00    -0.221 OA
ATOM     26  C   UNL     1      46.820  18.845  19.315  0.00  0.00    +0.226 A 
ATOM     27  O   UNL     1      43.306  18.079  19.968  0.00  0.00    -0.292 OA
ENDROOT
BRANCH   9  10
ATOM     10  O   UNL     1      47.111  15.221  19.840  0.00  0.00    -0.471 OA
ATOM     11  H   UNL     1      46.464  14.503  19.857  0.00  0.00    +0.406 HD
ENDBRANCH   9  10
BRANCH  16  17
ATOM     17  O   UNL     1      51.639  17.366  18.826  0.00  0.00    -0.465 OA
ATOM     18  H   UNL     1      51.086  16.600  18.618  0.00  0.00    +0.398 HD
ENDBRANCH  16  17
BRANCH  19  20
ATOM     20  O   UNL     1      53.035  19.675  18.274  0.00  0.00    -0.479 OA
ATOM     21  H   UNL     1      53.533  20.274  18.845  0.00  0.00    +0.390 HD
ENDBRANCH  19  20
TORSDOF 3
ENDMDL
MODEL 8
REMARK VINA RESULT:      -5.6      3.198      6.367
REMARK  Name = ZINC14780240
REMARK  5 active torsions:
REMARK  status: ('A' for Active; 'I' for Inactive)
REMARK    1  A    between atoms: C1_1  and  C2_2
REMARK    2  A    between atoms: C2_2  and  C18_24
REMARK    3  A    between atoms: C8_8  and  O5_22
REMARK    4  A    between atoms: C14_15  and  O4_21
REMARK    5  A    between atoms: C15_16  and  O3_20
REMARK                            x       y       z     vdW  Elec       q    Type
REMARK                         _______ _______ _______ _____ _____    ______ ____
ROOT
ATOM      1  C   UNL     1      51.839  18.773  19.569  0.00  0.00    +0.039 C 
ATOM      2  C   UNL     1      51.215  19.495  18.371  0.00  0.00    +0.144 C 
ATOM      3  C   UNL     1      51.956  20.811  18.134  0.00  0.00    +0.089 C 
ATOM      4  C   UNL     1      51.340  18.626  17.148  0.00  0.00    -0.047 C 
ATOM      5  C   UNL     1      50.387  17.742  16.859  0.00  0.00    +0.059 C 
ATOM      6  C   UNL     1      49.220  17.659  17.763  0.00  0.00    -0.175 A 
ATOM      7  C   UNL     1      48.988  18.717  18.654  0.00  0.00    +0.219 A 
ATOM      8  C   UNL     1      47.904  18.680  19.517  0.00  0.00    -0.051 A 
ATOM      9  C   UNL     1      47.047  17.593  19.507  0.00  0.00    +0.243 A 
ATOM     12  C   UNL     1      47.269  16.531  18.617  0.00  0.00    -0.289 A 
ATOM     13  C   UNL     1      46.364  15.369  18.592  0.00  0.00    +0.440 A 
ATOM     14  O   UNL     1      45.398  15.296  19.330  0.00  0.00    -0.419 OA
ATOM     15  C   UNL     1      46.685  14.296  17.631  0.00  0.00    -0.243 A 
ATOM     16  C   UNL     1      45.884  13.153  17.539  0.00  0.00    +0.177 A 
ATOM     19  C   UNL     1      46.213  12.160  16.626  0.00  0.00    +0.048 A 
ATOM     22  C   UNL     1      47.328  12.307  15.813  0.00  0.00    +0.091 A 
ATOM     23  C   UNL     1      48.120  13.434  15.900  0.00  0.00    +0.016 A 
ATOM     24  C   UNL     1      47.811  14.441  16.805  0.00  0.00    +0.168 A 
ATOM     25  O   UNL     1      48.590  15.541  16.881  0.00  0.00    -0.221 OA
ATOM     26  C   UNL     1      48.363  16.556  17.737  0.00  0.00    +0.226 A 
ATOM     27  O   UNL     1      49.843  19.771  18.652  0.00  0.00    -0.292 OA
ENDROOT
BRANCH   9  10
ATOM     10  O   UNL     1      45.989  17.557  20.355  0.00  0.00    -0.471 OA
ATOM     11  H   UNL     1      45.910  16.731  20.853  0.00  0.00    +0.406 HD
ENDBRANCH   9  10
BRANCH  16  17
ATOM     17  O   UNL     1      44.794  13.015  18.338  0.00  0.00    -0.465 OA
ATOM     18  H   UNL     1      44.963  13.212  19.270  0.00  0.00    +0.398 HD
ENDBRANCH  16  17
BRANCH  19  20
ATOM     20  O   UNL     1      45.442  11.043  16.527  0.00  0.00    -0.479 OA
ATOM     21  H   UNL     1      45.803  10.275  16.990  0.00  0.00    +0.390 HD
ENDBRANCH  19  20
TORSDOF 3
ENDMDL
MODEL 9
REMARK VINA RESULT:      -5.6      3.767      4.692
REMARK  Name = ZINC14780240
REMARK  5 active torsions:
REMARK  status: ('A' for Active; 'I' for Inactive)
REMARK    1  A    between atoms: C1_1  and  C2_2
REMARK    2  A    between atoms: C2_2  and  C18_24
REMARK    3  A    between atoms: C8_8  and  O5_22
REMARK    4  A    between atoms: C14_15  and  O4_21
REMARK    5  A    between atoms: C15_16  and  O3_20
REMARK                            x       y       z     vdW  Elec       q    Type
REMARK                         _______ _______ _______ _____ _____    ______ ____
ROOT
ATOM      1  C   UNL     1      50.315  13.289  19.225  0.00  0.00    +0.039 C 
ATOM      2  C   UNL     1      49.186  12.422  18.663  0.00  0.00    +0.144 C 
ATOM      3  C   UNL     1      49.758  11.074  18.222  0.00  0.00    +0.089 C 
ATOM      4  C   UNL     1      48.151  12.197  19.733  0.00  0.00    -0.047 C 
ATOM      5  C   UNL     1      47.147  13.060  19.880  0.00  0.00    +0.059 C 
ATOM      6  C   UNL     1      47.084  14.216  18.960  0.00  0.00    -0.175 A 
ATOM      7  C   UNL     1      47.845  14.174  17.782  0.00  0.00    +0.219 A 
ATOM      8  C   UNL     1      47.813  15.236  16.893  0.00  0.00    -0.051 A 
ATOM      9  C   UNL     1      47.033  16.347  17.166  0.00  0.00    +0.243 A 
ATOM     12  C   UNL     1      46.267  16.396  18.339  0.00  0.00    -0.289 A 
ATOM     13  C   UNL     1      45.431  17.570  18.644  0.00  0.00    +0.440 A 
ATOM     14  O   UNL     1      45.370  18.523  17.888  0.00  0.00    -0.419 OA
ATOM     15  C   UNL     1      44.670  17.536  19.907  0.00  0.00    -0.243 A 
ATOM     16  C   UNL     1      43.852  18.607  20.280  0.00  0.00    +0.177 A 
ATOM     19  C   UNL     1      43.149  18.546  21.477  0.00  0.00    +0.048 A 
ATOM     22  C   UNL     1      43.261  17.428  22.291  0.00  0.00    +0.091 A 
ATOM     23  C   UNL     1      44.067  16.368  21.926  0.00  0.00    +0.016 A 
ATOM     24  C   UNL     1      44.779  16.406  20.734  0.00  0.00    +0.168 A 
ATOM     25  O   UNL     1      45.562  15.364  20.384  0.00  0.00    -0.221 OA
ATOM     26  C   UNL     1      46.290  15.327  19.250  0.00  0.00    +0.226 A 
ATOM     27  O   UNL     1      48.606  13.078  17.535  0.00  0.00    -0.292 OA
ENDROOT
BRANCH   9  10
ATOM     10  O   UNL     1      47.007  17.387  16.295  0.00  0.00    -0.471 OA
ATOM     11  H   UNL     1      47.537  18.146  16.572  0.00  0.00    +0.406 HD
ENDBRANCH   9  10
BRANCH  16  17
ATOM     17  O   UNL     1      43.745  19.699  19.480  0.00  0.00    -0.465 OA
ATOM     18  H   UNL     1      43.983  20.529  19.915  0.00  0.00    +0.398 HD
ENDBRANCH  16  17
BRANCH  19  20
ATOM     20  O   UNL     1      42.350  19.582  21.852  0.00  0.00    -0.479 OA
ATOM     21  H   UNL     1      42.706  20.453  21.631  0.00  0.00    +0.390 HD
ENDBRANCH  19  20
TORSDOF 3
ENDMDL
