MODEL 1
REMARK VINA RESULT:      -5.9      0.000      0.000
REMARK  Name = ZINC85909641
REMARK  7 active torsions:
REMARK  status: ('A' for Active; 'I' for Inactive)
REMARK    1  A    between atoms: C1_1  and  O1_2
REMARK    2  A    between atoms: O1_2  and  C2_3
REMARK    3  A    between atoms: C3_4  and  C4_5
REMARK    4  A    between atoms: C3_4  and  C21_28
REMARK    5  A    between atoms: C18_24  and  C19_26
REMARK    6  A    between atoms: C21_28  and  O3_30
REMARK    7  A    between atoms: O3_30  and  C22_31
REMARK                            x       y       z     vdW  Elec       q    Type
REMARK                         _______ _______ _______ _____ _____    ______ ____
ROOT
ATOM      9  C   UNL     1      49.697  17.910  17.815  0.00  0.00    +0.066 C 
ATOM     10  C   UNL     1      49.333  16.498  17.347  0.00  0.00    +0.049 C 
ATOM     11  C   UNL     1      47.812  16.341  17.365  0.00  0.00    +0.216 C 
ATOM     12  C   UNL     1      47.435  14.948  16.927  0.00  0.00    +0.074 A 
ATOM     13  C   UNL     1      46.486  14.214  17.554  0.00  0.00    -0.155 A 
ATOM     14  C   UNL     1      45.708  14.703  18.749  0.00  0.00    +0.115 C 
ATOM     15  C   UNL     1      45.894  16.224  18.852  0.00  0.00    +0.179 C 
ATOM     16  C   UNL     1      46.400  12.947  16.862  0.00  0.00    -0.100 A 
ATOM     17  C   UNL     1      45.609  11.811  17.056  0.00  0.00    +0.061 A 
ATOM     18  C   UNL     1      45.801  10.765  16.186  0.00  0.00    -0.033 A 
ATOM     19  C   UNL     1      46.732  10.820  15.162  0.00  0.00    +0.019 A 
ATOM     20  C   UNL     1      47.527  11.933  14.947  0.00  0.00    -0.006 A 
ATOM     21  C   UNL     1      47.354  13.010  15.813  0.00  0.00    +0.099 A 
ATOM     22  N   UNL     1      47.957  14.233  15.884  0.00  0.00    -0.580 N 
ATOM     23  H   UNL     1      48.653  14.548  15.285  0.00  0.00    +0.413 HD
ATOM     24  N   UNL     1      47.318  16.563  18.731  0.00  0.00    -0.533 NA
ATOM     25  C   UNL     1      47.602  17.930  19.179  0.00  0.00    +0.193 C 
ATOM     26  C   UNL     1      49.118  18.147  19.212  0.00  0.00    +0.047 C 
ENDROOT
BRANCH   9   4
ATOM      3  C   UNL     1      51.911  17.372  18.774  0.00  0.00    +0.290 C 
ATOM      4  C   UNL     1      51.196  18.055  17.861  0.00  0.00    -0.242 C 
BRANCH   3   2
ATOM      1  C   UNL     1      53.995  16.395  19.330  0.00  0.00    +0.241 C 
ATOM      2  O   UNL     1      53.252  17.501  18.814  0.00  0.00    -0.282 OA
ENDBRANCH   3   2
BRANCH   4   5
ATOM      5  C   UNL     1      51.854  18.909  16.942  0.00  0.00    +0.508 C 
ATOM      8  O   UNL     1      52.142  18.503  15.833  0.00  0.00    -0.503 OA
BRANCH   5   6
ATOM      6  O   UNL     1      52.161  20.174  17.300  0.00  0.00    -0.347 OA
ATOM      7  C   UNL     1      51.534  21.225  16.564  0.00  0.00    +0.246 C 
ENDBRANCH   5   6
ENDBRANCH   4   5
ENDBRANCH   9   4
BRANCH  26  27
ATOM     27  C   UNL     1      49.414  19.559  19.646  0.00  0.00    -0.045 C 
ATOM     28  C   UNL     1      48.782  20.563  19.088  0.00  0.00    +0.012 C 
ENDBRANCH  26  27
TORSDOF 5
ENDMDL
MODEL 2
REMARK VINA RESULT:      -5.5      4.168      6.187
REMARK  Name = ZINC85909641
REMARK  7 active torsions:
REMARK  status: ('A' for Active; 'I' for Inactive)
REMARK    1  A    between atoms: C1_1  and  O1_2
REMARK    2  A    between atoms: O1_2  and  C2_3
REMARK    3  A    between atoms: C3_4  and  C4_5
REMARK    4  A    between atoms: C3_4  and  C21_28
REMARK    5  A    between atoms: C18_24  and  C19_26
REMARK    6  A    between atoms: C21_28  and  O3_30
REMARK    7  A    between atoms: O3_30  and  C22_31
REMARK                            x       y       z     vdW  Elec       q    Type
REMARK                         _______ _______ _______ _____ _____    ______ ____
ROOT
ATOM      9  C   UNL     1      45.598  19.038  20.138  0.00  0.00    +0.066 C 
ATOM     10  C   UNL     1      45.494  17.698  19.403  0.00  0.00    +0.049 C 
ATOM     11  C   UNL     1      46.895  17.110  19.236  0.00  0.00    +0.216 C 
ATOM     12  C   UNL     1      46.816  15.798  18.495  0.00  0.00    +0.074 A 
ATOM     13  C   UNL     1      47.677  15.462  17.506  0.00  0.00    -0.155 A 
ATOM     14  C   UNL     1      48.800  16.353  17.039  0.00  0.00    +0.115 C 
ATOM     15  C   UNL     1      49.014  17.446  18.095  0.00  0.00    +0.179 C 
ATOM     16  C   UNL     1      47.296  14.148  17.038  0.00  0.00    -0.100 A 
ATOM     17  C   UNL     1      47.812  13.305  16.048  0.00  0.00    +0.061 A 
ATOM     18  C   UNL     1      47.182  12.098  15.870  0.00  0.00    -0.033 A 
ATOM     19  C   UNL     1      46.085  11.721  16.627  0.00  0.00    +0.019 A 
ATOM     20  C   UNL     1      45.554  12.535  17.613  0.00  0.00    -0.006 A 
ATOM     21  C   UNL     1      46.173  13.766  17.817  0.00  0.00    +0.099 A 
ATOM     22  N   UNL     1      45.915  14.787  18.687  0.00  0.00    -0.580 N 
ATOM     23  H   UNL     1      45.199  14.795  19.342  0.00  0.00    +0.413 HD
ATOM     24  N   UNL     1      47.725  18.045  18.464  0.00  0.00    -0.533 NA
ATOM     25  C   UNL     1      47.888  19.317  19.176  0.00  0.00    +0.193 C 
ATOM     26  C   UNL     1      46.517  19.977  19.354  0.00  0.00    +0.047 C 
ENDROOT
BRANCH   9   4
ATOM      3  C   UNL     1      43.596  20.103  19.152  0.00  0.00    +0.290 C 
ATOM      4  C   UNL     1      44.228  19.656  20.253  0.00  0.00    -0.242 C 
BRANCH   3   2
ATOM      1  C   UNL     1      41.402  20.272  18.277  0.00  0.00    +0.241 C 
ATOM      2  O   UNL     1      42.370  20.655  19.255  0.00  0.00    -0.282 OA
ENDBRANCH   3   2
BRANCH   4   5
ATOM      5  C   UNL     1      43.604  19.766  21.520  0.00  0.00    +0.508 C 
ATOM      8  O   UNL     1      43.999  20.590  22.323  0.00  0.00    -0.503 OA
BRANCH   5   6
ATOM      6  O   UNL     1      42.573  18.955  21.836  0.00  0.00    -0.347 OA
ATOM      7  C   UNL     1      42.888  17.601  22.162  0.00  0.00    +0.246 C 
ENDBRANCH   5   6
ENDBRANCH   4   5
ENDBRANCH   9   4
BRANCH  26  27
ATOM     27  C   UNL     1      46.676  21.271  20.109  0.00  0.00    -0.045 C 
ATOM     28  C   UNL     1      47.532  21.351  21.099  0.00  0.00    +0.012 C 
ENDBRANCH  26  27
TORSDOF 5
ENDMDL
MODEL 3
REMARK VINA RESULT:      -5.4      1.691      2.204
REMARK  Name = ZINC85909641
REMARK  7 active torsions:
REMARK  status: ('A' for Active; 'I' for Inactive)
REMARK    1  A    between atoms: C1_1  and  O1_2
REMARK    2  A    between atoms: O1_2  and  C2_3
REMARK    3  A    between atoms: C3_4  and  C4_5
REMARK    4  A    between atoms: C3_4  and  C21_28
REMARK    5  A    between atoms: C18_24  and  C19_26
REMARK    6  A    between atoms: C21_28  and  O3_30
REMARK    7  A    between atoms: O3_30  and  C22_31
REMARK                            x       y       z     vdW  Elec       q    Type
REMARK                         _______ _______ _______ _____ _____    ______ ____
ROOT
ATOM      9  C   UNL     1      48.878  19.524  18.760  0.00  0.00    +0.066 C 
ATOM     10  C   UNL     1      48.735  18.072  18.292  0.00  0.00    +0.049 C 
ATOM     11  C   UNL     1      47.251  17.706  18.244  0.00  0.00    +0.216 C 
ATOM     12  C   UNL     1      47.090  16.272  17.806  0.00  0.00    +0.074 A 
ATOM     13  C   UNL     1      46.224  15.416  18.399  0.00  0.00    -0.155 A 
ATOM     14  C   UNL     1      45.333  15.799  19.554  0.00  0.00    +0.115 C 
ATOM     15  C   UNL     1      45.302  17.331  19.648  0.00  0.00    +0.179 C 
ATOM     16  C   UNL     1      46.346  14.146  17.718  0.00  0.00    -0.100 A 
ATOM     17  C   UNL     1      45.711  12.912  17.889  0.00  0.00    +0.061 A 
ATOM     18  C   UNL     1      46.085  11.899  17.041  0.00  0.00    -0.033 A 
ATOM     19  C   UNL     1      47.044  12.078  16.057  0.00  0.00    +0.019 A 
ATOM     20  C   UNL     1      47.687  13.289  15.865  0.00  0.00    -0.006 A 
ATOM     21  C   UNL     1      47.327  14.336  16.711  0.00  0.00    +0.099 A 
ATOM     22  N   UNL     1      47.752  15.631  16.795  0.00  0.00    -0.580 N 
ATOM     23  H   UNL     1      48.424  16.037  16.223  0.00  0.00    +0.413 HD
ATOM     24  N   UNL     1      46.670  17.863  19.585  0.00  0.00    -0.533 NA
ATOM     25  C   UNL     1      46.742  19.259  20.031  0.00  0.00    +0.193 C 
ATOM     26  C   UNL     1      48.210  19.684  20.127  0.00  0.00    +0.047 C 
ENDROOT
BRANCH   9   4
ATOM      3  C   UNL     1      50.960  19.809  20.061  0.00  0.00    +0.290 C 
ATOM      4  C   UNL     1      50.339  19.875  18.869  0.00  0.00    -0.242 C 
BRANCH   3   2
ATOM      1  C   UNL     1      52.593  21.347  20.820  0.00  0.00    +0.241 C 
ATOM      2  O   UNL     1      52.267  20.123  20.158  0.00  0.00    -0.282 OA
ENDBRANCH   3   2
BRANCH   4   5
ATOM      5  C   UNL     1      51.060  20.274  17.717  0.00  0.00    +0.508 C 
ATOM      8  O   UNL     1      51.012  21.430  17.340  0.00  0.00    -0.503 OA
BRANCH   5   6
ATOM      6  O   UNL     1      51.799  19.372  17.038  0.00  0.00    -0.347 OA
ATOM      7  C   UNL     1      52.101  19.676  15.676  0.00  0.00    +0.246 C 
ENDBRANCH   5   6
ENDBRANCH   4   5
ENDBRANCH   9   4
BRANCH  26  27
ATOM     27  C   UNL     1      48.288  21.126  20.558  0.00  0.00    -0.045 C 
ATOM     28  C   UNL     1      47.407  21.607  21.401  0.00  0.00    +0.012 C 
ENDBRANCH  26  27
TORSDOF 5
ENDMDL
MODEL 4
REMARK VINA RESULT:      -5.4      3.482      7.406
REMARK  Name = ZINC85909641
REMARK  7 active torsions:
REMARK  status: ('A' for Active; 'I' for Inactive)
REMARK    1  A    between atoms: C1_1  and  O1_2
REMARK    2  A    between atoms: O1_2  and  C2_3
REMARK    3  A    between atoms: C3_4  and  C4_5
REMARK    4  A    between atoms: C3_4  and  C21_28
REMARK    5  A    between atoms: C18_24  and  C19_26
REMARK    6  A    between atoms: C21_28  and  O3_30
REMARK    7  A    between atoms: O3_30  and  C22_31
REMARK                            x       y       z     vdW  Elec       q    Type
REMARK                         _______ _______ _______ _____ _____    ______ ____
ROOT
ATOM      9  C   UNL     1      50.097  13.112  16.045  0.00  0.00    +0.066 C 
ATOM     10  C   UNL     1      50.592  14.543  16.273  0.00  0.00    +0.049 C 
ATOM     11  C   UNL     1      49.868  15.136  17.482  0.00  0.00    +0.216 C 
ATOM     12  C   UNL     1      50.326  16.555  17.709  0.00  0.00    +0.074 A 
ATOM     13  C   UNL     1      49.472  17.564  18.001  0.00  0.00    -0.155 A 
ATOM     14  C   UNL     1      47.980  17.383  18.129  0.00  0.00    +0.115 C 
ATOM     15  C   UNL     1      47.690  15.881  18.263  0.00  0.00    +0.179 C 
ATOM     16  C   UNL     1      50.264  18.765  18.149  0.00  0.00    -0.100 A 
ATOM     17  C   UNL     1      49.934  20.090  18.446  0.00  0.00    +0.061 A 
ATOM     18  C   UNL     1      50.970  20.990  18.507  0.00  0.00    -0.033 A 
ATOM     19  C   UNL     1      52.285  20.615  18.286  0.00  0.00    +0.019 A 
ATOM     20  C   UNL     1      52.640  19.310  17.991  0.00  0.00    -0.006 A 
ATOM     21  C   UNL     1      51.609  18.374  17.923  0.00  0.00    +0.099 A 
ATOM     22  N   UNL     1      51.607  17.034  17.662  0.00  0.00    -0.580 N 
ATOM     23  H   UNL     1      52.395  16.501  17.471  0.00  0.00    +0.413 HD
ATOM     24  N   UNL     1      48.420  15.138  17.228  0.00  0.00    -0.533 NA
ATOM     25  C   UNL     1      47.913  13.770  17.065  0.00  0.00    +0.193 C 
ATOM     26  C   UNL     1      48.580  13.124  15.848  0.00  0.00    +0.047 C 
ENDROOT
BRANCH   9   4
ATOM      3  C   UNL     1      50.642  13.168  13.634  0.00  0.00    +0.290 C 
ATOM      4  C   UNL     1      50.760  12.540  14.818  0.00  0.00    -0.242 C 
BRANCH   3   2
ATOM      1  C   UNL     1      50.754  13.109  11.270  0.00  0.00    +0.241 C 
ATOM      2  O   UNL     1      51.235  12.657  12.537  0.00  0.00    -0.282 OA
ENDBRANCH   3   2
BRANCH   4   5
ATOM      5  C   UNL     1      51.507  11.341  14.911  0.00  0.00    +0.508 C 
ATOM      8  O   UNL     1      51.001  10.281  14.594  0.00  0.00    -0.503 OA
BRANCH   5   6
ATOM      6  O   UNL     1      52.783  11.374  15.351  0.00  0.00    -0.347 OA
ATOM      7  C   UNL     1      53.106  10.542  16.466  0.00  0.00    +0.246 C 
ENDBRANCH   5   6
ENDBRANCH   4   5
ENDBRANCH   9   4
BRANCH  26  27
ATOM     27  C   UNL     1      48.082  11.711  15.693  0.00  0.00    -0.045 C 
ATOM     28  C   UNL     1      47.101  11.448  14.864  0.00  0.00    +0.012 C 
ENDBRANCH  26  27
TORSDOF 5
ENDMDL
MODEL 5
REMARK VINA RESULT:      -5.3      3.781      7.742
REMARK  Name = ZINC85909641
REMARK  7 active torsions:
REMARK  status: ('A' for Active; 'I' for Inactive)
REMARK    1  A    between atoms: C1_1  and  O1_2
REMARK    2  A    between atoms: O1_2  and  C2_3
REMARK    3  A    between atoms: C3_4  and  C4_5
REMARK    4  A    between atoms: C3_4  and  C21_28
REMARK    5  A    between atoms: C18_24  and  C19_26
REMARK    6  A    between atoms: C21_28  and  O3_30
REMARK    7  A    between atoms: O3_30  and  C22_31
REMARK                            x       y       z     vdW  Elec       q    Type
REMARK                         _______ _______ _______ _____ _____    ______ ____
ROOT
ATOM      9  C   UNL     1      51.043  13.017  16.453  0.00  0.00    +0.066 C 
ATOM     10  C   UNL     1      50.985  14.542  16.318  0.00  0.00    +0.049 C 
ATOM     11  C   UNL     1      51.833  15.173  17.423  0.00  0.00    +0.216 C 
ATOM     12  C   UNL     1      51.771  16.677  17.321  0.00  0.00    +0.074 A 
ATOM     13  C   UNL     1      51.618  17.480  18.399  0.00  0.00    -0.155 A 
ATOM     14  C   UNL     1      51.492  16.965  19.811  0.00  0.00    +0.115 C 
ATOM     15  C   UNL     1      51.949  15.499  19.829  0.00  0.00    +0.179 C 
ATOM     16  C   UNL     1      51.603  18.843  17.918  0.00  0.00    -0.100 A 
ATOM     17  C   UNL     1      51.477  20.077  18.563  0.00  0.00    +0.061 A 
ATOM     18  C   UNL     1      51.505  21.198  17.770  0.00  0.00    -0.033 A 
ATOM     19  C   UNL     1      51.652  21.124  16.395  0.00  0.00    +0.019 A 
ATOM     20  C   UNL     1      51.781  19.917  15.731  0.00  0.00    -0.006 A 
ATOM     21  C   UNL     1      51.756  18.761  16.510  0.00  0.00    +0.099 A 
ATOM     22  N   UNL     1      51.856  17.438  16.187  0.00  0.00    -0.580 N 
ATOM     23  H   UNL     1      51.968  17.089  15.288  0.00  0.00    +0.413 HD
ATOM     24  N   UNL     1      51.307  14.762  18.732  0.00  0.00    -0.533 NA
ATOM     25  C   UNL     1      51.407  13.309  18.908  0.00  0.00    +0.193 C 
ATOM     26  C   UNL     1      50.554  12.611  17.844  0.00  0.00    +0.047 C 
ENDROOT
BRANCH   9   4
ATOM      3  C   UNL     1      48.823  12.446  15.528  0.00  0.00    +0.290 C 
ATOM      4  C   UNL     1      50.162  12.386  15.406  0.00  0.00    -0.242 C 
BRANCH   3   2
ATOM      1  C   UNL     1      46.852  11.224  15.050  0.00  0.00    +0.241 C 
ATOM      2  O   UNL     1      48.034  11.883  14.591  0.00  0.00    -0.282 OA
ENDBRANCH   3   2
BRANCH   4   5
ATOM      5  C   UNL     1      50.741  11.730  14.293  0.00  0.00    +0.508 C 
ATOM      8  O   UNL     1      50.715  10.515  14.221  0.00  0.00    -0.503 OA
BRANCH   5   6
ATOM      6  O   UNL     1      51.324  12.452  13.313  0.00  0.00    -0.347 OA
ATOM      7  C   UNL     1      50.465  12.997  12.312  0.00  0.00    +0.246 C 
ENDBRANCH   5   6
ENDBRANCH   4   5
ENDBRANCH   9   4
BRANCH  26  27
ATOM     27  C   UNL     1      50.676  11.118  18.004  0.00  0.00    -0.045 C 
ATOM     28  C   UNL     1      51.860  10.559  18.066  0.00  0.00    +0.012 C 
ENDBRANCH  26  27
TORSDOF 5
ENDMDL
MODEL 6
REMARK VINA RESULT:      -5.2      4.068      6.536
REMARK  Name = ZINC85909641
REMARK  7 active torsions:
REMARK  status: ('A' for Active; 'I' for Inactive)
REMARK    1  A    between atoms: C1_1  and  O1_2
REMARK    2  A    between atoms: O1_2  and  C2_3
REMARK    3  A    between atoms: C3_4  and  C4_5
REMARK    4  A    between atoms: C3_4  and  C21_28
REMARK    5  A    between atoms: C18_24  and  C19_26
REMARK    6  A    between atoms: C21_28  and  O3_30
REMARK    7  A    between atoms: O3_30  and  C22_31
REMARK                            x       y       z     vdW  Elec       q    Type
REMARK                         _______ _______ _______ _____ _____    ______ ____
ROOT
ATOM      9  C   UNL     1      49.592  19.477  19.798  0.00  0.00    +0.066 C 
ATOM     10  C   UNL     1      48.308  20.259  19.500  0.00  0.00    +0.049 C 
ATOM     11  C   UNL     1      47.135  19.583  20.211  0.00  0.00    +0.216 C 
ATOM     12  C   UNL     1      45.857  20.325  19.912  0.00  0.00    +0.074 A 
ATOM     13  C   UNL     1      44.697  19.697  19.608  0.00  0.00    -0.155 A 
ATOM     14  C   UNL     1      44.556  18.198  19.535  0.00  0.00    +0.115 C 
ATOM     15  C   UNL     1      45.776  17.567  20.220  0.00  0.00    +0.179 C 
ATOM     16  C   UNL     1      43.702  20.722  19.386  0.00  0.00    -0.100 A 
ATOM     17  C   UNL     1      42.346  20.673  19.049  0.00  0.00    +0.061 A 
ATOM     18  C   UNL     1      41.695  21.875  18.915  0.00  0.00    -0.033 A 
ATOM     19  C   UNL     1      42.340  23.087  19.103  0.00  0.00    +0.019 A 
ATOM     20  C   UNL     1      43.680  23.165  19.438  0.00  0.00    -0.006 A 
ATOM     21  C   UNL     1      44.367  21.960  19.581  0.00  0.00    +0.099 A 
ATOM     22  N   UNL     1      45.666  21.680  19.898  0.00  0.00    -0.580 N 
ATOM     23  H   UNL     1      46.350  22.342  20.085  0.00  0.00    +0.413 HD
ATOM     24  N   UNL     1      47.007  18.200  19.729  0.00  0.00    -0.533 NA
ATOM     25  C   UNL     1      48.203  17.415  20.056  0.00  0.00    +0.193 C 
ATOM     26  C   UNL     1      49.418  18.025  19.350  0.00  0.00    +0.047 C 
ENDROOT
BRANCH   9   4
ATOM      3  C   UNL     1      50.756  20.094  17.707  0.00  0.00    +0.290 C 
ATOM      4  C   UNL     1      50.744  20.099  19.052  0.00  0.00    -0.242 C 
BRANCH   3   2
ATOM      1  C   UNL     1      52.305  19.926  15.923  0.00  0.00    +0.241 C 
ATOM      2  O   UNL     1      51.786  20.652  17.040  0.00  0.00    -0.282 OA
ENDBRANCH   3   2
BRANCH   4   5
ATOM      5  C   UNL     1      51.814  20.690  19.767  0.00  0.00    +0.508 C 
ATOM      8  O   UNL     1      52.022  21.885  19.674  0.00  0.00    -0.503 OA
BRANCH   5   6
ATOM      6  O   UNL     1      52.605  19.926  20.550  0.00  0.00    -0.347 OA
ATOM      7  C   UNL     1      52.613  20.222  21.947  0.00  0.00    +0.246 C 
ENDBRANCH   5   6
ENDBRANCH   4   5
ENDBRANCH   9   4
BRANCH  26  27
ATOM     27  C   UNL     1      50.652  17.238  19.705  0.00  0.00    -0.045 C 
ATOM     28  C   UNL     1      50.830  16.816  20.934  0.00  0.00    +0.012 C 
ENDBRANCH  26  27
TORSDOF 5
ENDMDL
MODEL 7
REMARK VINA RESULT:      -5.2      3.604      7.449
REMARK  Name = ZINC85909641
REMARK  7 active torsions:
REMARK  status: ('A' for Active; 'I' for Inactive)
REMARK    1  A    between atoms: C1_1  and  O1_2
REMARK    2  A    between atoms: O1_2  and  C2_3
REMARK    3  A    between atoms: C3_4  and  C4_5
REMARK    4  A    between atoms: C3_4  and  C21_28
REMARK    5  A    between atoms: C18_24  and  C19_26
REMARK    6  A    between atoms: C21_28  and  O3_30
REMARK    7  A    between atoms: O3_30  and  C22_31
REMARK                            x       y       z     vdW  Elec       q    Type
REMARK                         _______ _______ _______ _____ _____    ______ ____
ROOT
ATOM      9  C   UNL     1      47.866  14.469  16.896  0.00  0.00    +0.066 C 
ATOM     10  C   UNL     1      47.042  15.613  17.494  0.00  0.00    +0.049 C 
ATOM     11  C   UNL     1      47.784  16.932  17.274  0.00  0.00    +0.216 C 
ATOM     12  C   UNL     1      46.999  18.070  17.876  0.00  0.00    +0.074 A 
ATOM     13  C   UNL     1      47.576  19.056  18.601  0.00  0.00    -0.155 A 
ATOM     14  C   UNL     1      49.055  19.127  18.885  0.00  0.00    +0.115 C 
ATOM     15  C   UNL     1      49.773  18.168  17.924  0.00  0.00    +0.179 C 
ATOM     16  C   UNL     1      46.522  19.958  19.009  0.00  0.00    -0.100 A 
ATOM     17  C   UNL     1      46.518  21.137  19.762  0.00  0.00    +0.061 A 
ATOM     18  C   UNL     1      45.302  21.744  19.957  0.00  0.00    -0.033 A 
ATOM     19  C   UNL     1      44.127  21.225  19.439  0.00  0.00    +0.019 A 
ATOM     20  C   UNL     1      44.102  20.062  18.690  0.00  0.00    -0.006 A 
ATOM     21  C   UNL     1      45.321  19.423  18.474  0.00  0.00    +0.099 A 
ATOM     22  N   UNL     1      45.650  18.284  17.796  0.00  0.00    -0.580 N 
ATOM     23  H   UNL     1      45.021  17.712  17.328  0.00  0.00    +0.413 HD
ATOM     24  N   UNL     1      49.100  16.863  17.925  0.00  0.00    -0.533 NA
ATOM     25  C   UNL     1      49.930  15.811  17.327  0.00  0.00    +0.193 C 
ATOM     26  C   UNL     1      49.254  14.452  17.538  0.00  0.00    +0.047 C 
ENDROOT
BRANCH   9   4
ATOM      3  C   UNL     1      46.950  12.296  16.153  0.00  0.00    +0.290 C 
ATOM      4  C   UNL     1      47.173  13.157  17.162  0.00  0.00    -0.242 C 
BRANCH   3   2
ATOM      1  C   UNL     1      45.426  10.651  15.391  0.00  0.00    +0.241 C 
ATOM      2  O   UNL     1      46.331  11.123  16.392  0.00  0.00    -0.282 OA
ENDBRANCH   3   2
BRANCH   4   5
ATOM      5  C   UNL     1      46.757  12.830  18.476  0.00  0.00    +0.508 C 
ATOM      8  O   UNL     1      47.554  12.365  19.269  0.00  0.00    -0.503 OA
BRANCH   5   6
ATOM      6  O   UNL     1      45.475  13.034  18.847  0.00  0.00    -0.347 OA
ATOM      7  C   UNL     1      45.258  13.613  20.134  0.00  0.00    +0.246 C 
ENDBRANCH   5   6
ENDBRANCH   4   5
ENDBRANCH   9   4
BRANCH  26  27
ATOM     27  C   UNL     1      50.090  13.372  16.901  0.00  0.00    -0.045 C 
ATOM     28  C   UNL     1      50.648  13.578  15.733  0.00  0.00    +0.012 C 
ENDBRANCH  26  27
TORSDOF 5
ENDMDL
MODEL 8
REMARK VINA RESULT:      -5.1      2.571      6.364
REMARK  Name = ZINC85909641
REMARK  7 active torsions:
REMARK  status: ('A' for Active; 'I' for Inactive)
REMARK    1  A    between atoms: C1_1  and  O1_2
REMARK    2  A    between atoms: O1_2  and  C2_3
REMARK    3  A    between atoms: C3_4  and  C4_5
REMARK    4  A    between atoms: C3_4  and  C21_28
REMARK    5  A    between atoms: C18_24  and  C19_26
REMARK    6  A    between atoms: C21_28  and  O3_30
REMARK    7  A    between atoms: O3_30  and  C22_31
REMARK                            x       y       z     vdW  Elec       q    Type
REMARK                         _______ _______ _______ _____ _____    ______ ____
ROOT
ATOM      9  C   UNL     1      50.105  17.122  18.761  0.00  0.00    +0.066 C 
ATOM     10  C   UNL     1      49.471  18.453  19.176  0.00  0.00    +0.049 C 
ATOM     11  C   UNL     1      47.961  18.262  19.323  0.00  0.00    +0.216 C 
ATOM     12  C   UNL     1      47.314  19.568  19.711  0.00  0.00    +0.074 A 
ATOM     13  C   UNL     1      46.164  20.012  19.152  0.00  0.00    -0.155 A 
ATOM     14  C   UNL     1      45.408  19.256  18.087  0.00  0.00    +0.115 C 
ATOM     15  C   UNL     1      45.932  17.814  18.061  0.00  0.00    +0.179 C 
ATOM     16  C   UNL     1      45.853  21.283  19.766  0.00  0.00    -0.100 A 
ATOM     17  C   UNL     1      44.804  22.191  19.592  0.00  0.00    +0.061 A 
ATOM     18  C   UNL     1      44.831  23.326  20.365  0.00  0.00    -0.033 A 
ATOM     19  C   UNL     1      45.844  23.573  21.278  0.00  0.00    +0.019 A 
ATOM     20  C   UNL     1      46.893  22.690  21.471  0.00  0.00    -0.006 A 
ATOM     21  C   UNL     1      46.892  21.529  20.700  0.00  0.00    +0.099 A 
ATOM     22  N   UNL     1      47.754  20.471  20.639  0.00  0.00    -0.580 N 
ATOM     23  H   UNL     1      48.558  20.375  21.173  0.00  0.00    +0.413 HD
ATOM     24  N   UNL     1      47.401  17.815  18.040  0.00  0.00    -0.533 NA
ATOM     25  C   UNL     1      47.951  16.512  17.650  0.00  0.00    +0.193 C 
ATOM     26  C   UNL     1      49.465  16.639  17.458  0.00  0.00    +0.047 C 
ENDROOT
BRANCH   9   4
ATOM      3  C   UNL     1      52.461  16.460  19.114  0.00  0.00    +0.290 C 
ATOM      4  C   UNL     1      51.585  17.314  18.553  0.00  0.00    -0.242 C 
BRANCH   3   2
ATOM      1  C   UNL     1      54.661  15.865  19.756  0.00  0.00    +0.241 C 
ATOM      2  O   UNL     1      53.785  16.631  18.927  0.00  0.00    -0.282 OA
ENDBRANCH   3   2
BRANCH   4   5
ATOM      5  C   UNL     1      52.056  18.394  17.767  0.00  0.00    +0.508 C 
ATOM      8  O   UNL     1      52.572  19.357  18.301  0.00  0.00    -0.503 OA
BRANCH   5   6
ATOM      6  O   UNL     1      51.932  18.354  16.423  0.00  0.00    -0.347 OA
ATOM      7  C   UNL     1      52.025  19.596  15.726  0.00  0.00    +0.246 C 
ENDBRANCH   5   6
ENDBRANCH   4   5
ENDBRANCH   9   4
BRANCH  26  27
ATOM     27  C   UNL     1      50.038  15.297  17.084  0.00  0.00    -0.045 C 
ATOM     28  C   UNL     1      49.636  14.215  17.706  0.00  0.00    +0.012 C 
ENDBRANCH  26  27
TORSDOF 5
ENDMDL
MODEL 9
REMARK VINA RESULT:      -5.1      3.805      7.708
REMARK  Name = ZINC85909641
REMARK  7 active torsions:
REMARK  status: ('A' for Active; 'I' for Inactive)
REMARK    1  A    between atoms: C1_1  and  O1_2
REMARK    2  A    between atoms: O1_2  and  C2_3
REMARK    3  A    between atoms: C3_4  and  C4_5
REMARK    4  A    between atoms: C3_4  and  C21_28
REMARK    5  A    between atoms: C18_24  and  C19_26
REMARK    6  A    between atoms: C21_28  and  O3_30
REMARK    7  A    between atoms: O3_30  and  C22_31
REMARK                            x       y       z     vdW  Elec       q    Type
REMARK                         _______ _______ _______ _____ _____    ______ ____
ROOT
ATOM      9  C   UNL     1      51.221  12.988  16.257  0.00  0.00    +0.066 C 
ATOM     10  C   UNL     1      51.168  14.510  16.096  0.00  0.00    +0.049 C 
ATOM     11  C   UNL     1      51.647  15.166  17.392  0.00  0.00    +0.216 C 
ATOM     12  C   UNL     1      51.581  16.668  17.261  0.00  0.00    +0.074 A 
ATOM     13  C   UNL     1      51.106  17.469  18.243  0.00  0.00    -0.155 A 
ATOM     14  C   UNL     1      50.593  16.954  19.565  0.00  0.00    +0.115 C 
ATOM     15  C   UNL     1      51.062  15.501  19.727  0.00  0.00    +0.179 C 
ATOM     16  C   UNL     1      51.196  18.830  17.765  0.00  0.00    -0.100 A 
ATOM     17  C   UNL     1      50.860  20.062  18.335  0.00  0.00    +0.061 A 
ATOM     18  C   UNL     1      51.088  21.181  17.572  0.00  0.00    -0.033 A 
ATOM     19  C   UNL     1      51.625  21.108  16.297  0.00  0.00    +0.019 A 
ATOM     20  C   UNL     1      51.967  19.903  15.710  0.00  0.00    -0.006 A 
ATOM     21  C   UNL     1      51.748  18.749  16.460  0.00  0.00    +0.099 A 
ATOM     22  N   UNL     1      51.968  17.428  16.192  0.00  0.00    -0.580 N 
ATOM     23  H   UNL     1      52.342  17.080  15.367  0.00  0.00    +0.413 HD
ATOM     24  N   UNL     1      50.778  14.745  18.500  0.00  0.00    -0.533 NA
ATOM     25  C   UNL     1      50.859  13.295  18.711  0.00  0.00    +0.193 C 
ATOM     26  C   UNL     1      50.364  12.573  17.454  0.00  0.00    +0.047 C 
ENDROOT
BRANCH   9   4
ATOM      3  C   UNL     1      51.545  11.893  14.064  0.00  0.00    +0.290 C 
ATOM      4  C   UNL     1      50.692  12.332  15.008  0.00  0.00    -0.242 C 
BRANCH   3   2
ATOM      1  C   UNL     1      51.159  12.055  11.733  0.00  0.00    +0.241 C 
ATOM      2  O   UNL     1      51.072  11.306  12.947  0.00  0.00    -0.282 OA
ENDBRANCH   3   2
BRANCH   4   5
ATOM      5  C   UNL     1      49.296  12.176  14.826  0.00  0.00    +0.508 C 
ATOM      8  O   UNL     1      48.605  13.141  14.564  0.00  0.00    -0.503 OA
BRANCH   5   6
ATOM      6  O   UNL     1      48.734  10.955  14.946  0.00  0.00    -0.347 OA
ATOM      7  C   UNL     1      47.347  10.910  15.283  0.00  0.00    +0.246 C 
ENDBRANCH   5   6
ENDBRANCH   4   5
ENDBRANCH   9   4
BRANCH  26  27
ATOM     27  C   UNL     1      50.471  11.084  17.656  0.00  0.00    -0.045 C 
ATOM     28  C   UNL     1      51.585  10.561  18.109  0.00  0.00    +0.012 C 
ENDBRANCH  26  27
TORSDOF 5
ENDMDL
