MODEL 1
REMARK VINA RESULT:      -6.9      0.000      0.000
REMARK  Name = ZINC95485888
REMARK  18 active torsions:
REMARK  status: ('A' for Active; 'I' for Inactive)
REMARK    1  A    between atoms: C1_1  and  N1_2
REMARK    2  A    between atoms: C6_7  and  O6_51
REMARK    3  A    between atoms: C7_8  and  C19_22
REMARK    4  A    between atoms: C10_11  and  C11_13
REMARK    5  A    between atoms: C11_13  and  C12_14
REMARK    6  A    between atoms: C17_19  and  O1_20
REMARK    7  A    between atoms: O1_20  and  C18_21
REMARK    8  A    between atoms: C19_22  and  C20_23
REMARK    9  A    between atoms: C24_27  and  O3_31
REMARK   10  A    between atoms: C25_28  and  O2_29
REMARK   11  A    between atoms: O2_29  and  C26_30
REMARK   12  A    between atoms: O3_31  and  C27_32
REMARK   13  A    between atoms: C31_37  and  O5_49
REMARK   14  A    between atoms: C32_38  and  O4_47
REMARK   15  A    between atoms: N2_45  and  C38_46
REMARK   16  A    between atoms: O4_47  and  C39_48
REMARK   17  A    between atoms: O5_49  and  C40_50
REMARK   18  A    between atoms: O6_51  and  C41_52
REMARK                            x       y       z     vdW  Elec       q    Type
REMARK                         _______ _______ _______ _____ _____    ______ ____
ROOT
ATOM     12  C   UNL     1      46.831  14.545  17.770  0.00  0.00    -0.061 A 
ATOM     13  C   UNL     1      47.322  13.575  16.896  0.00  0.00    -0.051 A 
ATOM     14  C   UNL     1      47.872  12.423  17.386  0.00  0.00    -0.107 A 
ATOM     15  C   UNL     1      48.464  11.317  16.574  0.00  0.00    +0.301 C 
ATOM     16  C   UNL     1      49.439  11.740  15.530  0.00  0.00    -0.143 A 
ATOM     17  C   UNL     1      50.790  11.484  15.603  0.00  0.00    +0.013 A 
ATOM     18  C   UNL     1      51.622  11.892  14.570  0.00  0.00    +0.108 A 
ATOM     21  C   UNL     1      51.096  12.557  13.465  0.00  0.00    +0.147 A 
ATOM     24  C   UNL     1      49.733  12.821  13.402  0.00  0.00    -0.007 A 
ATOM     25  C   UNL     1      48.923  12.422  14.434  0.00  0.00    -0.071 A 
ATOM     26  C   UNL     1      47.452  12.709  14.507  0.00  0.00    +0.070 C 
ATOM     27  C   UNL     1      46.702  11.439  14.878  0.00  0.00    +0.259 C 
ATOM     28  N   UNL     1      47.345  10.640  15.889  0.00  0.00    -0.376 N 
ATOM     29  H   UNL     1      47.692   9.794  15.461  0.00  0.00    +0.424 HD
ATOM     30  C   UNL     1      46.331  10.277  16.887  0.00  0.00    +0.318 C 
ATOM     31  C   UNL     1      47.916  12.233  18.773  0.00  0.00    -0.058 A 
ATOM     32  C   UNL     1      47.429  13.185  19.642  0.00  0.00    +0.116 A 
ATOM     35  C   UNL     1      47.201  13.869  15.436  0.00  0.00    +0.109 C 
ATOM     36  C   UNL     1      46.887  14.363  19.137  0.00  0.00    +0.122 A 
ENDROOT
BRANCH  18  19
ATOM     19  O   UNL     1      52.957  11.643  14.638  0.00  0.00    -0.297 OA
ATOM     20  C   UNL     1      53.377  10.586  15.503  0.00  0.00    +0.246 C 
ENDBRANCH  18  19
BRANCH  21  22
ATOM     22  O   UNL     1      51.914  12.945  12.451  0.00  0.00    -0.288 OA
ATOM     23  C   UNL     1      51.300  13.207  11.188  0.00  0.00    +0.246 C 
ENDBRANCH  21  22
BRANCH  32  33
ATOM     33  O   UNL     1      47.484  12.978  20.985  0.00  0.00    -0.297 OA
ATOM     34  C   UNL     1      48.702  12.445  21.510  0.00  0.00    +0.244 C 
ENDBRANCH  32  33
BRANCH  36  37
ATOM     37  O   UNL     1      46.413  15.320  19.978  0.00  0.00    -0.291 OA
ATOM     38  C   UNL     1      45.085  15.148  20.476  0.00  0.00    +0.225 C 
ENDBRANCH  36  37
BRANCH  12  11
ATOM     11  C   UNL     1      46.236  15.813  17.212  0.00  0.00    +0.146 C 
BRANCH  11  10
ATOM      1  C   UNL     1      46.051  22.217  20.891  0.00  0.00    +0.189 C 
ATOM      2  N   UNL     1      46.793  21.283  20.032  0.00  0.00    -0.523 NA
ATOM      3  C   UNL     1      48.144  21.041  20.561  0.00  0.00    +0.171 C 
ATOM      4  C   UNL     1      48.982  20.379  19.467  0.00  0.00    +0.086 C 
ATOM      5  C   UNL     1      48.240  19.197  18.895  0.00  0.00    -0.016 A 
ATOM      6  C   UNL     1      48.954  18.262  18.162  0.00  0.00    -0.083 A 
ATOM      7  C   UNL     1      48.310  17.164  17.616  0.00  0.00    +0.146 A 
ATOM     10  C   UNL     1      46.945  17.002  17.804  0.00  0.00    -0.122 A 
ATOM     39  C   UNL     1      46.239  17.933  18.537  0.00  0.00    +0.050 A 
ATOM     40  C   UNL     1      46.885  19.032  19.087  0.00  0.00    -0.111 A 
ATOM     41  C   UNL     1      46.070  20.015  19.887  0.00  0.00    +0.189 C 
BRANCH   7   8
ATOM      8  O   UNL     1      49.012  16.250  16.896  0.00  0.00    -0.281 OA
ATOM      9  C   UNL     1      50.276  15.842  17.423  0.00  0.00    +0.231 C 
ENDBRANCH   7   8
BRANCH  41  42
ATOM     42  C   UNL     1      44.742  20.270  19.172  0.00  0.00    +0.101 C 
BRANCH  42  43
ATOM     43  C   UNL     1      43.611  19.715  20.000  0.00  0.00    -0.114 A 
ATOM     44  C   UNL     1      43.879  19.077  21.195  0.00  0.00    +0.038 A 
ATOM     45  C   UNL     1      42.842  18.567  21.955  0.00  0.00    -0.029 A 
ATOM     46  C   UNL     1      41.536  18.694  21.520  0.00  0.00    +0.047 A 
ATOM     47  C   UNL     1      41.263  19.332  20.326  0.00  0.00    -0.085 A 
ATOM     48  C   UNL     1      42.301  19.849  19.564  0.00  0.00    +0.134 A 
BRANCH  48  49
ATOM     49  O   UNL     1      42.035  20.481  18.390  0.00  0.00    -0.304 OA
ATOM     50  C   UNL     1      40.714  20.995  18.216  0.00  0.00    +0.237 C 
ENDBRANCH  48  49
ENDBRANCH  42  43
ENDBRANCH  41  42
ENDBRANCH  11  10
ENDBRANCH  12  11
TORSDOF 10
ENDMDL
MODEL 2
REMARK VINA RESULT:      -6.8      3.222      8.085
REMARK  Name = ZINC95485888
REMARK  18 active torsions:
REMARK  status: ('A' for Active; 'I' for Inactive)
REMARK    1  A    between atoms: C1_1  and  N1_2
REMARK    2  A    between atoms: C6_7  and  O6_51
REMARK    3  A    between atoms: C7_8  and  C19_22
REMARK    4  A    between atoms: C10_11  and  C11_13
REMARK    5  A    between atoms: C11_13  and  C12_14
REMARK    6  A    between atoms: C17_19  and  O1_20
REMARK    7  A    between atoms: O1_20  and  C18_21
REMARK    8  A    between atoms: C19_22  and  C20_23
REMARK    9  A    between atoms: C24_27  and  O3_31
REMARK   10  A    between atoms: C25_28  and  O2_29
REMARK   11  A    between atoms: O2_29  and  C26_30
REMARK   12  A    between atoms: O3_31  and  C27_32
REMARK   13  A    between atoms: C31_37  and  O5_49
REMARK   14  A    between atoms: C32_38  and  O4_47
REMARK   15  A    between atoms: N2_45  and  C38_46
REMARK   16  A    between atoms: O4_47  and  C39_48
REMARK   17  A    between atoms: O5_49  and  C40_50
REMARK   18  A    between atoms: O6_51  and  C41_52
REMARK                            x       y       z     vdW  Elec       q    Type
REMARK                         _______ _______ _______ _____ _____    ______ ____
ROOT
ATOM     12  C   UNL     1      48.563  14.083  17.156  0.00  0.00    -0.061 A 
ATOM     13  C   UNL     1      48.087  14.968  18.124  0.00  0.00    -0.051 A 
ATOM     14  C   UNL     1      46.902  14.720  18.759  0.00  0.00    -0.107 A 
ATOM     15  C   UNL     1      46.258  15.592  19.788  0.00  0.00    +0.301 C 
ATOM     16  C   UNL     1      46.157  17.036  19.433  0.00  0.00    -0.143 A 
ATOM     17  C   UNL     1      44.967  17.667  19.148  0.00  0.00    +0.013 A 
ATOM     18  C   UNL     1      44.963  19.023  18.853  0.00  0.00    +0.108 A 
ATOM     21  C   UNL     1      46.156  19.742  18.845  0.00  0.00    +0.147 A 
ATOM     24  C   UNL     1      47.355  19.098  19.123  0.00  0.00    -0.007 A 
ATOM     25  C   UNL     1      47.346  17.755  19.403  0.00  0.00    -0.071 A 
ATOM     26  C   UNL     1      48.581  16.941  19.653  0.00  0.00    +0.070 C 
ATOM     27  C   UNL     1      48.385  16.085  20.896  0.00  0.00    +0.259 C 
ATOM     28  N   UNL     1      47.077  15.492  21.012  0.00  0.00    -0.376 N 
ATOM     29  H   UNL     1      46.584  15.940  21.769  0.00  0.00    +0.424 HD
ATOM     30  C   UNL     1      47.257  14.072  21.345  0.00  0.00    +0.318 C 
ATOM     31  C   UNL     1      46.189  13.561  18.430  0.00  0.00    -0.058 A 
ATOM     32  C   UNL     1      46.654  12.680  17.478  0.00  0.00    +0.116 A 
ATOM     35  C   UNL     1      48.940  16.159  18.416  0.00  0.00    +0.109 C 
ATOM     36  C   UNL     1      47.854  12.947  16.823  0.00  0.00    +0.122 A 
ENDROOT
BRANCH  18  19
ATOM     19  O   UNL     1      43.792  19.651  18.569  0.00  0.00    -0.297 OA
ATOM     20  C   UNL     1      42.812  19.697  19.609  0.00  0.00    +0.246 C 
ENDBRANCH  18  19
BRANCH  21  22
ATOM     22  O   UNL     1      46.146  21.073  18.565  0.00  0.00    -0.288 OA
ATOM     23  C   UNL     1      45.933  21.964  19.662  0.00  0.00    +0.246 C 
ENDBRANCH  21  22
BRANCH  32  33
ATOM     33  O   UNL     1      45.944  11.561  17.175  0.00  0.00    -0.297 OA
ATOM     34  C   UNL     1      44.661  11.750  16.573  0.00  0.00    +0.244 C 
ENDBRANCH  32  33
BRANCH  36  37
ATOM     37  O   UNL     1      48.323  12.098  15.871  0.00  0.00    -0.291 OA
ATOM     38  C   UNL     1      47.868  12.307  14.533  0.00  0.00    +0.225 C 
ENDBRANCH  36  37
BRANCH  12  11
ATOM     11  C   UNL     1      49.867  14.376  16.461  0.00  0.00    +0.146 C 
BRANCH  11  10
ATOM      1  C   UNL     1      55.121  16.014  21.389  0.00  0.00    +0.189 C 
ATOM      2  N   UNL     1      54.570  15.066  20.409  0.00  0.00    -0.523 NA
ATOM      3  C   UNL     1      54.490  13.710  20.975  0.00  0.00    +0.171 C 
ATOM      4  C   UNL     1      54.269  12.721  19.832  0.00  0.00    +0.086 C 
ATOM      5  C   UNL     1      53.121  13.180  18.968  0.00  0.00    -0.016 A 
ATOM      6  C   UNL     1      52.534  12.264  18.109  0.00  0.00    -0.083 A 
ATOM      7  C   UNL     1      51.480  12.645  17.296  0.00  0.00    +0.146 A 
ATOM     10  C   UNL     1      51.012  13.951  17.343  0.00  0.00    -0.122 A 
ATOM     39  C   UNL     1      51.597  14.858  18.202  0.00  0.00    +0.050 A 
ATOM     40  C   UNL     1      52.651  14.475  19.019  0.00  0.00    -0.111 A 
ATOM     41  C   UNL     1      53.249  15.502  19.945  0.00  0.00    +0.189 C 
BRANCH   7   8
ATOM      8  O   UNL     1      50.908  11.746  16.453  0.00  0.00    -0.281 OA
ATOM      9  C   UNL     1      51.723  11.239  15.395  0.00  0.00    +0.231 C 
ENDBRANCH   7   8
BRANCH  41  42
ATOM     42  C   UNL     1      53.387  16.832  19.203  0.00  0.00    +0.101 C 
BRANCH  42  43
ATOM     43  C   UNL     1      52.415  17.831  19.778  0.00  0.00    -0.114 A 
ATOM     44  C   UNL     1      52.041  17.745  21.104  0.00  0.00    +0.038 A 
ATOM     45  C   UNL     1      51.148  18.661  21.633  0.00  0.00    -0.029 A 
ATOM     46  C   UNL     1      50.630  19.664  20.834  0.00  0.00    +0.047 A 
ATOM     47  C   UNL     1      51.003  19.754  19.507  0.00  0.00    -0.085 A 
ATOM     48  C   UNL     1      51.901  18.839  18.976  0.00  0.00    +0.134 A 
BRANCH  48  49
ATOM     49  O   UNL     1      52.273  18.929  17.672  0.00  0.00    -0.304 OA
ATOM     50  C   UNL     1      51.293  18.580  16.693  0.00  0.00    +0.237 C 
ENDBRANCH  48  49
ENDBRANCH  42  43
ENDBRANCH  41  42
ENDBRANCH  11  10
ENDBRANCH  12  11
TORSDOF 10
ENDMDL
MODEL 3
REMARK VINA RESULT:      -6.8      4.478      7.515
REMARK  Name = ZINC95485888
REMARK  18 active torsions:
REMARK  status: ('A' for Active; 'I' for Inactive)
REMARK    1  A    between atoms: C1_1  and  N1_2
REMARK    2  A    between atoms: C6_7  and  O6_51
REMARK    3  A    between atoms: C7_8  and  C19_22
REMARK    4  A    between atoms: C10_11  and  C11_13
REMARK    5  A    between atoms: C11_13  and  C12_14
REMARK    6  A    between atoms: C17_19  and  O1_20
REMARK    7  A    between atoms: O1_20  and  C18_21
REMARK    8  A    between atoms: C19_22  and  C20_23
REMARK    9  A    between atoms: C24_27  and  O3_31
REMARK   10  A    between atoms: C25_28  and  O2_29
REMARK   11  A    between atoms: O2_29  and  C26_30
REMARK   12  A    between atoms: O3_31  and  C27_32
REMARK   13  A    between atoms: C31_37  and  O5_49
REMARK   14  A    between atoms: C32_38  and  O4_47
REMARK   15  A    between atoms: N2_45  and  C38_46
REMARK   16  A    between atoms: O4_47  and  C39_48
REMARK   17  A    between atoms: O5_49  and  C40_50
REMARK   18  A    between atoms: O6_51  and  C41_52
REMARK                            x       y       z     vdW  Elec       q    Type
REMARK                         _______ _______ _______ _____ _____    ______ ____
ROOT
ATOM     12  C   UNL     1      51.899  17.195  18.160  0.00  0.00    -0.061 A 
ATOM     13  C   UNL     1      52.414  16.621  19.323  0.00  0.00    -0.051 A 
ATOM     14  C   UNL     1      52.759  17.409  20.384  0.00  0.00    -0.107 A 
ATOM     15  C   UNL     1      53.350  16.937  21.674  0.00  0.00    +0.301 C 
ATOM     16  C   UNL     1      54.511  16.013  21.547  0.00  0.00    -0.143 A 
ATOM     17  C   UNL     1      55.801  16.364  21.878  0.00  0.00    +0.013 A 
ATOM     18  C   UNL     1      56.819  15.429  21.753  0.00  0.00    +0.108 A 
ATOM     21  C   UNL     1      56.540  14.144  21.295  0.00  0.00    +0.147 A 
ATOM     24  C   UNL     1      55.238  13.799  20.952  0.00  0.00    -0.007 A 
ATOM     25  C   UNL     1      54.243  14.735  21.070  0.00  0.00    -0.071 A 
ATOM     26  C   UNL     1      52.816  14.500  20.670  0.00  0.00    +0.070 C 
ATOM     27  C   UNL     1      51.889  14.975  21.779  0.00  0.00    +0.259 C 
ATOM     28  N   UNL     1      52.284  16.215  22.397  0.00  0.00    -0.376 N 
ATOM     29  H   UNL     1      52.602  16.024  23.335  0.00  0.00    +0.424 HD
ATOM     30  C   UNL     1      51.097  17.077  22.472  0.00  0.00    +0.318 C 
ATOM     31  C   UNL     1      52.571  18.793  20.287  0.00  0.00    -0.058 A 
ATOM     32  C   UNL     1      52.059  19.367  19.143  0.00  0.00    +0.116 A 
ATOM     35  C   UNL     1      52.548  15.133  19.329  0.00  0.00    +0.109 C 
ATOM     36  C   UNL     1      51.726  18.560  18.059  0.00  0.00    +0.122 A 
ENDROOT
BRANCH  18  19
ATOM     19  O   UNL     1      58.095  15.770  22.077  0.00  0.00    -0.297 OA
ATOM     20  C   UNL     1      58.878  16.397  21.060  0.00  0.00    +0.246 C 
ENDBRANCH  18  19
BRANCH  21  22
ATOM     22  O   UNL     1      57.539  13.229  21.184  0.00  0.00    -0.288 OA
ATOM     23  C   UNL     1      57.155  11.853  21.134  0.00  0.00    +0.246 C 
ENDBRANCH  21  22
BRANCH  32  33
ATOM     33  O   UNL     1      51.886  20.715  19.072  0.00  0.00    -0.297 OA
ATOM     34  C   UNL     1      52.567  21.508  20.046  0.00  0.00    +0.244 C 
ENDBRANCH  32  33
BRANCH  36  37
ATOM     37  O   UNL     1      51.232  19.108  16.918  0.00  0.00    -0.291 OA
ATOM     38  C   UNL     1      52.181  19.597  15.969  0.00  0.00    +0.225 C 
ENDBRANCH  36  37
BRANCH  12  11
ATOM     11  C   UNL     1      51.531  16.311  16.996  0.00  0.00    +0.146 C 
BRANCH  11  10
ATOM      1  C   UNL     1      44.903  15.657  20.194  0.00  0.00    +0.189 C 
ATOM      2  N   UNL     1      46.092  15.007  19.625  0.00  0.00    -0.523 NA
ATOM      3  C   UNL     1      45.711  13.958  18.666  0.00  0.00    +0.171 C 
ATOM      4  C   UNL     1      46.935  13.085  18.391  0.00  0.00    +0.086 C 
ATOM      5  C   UNL     1      48.116  13.951  18.036  0.00  0.00    -0.016 A 
ATOM      6  C   UNL     1      49.205  13.360  17.413  0.00  0.00    -0.083 A 
ATOM      7  C   UNL     1      50.312  14.120  17.073  0.00  0.00    +0.146 A 
ATOM     10  C   UNL     1      50.330  15.477  17.360  0.00  0.00    -0.122 A 
ATOM     39  C   UNL     1      49.244  16.062  17.977  0.00  0.00    +0.050 A 
ATOM     40  C   UNL     1      48.133  15.302  18.315  0.00  0.00    -0.111 A 
ATOM     41  C   UNL     1      46.969  15.990  18.980  0.00  0.00    +0.189 C 
BRANCH   7   8
ATOM      8  O   UNL     1      51.378  13.538  16.463  0.00  0.00    -0.281 OA
ATOM      9  C   UNL     1      51.190  13.087  15.120  0.00  0.00    +0.231 C 
ENDBRANCH   7   8
BRANCH  41  42
ATOM     42  C   UNL     1      47.495  16.966  20.033  0.00  0.00    +0.101 C 
BRANCH  42  43
ATOM     43  C   UNL     1      47.160  18.377  19.622  0.00  0.00    -0.114 A 
ATOM     44  C   UNL     1      46.113  18.613  18.753  0.00  0.00    +0.038 A 
ATOM     45  C   UNL     1      45.804  19.907  18.374  0.00  0.00    -0.029 A 
ATOM     46  C   UNL     1      46.544  20.968  18.866  0.00  0.00    +0.047 A 
ATOM     47  C   UNL     1      47.591  20.737  19.736  0.00  0.00    -0.085 A 
ATOM     48  C   UNL     1      47.899  19.440  20.121  0.00  0.00    +0.134 A 
BRANCH  48  49
ATOM     49  O   UNL     1      48.926  19.210  20.981  0.00  0.00    -0.304 OA
ATOM     50  C   UNL     1      49.427  20.334  21.707  0.00  0.00    +0.237 C 
ENDBRANCH  48  49
ENDBRANCH  42  43
ENDBRANCH  41  42
ENDBRANCH  11  10
ENDBRANCH  12  11
TORSDOF 10
ENDMDL
MODEL 4
REMARK VINA RESULT:      -6.6      2.498      9.296
REMARK  Name = ZINC95485888
REMARK  18 active torsions:
REMARK  status: ('A' for Active; 'I' for Inactive)
REMARK    1  A    between atoms: C1_1  and  N1_2
REMARK    2  A    between atoms: C6_7  and  O6_51
REMARK    3  A    between atoms: C7_8  and  C19_22
REMARK    4  A    between atoms: C10_11  and  C11_13
REMARK    5  A    between atoms: C11_13  and  C12_14
REMARK    6  A    between atoms: C17_19  and  O1_20
REMARK    7  A    between atoms: O1_20  and  C18_21
REMARK    8  A    between atoms: C19_22  and  C20_23
REMARK    9  A    between atoms: C24_27  and  O3_31
REMARK   10  A    between atoms: C25_28  and  O2_29
REMARK   11  A    between atoms: O2_29  and  C26_30
REMARK   12  A    between atoms: O3_31  and  C27_32
REMARK   13  A    between atoms: C31_37  and  O5_49
REMARK   14  A    between atoms: C32_38  and  O4_47
REMARK   15  A    between atoms: N2_45  and  C38_46
REMARK   16  A    between atoms: O4_47  and  C39_48
REMARK   17  A    between atoms: O5_49  and  C40_50
REMARK   18  A    between atoms: O6_51  and  C41_52
REMARK                            x       y       z     vdW  Elec       q    Type
REMARK                         _______ _______ _______ _____ _____    ______ ____
ROOT
ATOM     12  C   UNL     1      47.648  14.441  20.335  0.00  0.00    -0.061 A 
ATOM     13  C   UNL     1      47.293  15.737  19.962  0.00  0.00    -0.051 A 
ATOM     14  C   UNL     1      48.026  16.804  20.400  0.00  0.00    -0.107 A 
ATOM     15  C   UNL     1      47.745  18.243  20.108  0.00  0.00    +0.301 C 
ATOM     16  C   UNL     1      46.339  18.680  20.337  0.00  0.00    -0.143 A 
ATOM     17  C   UNL     1      45.963  19.526  21.357  0.00  0.00    +0.013 A 
ATOM     18  C   UNL     1      44.633  19.903  21.480  0.00  0.00    +0.108 A 
ATOM     21  C   UNL     1      43.684  19.430  20.577  0.00  0.00    +0.147 A 
ATOM     24  C   UNL     1      44.067  18.569  19.556  0.00  0.00    -0.007 A 
ATOM     25  C   UNL     1      45.383  18.196  19.452  0.00  0.00    -0.071 A 
ATOM     26  C   UNL     1      45.903  17.223  18.434  0.00  0.00    +0.070 C 
ATOM     27  C   UNL     1      47.150  17.792  17.776  0.00  0.00    +0.259 C 
ATOM     28  N   UNL     1      48.051  18.460  18.680  0.00  0.00    -0.376 N 
ATOM     29  H   UNL     1      48.025  19.451  18.491  0.00  0.00    +0.424 HD
ATOM     30  C   UNL     1      49.408  17.968  18.408  0.00  0.00    +0.318 C 
ATOM     31  C   UNL     1      49.142  16.568  21.212  0.00  0.00    -0.058 A 
ATOM     32  C   UNL     1      49.501  15.290  21.583  0.00  0.00    +0.116 A 
ATOM     35  C   UNL     1      46.101  15.872  19.071  0.00  0.00    +0.109 C 
ATOM     36  C   UNL     1      48.740  14.209  21.147  0.00  0.00    +0.122 A 
ENDROOT
BRANCH  18  19
ATOM     19  O   UNL     1      44.256  20.736  22.486  0.00  0.00    -0.297 OA
ATOM     20  C   UNL     1      44.835  22.042  22.498  0.00  0.00    +0.246 C 
ENDBRANCH  18  19
BRANCH  21  22
ATOM     22  O   UNL     1      42.383  19.811  20.696  0.00  0.00    -0.288 OA
ATOM     23  C   UNL     1      41.478  19.344  19.693  0.00  0.00    +0.246 C 
ENDBRANCH  21  22
BRANCH  32  33
ATOM     33  O   UNL     1      50.589  15.087  22.374  0.00  0.00    -0.297 OA
ATOM     34  C   UNL     1      51.507  16.174  22.505  0.00  0.00    +0.244 C 
ENDBRANCH  32  33
BRANCH  36  37
ATOM     37  O   UNL     1      49.070  12.943  21.511  0.00  0.00    -0.291 OA
ATOM     38  C   UNL     1      50.260  12.392  20.943  0.00  0.00    +0.225 C 
ENDBRANCH  36  37
BRANCH  12  11
ATOM     11  C   UNL     1      46.824  13.276  19.849  0.00  0.00    +0.146 C 
BRANCH  11  10
ATOM      1  C   UNL     1      51.851  12.904  14.448  0.00  0.00    +0.189 C 
ATOM      2  N   UNL     1      50.436  12.916  14.848  0.00  0.00    -0.523 NA
ATOM      3  C   UNL     1      49.698  11.815  14.210  0.00  0.00    +0.171 C 
ATOM      4  C   UNL     1      48.201  12.085  14.357  0.00  0.00    +0.086 C 
ATOM      5  C   UNL     1      47.873  12.397  15.795  0.00  0.00    -0.016 A 
ATOM      6  C   UNL     1      46.550  12.318  16.202  0.00  0.00    -0.083 A 
ATOM      7  C   UNL     1      46.205  12.601  17.513  0.00  0.00    +0.146 A 
ATOM     10  C   UNL     1      47.190  12.965  18.421  0.00  0.00    -0.122 A 
ATOM     39  C   UNL     1      48.505  13.039  18.013  0.00  0.00    +0.050 A 
ATOM     40  C   UNL     1      48.851  12.752  16.699  0.00  0.00    -0.111 A 
ATOM     41  C   UNL     1      50.303  12.839  16.306  0.00  0.00    +0.189 C 
BRANCH   7   8
ATOM      8  O   UNL     1      44.908  12.525  17.909  0.00  0.00    -0.281 OA
ATOM      9  C   UNL     1      43.964  12.049  16.948  0.00  0.00    +0.231 C 
ENDBRANCH   7   8
BRANCH  41  42
ATOM     42  C   UNL     1      50.923  14.087  16.937  0.00  0.00    +0.101 C 
BRANCH  42  43
ATOM     43  C   UNL     1      51.970  13.675  17.941  0.00  0.00    -0.114 A 
ATOM     44  C   UNL     1      52.428  12.372  17.966  0.00  0.00    +0.038 A 
ATOM     45  C   UNL     1      53.387  11.993  18.888  0.00  0.00    -0.029 A 
ATOM     46  C   UNL     1      53.890  12.917  19.785  0.00  0.00    +0.047 A 
ATOM     47  C   UNL     1      53.436  14.221  19.763  0.00  0.00    -0.085 A 
ATOM     48  C   UNL     1      52.477  14.605  18.837  0.00  0.00    +0.134 A 
BRANCH  48  49
ATOM     49  O   UNL     1      52.031  15.889  18.809  0.00  0.00    -0.304 OA
ATOM     50  C   UNL     1      52.980  16.911  19.120  0.00  0.00    +0.237 C 
ENDBRANCH  48  49
ENDBRANCH  42  43
ENDBRANCH  41  42
ENDBRANCH  11  10
ENDBRANCH  12  11
TORSDOF 10
ENDMDL
MODEL 5
REMARK VINA RESULT:      -6.5      3.658      8.948
REMARK  Name = ZINC95485888
REMARK  18 active torsions:
REMARK  status: ('A' for Active; 'I' for Inactive)
REMARK    1  A    between atoms: C1_1  and  N1_2
REMARK    2  A    between atoms: C6_7  and  O6_51
REMARK    3  A    between atoms: C7_8  and  C19_22
REMARK    4  A    between atoms: C10_11  and  C11_13
REMARK    5  A    between atoms: C11_13  and  C12_14
REMARK    6  A    between atoms: C17_19  and  O1_20
REMARK    7  A    between atoms: O1_20  and  C18_21
REMARK    8  A    between atoms: C19_22  and  C20_23
REMARK    9  A    between atoms: C24_27  and  O3_31
REMARK   10  A    between atoms: C25_28  and  O2_29
REMARK   11  A    between atoms: O2_29  and  C26_30
REMARK   12  A    between atoms: O3_31  and  C27_32
REMARK   13  A    between atoms: C31_37  and  O5_49
REMARK   14  A    between atoms: C32_38  and  O4_47
REMARK   15  A    between atoms: N2_45  and  C38_46
REMARK   16  A    between atoms: O4_47  and  C39_48
REMARK   17  A    between atoms: O5_49  and  C40_50
REMARK   18  A    between atoms: O6_51  and  C41_52
REMARK                            x       y       z     vdW  Elec       q    Type
REMARK                         _______ _______ _______ _____ _____    ______ ____
ROOT
ATOM     12  C   UNL     1      49.459  18.739  20.743  0.00  0.00    -0.061 A 
ATOM     13  C   UNL     1      48.216  18.509  20.153  0.00  0.00    -0.051 A 
ATOM     14  C   UNL     1      47.876  19.148  18.994  0.00  0.00    -0.107 A 
ATOM     15  C   UNL     1      46.574  19.023  18.271  0.00  0.00    +0.301 C 
ATOM     16  C   UNL     1      45.355  19.179  19.114  0.00  0.00    -0.143 A 
ATOM     17  C   UNL     1      44.510  20.263  19.033  0.00  0.00    +0.013 A 
ATOM     18  C   UNL     1      43.382  20.314  19.839  0.00  0.00    +0.108 A 
ATOM     21  C   UNL     1      43.104  19.275  20.724  0.00  0.00    +0.147 A 
ATOM     24  C   UNL     1      43.966  18.189  20.809  0.00  0.00    -0.007 A 
ATOM     25  C   UNL     1      45.084  18.156  20.014  0.00  0.00    -0.071 A 
ATOM     26  C   UNL     1      46.119  17.070  20.064  0.00  0.00    +0.070 C 
ATOM     27  C   UNL     1      46.441  16.607  18.651  0.00  0.00    +0.259 C 
ATOM     28  N   UNL     1      46.537  17.669  17.682  0.00  0.00    -0.376 N 
ATOM     29  H   UNL     1      45.746  17.610  17.058  0.00  0.00    +0.424 HD
ATOM     30  C   UNL     1      47.764  17.459  16.904  0.00  0.00    +0.318 C 
ATOM     31  C   UNL     1      48.802  20.020  18.407  0.00  0.00    -0.058 A 
ATOM     32  C   UNL     1      50.033  20.250  18.982  0.00  0.00    +0.116 A 
ATOM     35  C   UNL     1      47.317  17.539  20.849  0.00  0.00    +0.109 C 
ATOM     36  C   UNL     1      50.366  19.609  20.172  0.00  0.00    +0.122 A 
ENDROOT
BRANCH  18  19
ATOM     19  O   UNL     1      42.544  21.382  19.765  0.00  0.00    -0.297 OA
ATOM     20  C   UNL     1      41.603  21.395  18.690  0.00  0.00    +0.246 C 
ENDBRANCH  18  19
BRANCH  21  22
ATOM     22  O   UNL     1      41.991  19.324  21.505  0.00  0.00    -0.288 OA
ATOM     23  C   UNL     1      40.844  18.610  21.041  0.00  0.00    +0.246 C 
ENDBRANCH  21  22
BRANCH  32  33
ATOM     33  O   UNL     1      50.914  21.102  18.394  0.00  0.00    -0.297 OA
ATOM     34  C   UNL     1      51.502  20.679  17.162  0.00  0.00    +0.244 C 
ENDBRANCH  32  33
BRANCH  36  37
ATOM     37  O   UNL     1      51.570  19.832  20.762  0.00  0.00    -0.291 OA
ATOM     38  C   UNL     1      51.704  21.028  21.532  0.00  0.00    +0.225 C 
ENDBRANCH  36  37
BRANCH  12  11
ATOM     11  C   UNL     1      49.814  18.032  22.026  0.00  0.00    +0.146 C 
BRANCH  11  10
ATOM      1  C   UNL     1      49.863  10.948  19.927  0.00  0.00    +0.189 C 
ATOM      2  N   UNL     1      50.574  12.084  20.532  0.00  0.00    -0.523 NA
ATOM      3  C   UNL     1      51.907  12.250  19.932  0.00  0.00    +0.171 C 
ATOM      4  C   UNL     1      52.728  13.180  20.824  0.00  0.00    +0.086 C 
ATOM      5  C   UNL     1      51.943  14.431  21.125  0.00  0.00    -0.016 A 
ATOM      6  C   UNL     1      52.624  15.539  21.607  0.00  0.00    -0.083 A 
ATOM      7  C   UNL     1      51.940  16.707  21.899  0.00  0.00    +0.146 A 
ATOM     10  C   UNL     1      50.567  16.766  21.709  0.00  0.00    -0.122 A 
ATOM     39  C   UNL     1      49.894  15.664  21.226  0.00  0.00    +0.050 A 
ATOM     40  C   UNL     1      50.579  14.494  20.930  0.00  0.00    -0.111 A 
ATOM     41  C   UNL     1      49.799  13.321  20.396  0.00  0.00    +0.189 C 
BRANCH   7   8
ATOM      8  O   UNL     1      52.610  17.790  22.373  0.00  0.00    -0.281 OA
ATOM      9  C   UNL     1      54.034  17.693  22.439  0.00  0.00    +0.231 C 
ENDBRANCH   7   8
BRANCH  41  42
ATOM     42  C   UNL     1      48.492  13.186  21.180  0.00  0.00    +0.101 C 
BRANCH  42  43
ATOM     43  C   UNL     1      47.329  13.191  20.221  0.00  0.00    -0.114 A 
ATOM     44  C   UNL     1      47.553  13.074  18.863  0.00  0.00    +0.038 A 
ATOM     45  C   UNL     1      46.486  13.079  17.982  0.00  0.00    -0.029 A 
ATOM     46  C   UNL     1      45.194  13.200  18.459  0.00  0.00    +0.047 A 
ATOM     47  C   UNL     1      44.965  13.316  19.817  0.00  0.00    -0.085 A 
ATOM     48  C   UNL     1      46.033  13.307  20.702  0.00  0.00    +0.134 A 
BRANCH  48  49
ATOM     49  O   UNL     1      45.810  13.415  22.039  0.00  0.00    -0.304 OA
ATOM     50  C   UNL     1      45.256  14.647  22.505  0.00  0.00    +0.237 C 
ENDBRANCH  48  49
ENDBRANCH  42  43
ENDBRANCH  41  42
ENDBRANCH  11  10
ENDBRANCH  12  11
TORSDOF 10
ENDMDL
MODEL 6
REMARK VINA RESULT:      -6.2      3.037      6.087
REMARK  Name = ZINC95485888
REMARK  18 active torsions:
REMARK  status: ('A' for Active; 'I' for Inactive)
REMARK    1  A    between atoms: C1_1  and  N1_2
REMARK    2  A    between atoms: C6_7  and  O6_51
REMARK    3  A    between atoms: C7_8  and  C19_22
REMARK    4  A    between atoms: C10_11  and  C11_13
REMARK    5  A    between atoms: C11_13  and  C12_14
REMARK    6  A    between atoms: C17_19  and  O1_20
REMARK    7  A    between atoms: O1_20  and  C18_21
REMARK    8  A    between atoms: C19_22  and  C20_23
REMARK    9  A    between atoms: C24_27  and  O3_31
REMARK   10  A    between atoms: C25_28  and  O2_29
REMARK   11  A    between atoms: O2_29  and  C26_30
REMARK   12  A    between atoms: O3_31  and  C27_32
REMARK   13  A    between atoms: C31_37  and  O5_49
REMARK   14  A    between atoms: C32_38  and  O4_47
REMARK   15  A    between atoms: N2_45  and  C38_46
REMARK   16  A    between atoms: O4_47  and  C39_48
REMARK   17  A    between atoms: O5_49  and  C40_50
REMARK   18  A    between atoms: O6_51  and  C41_52
REMARK                            x       y       z     vdW  Elec       q    Type
REMARK                         _______ _______ _______ _____ _____    ______ ____
ROOT
ATOM     12  C   UNL     1      51.069  14.357  20.744  0.00  0.00    -0.061 A 
ATOM     13  C   UNL     1      50.991  13.391  19.741  0.00  0.00    -0.051 A 
ATOM     14  C   UNL     1      51.912  13.371  18.732  0.00  0.00    -0.107 A 
ATOM     15  C   UNL     1      51.933  12.419  17.579  0.00  0.00    +0.301 C 
ATOM     16  C   UNL     1      50.638  12.255  16.860  0.00  0.00    -0.143 A 
ATOM     17  C   UNL     1      50.415  12.720  15.583  0.00  0.00    +0.013 A 
ATOM     18  C   UNL     1      49.185  12.499  14.979  0.00  0.00    +0.108 A 
ATOM     21  C   UNL     1      48.182  11.811  15.659  0.00  0.00    +0.147 A 
ATOM     24  C   UNL     1      48.411  11.354  16.951  0.00  0.00    -0.007 A 
ATOM     25  C   UNL     1      49.626  11.588  17.541  0.00  0.00    -0.071 A 
ATOM     26  C   UNL     1      49.966  11.200  18.950  0.00  0.00    +0.070 C 
ATOM     27  C   UNL     1      51.318  10.505  18.977  0.00  0.00    +0.259 C 
ATOM     28  N   UNL     1      52.312  11.098  18.119  0.00  0.00    -0.376 N 
ATOM     29  H   UNL     1      52.490  10.473  17.348  0.00  0.00    +0.424 HD
ATOM     30  C   UNL     1      53.548  11.244  18.898  0.00  0.00    +0.318 C 
ATOM     31  C   UNL     1      52.937  14.325  18.735  0.00  0.00    -0.058 A 
ATOM     32  C   UNL     1      53.023  15.281  19.724  0.00  0.00    +0.116 A 
ATOM     35  C   UNL     1      49.873  12.406  19.850  0.00  0.00    +0.109 C 
ATOM     36  C   UNL     1      52.071  15.306  20.739  0.00  0.00    +0.122 A 
ENDROOT
BRANCH  18  19
ATOM     19  O   UNL     1      48.958  12.957  13.720  0.00  0.00    -0.297 OA
ATOM     20  C   UNL     1      50.056  12.917  12.806  0.00  0.00    +0.246 C 
ENDBRANCH  18  19
BRANCH  21  22
ATOM     22  O   UNL     1      46.983  11.588  15.058  0.00  0.00    -0.288 OA
ATOM     23  C   UNL     1      46.055  10.753  15.755  0.00  0.00    +0.246 C 
ENDBRANCH  21  22
BRANCH  32  33
ATOM     33  O   UNL     1      54.027  16.197  19.704  0.00  0.00    -0.297 OA
ATOM     34  C   UNL     1      55.334  15.735  20.051  0.00  0.00    +0.244 C 
ENDBRANCH  32  33
BRANCH  36  37
ATOM     37  O   UNL     1      52.131  16.248  21.717  0.00  0.00    -0.291 OA
ATOM     38  C   UNL     1      52.063  17.615  21.306  0.00  0.00    +0.225 C 
ENDBRANCH  36  37
BRANCH  12  11
ATOM     11  C   UNL     1      50.040  14.369  21.845  0.00  0.00    +0.146 C 
BRANCH  11  10
ATOM      1  C   UNL     1      46.617  19.768  18.142  0.00  0.00    +0.189 C 
ATOM      2  N   UNL     1      46.535  18.650  19.092  0.00  0.00    -0.523 NA
ATOM      3  C   UNL     1      45.436  17.737  18.739  0.00  0.00    +0.171 C 
ATOM      4  C   UNL     1      45.162  16.823  19.932  0.00  0.00    +0.086 C 
ATOM      5  C   UNL     1      46.449  16.202  20.411  0.00  0.00    -0.016 A 
ATOM      6  C   UNL     1      46.379  15.088  21.233  0.00  0.00    -0.083 A 
ATOM      7  C   UNL     1      47.538  14.490  21.699  0.00  0.00    +0.146 A 
ATOM     10  C   UNL     1      48.773  15.011  21.341  0.00  0.00    -0.122 A 
ATOM     39  C   UNL     1      48.839  16.118  20.521  0.00  0.00    +0.050 A 
ATOM     40  C   UNL     1      47.678  16.716  20.051  0.00  0.00    -0.111 A 
ATOM     41  C   UNL     1      47.804  17.917  19.151  0.00  0.00    +0.189 C 
BRANCH   7   8
ATOM      8  O   UNL     1      47.467  13.399  22.505  0.00  0.00    -0.281 OA
ATOM      9  C   UNL     1      46.346  12.531  22.323  0.00  0.00    +0.231 C 
ENDBRANCH   7   8
BRANCH  41  42
ATOM     42  C   UNL     1      48.896  18.841  19.692  0.00  0.00    +0.101 C 
BRANCH  42  43
ATOM     43  C   UNL     1      49.983  18.992  18.659  0.00  0.00    -0.114 A 
ATOM     44  C   UNL     1      50.013  18.156  17.560  0.00  0.00    +0.038 A 
ATOM     45  C   UNL     1      51.011  18.293  16.612  0.00  0.00    -0.029 A 
ATOM     46  C   UNL     1      51.981  19.268  16.762  0.00  0.00    +0.047 A 
ATOM     47  C   UNL     1      51.954  20.107  17.859  0.00  0.00    -0.085 A 
ATOM     48  C   UNL     1      50.952  19.974  18.809  0.00  0.00    +0.134 A 
BRANCH  48  49
ATOM     49  O   UNL     1      50.921  20.802  19.887  0.00  0.00    -0.304 OA
ATOM     50  C   UNL     1      52.136  21.474  20.222  0.00  0.00    +0.237 C 
ENDBRANCH  48  49
ENDBRANCH  42  43
ENDBRANCH  41  42
ENDBRANCH  11  10
ENDBRANCH  12  11
TORSDOF 10
ENDMDL
MODEL 7
REMARK VINA RESULT:      -6.2      2.625      3.958
REMARK  Name = ZINC95485888
REMARK  18 active torsions:
REMARK  status: ('A' for Active; 'I' for Inactive)
REMARK    1  A    between atoms: C1_1  and  N1_2
REMARK    2  A    between atoms: C6_7  and  O6_51
REMARK    3  A    between atoms: C7_8  and  C19_22
REMARK    4  A    between atoms: C10_11  and  C11_13
REMARK    5  A    between atoms: C11_13  and  C12_14
REMARK    6  A    between atoms: C17_19  and  O1_20
REMARK    7  A    between atoms: O1_20  and  C18_21
REMARK    8  A    between atoms: C19_22  and  C20_23
REMARK    9  A    between atoms: C24_27  and  O3_31
REMARK   10  A    between atoms: C25_28  and  O2_29
REMARK   11  A    between atoms: O2_29  and  C26_30
REMARK   12  A    between atoms: O3_31  and  C27_32
REMARK   13  A    between atoms: C31_37  and  O5_49
REMARK   14  A    between atoms: C32_38  and  O4_47
REMARK   15  A    between atoms: N2_45  and  C38_46
REMARK   16  A    between atoms: O4_47  and  C39_48
REMARK   17  A    between atoms: O5_49  and  C40_50
REMARK   18  A    between atoms: O6_51  and  C41_52
REMARK                            x       y       z     vdW  Elec       q    Type
REMARK                         _______ _______ _______ _____ _____    ______ ____
ROOT
ATOM     12  C   UNL     1      47.671  16.269  18.190  0.00  0.00    -0.061 A 
ATOM     13  C   UNL     1      48.845  15.517  18.180  0.00  0.00    -0.051 A 
ATOM     14  C   UNL     1      48.896  14.312  18.824  0.00  0.00    -0.107 A 
ATOM     15  C   UNL     1      50.090  13.418  18.923  0.00  0.00    +0.301 C 
ATOM     16  C   UNL     1      51.354  14.082  19.347  0.00  0.00    -0.143 A 
ATOM     17  C   UNL     1      51.952  13.870  20.569  0.00  0.00    +0.013 A 
ATOM     18  C   UNL     1      53.145  14.512  20.869  0.00  0.00    +0.108 A 
ATOM     21  C   UNL     1      53.736  15.365  19.941  0.00  0.00    +0.147 A 
ATOM     24  C   UNL     1      53.124  15.583  18.713  0.00  0.00    -0.007 A 
ATOM     25  C   UNL     1      51.939  14.952  18.433  0.00  0.00    -0.071 A 
ATOM     26  C   UNL     1      51.154  15.159  17.171  0.00  0.00    +0.070 C 
ATOM     27  C   UNL     1      50.744  13.812  16.596  0.00  0.00    +0.259 C 
ATOM     28  N   UNL     1      50.314  12.850  17.579  0.00  0.00    -0.376 N 
ATOM     29  H   UNL     1      51.011  12.123  17.648  0.00  0.00    +0.424 HD
ATOM     30  C   UNL     1      49.060  12.252  17.103  0.00  0.00    +0.318 C 
ATOM     31  C   UNL     1      47.748  13.847  19.476  0.00  0.00    -0.058 A 
ATOM     32  C   UNL     1      46.582  14.583  19.488  0.00  0.00    +0.116 A 
ATOM     35  C   UNL     1      50.002  16.095  17.432  0.00  0.00    +0.109 C 
ATOM     36  C   UNL     1      46.543  15.817  18.844  0.00  0.00    +0.122 A 
ENDROOT
BRANCH  18  19
ATOM     19  O   UNL     1      53.738  14.307  22.075  0.00  0.00    -0.297 OA
ATOM     20  C   UNL     1      54.424  13.067  22.259  0.00  0.00    +0.246 C 
ENDBRANCH  18  19
BRANCH  21  22
ATOM     22  O   UNL     1      54.911  15.983  20.237  0.00  0.00    -0.288 OA
ATOM     23  C   UNL     1      56.083  15.493  19.582  0.00  0.00    +0.246 C 
ENDBRANCH  21  22
BRANCH  32  33
ATOM     33  O   UNL     1      45.480  14.110  20.129  0.00  0.00    -0.297 OA
ATOM     34  C   UNL     1      45.690  13.458  21.383  0.00  0.00    +0.244 C 
ENDBRANCH  32  33
BRANCH  36  37
ATOM     37  O   UNL     1      45.408  16.564  18.855  0.00  0.00    -0.291 OA
ATOM     38  C   UNL     1      44.780  16.772  20.121  0.00  0.00    +0.225 C 
ENDBRANCH  36  37
BRANCH  12  11
ATOM     11  C   UNL     1      47.635  17.599  17.481  0.00  0.00    +0.146 C 
BRANCH  11  10
ATOM      1  C   UNL     1      44.719  22.538  22.137  0.00  0.00    +0.189 C 
ATOM      2  N   UNL     1      45.884  22.067  21.374  0.00  0.00    -0.523 NA
ATOM      3  C   UNL     1      47.080  21.997  22.228  0.00  0.00    +0.171 C 
ATOM      4  C   UNL     1      48.310  21.865  21.331  0.00  0.00    +0.086 C 
ATOM      5  C   UNL     1      48.104  20.751  20.336  0.00  0.00    -0.016 A 
ATOM      6  C   UNL     1      49.213  20.237  19.682  0.00  0.00    -0.083 A 
ATOM      7  C   UNL     1      49.067  19.216  18.757  0.00  0.00    +0.146 A 
ATOM     10  C   UNL     1      47.804  18.708  18.486  0.00  0.00    -0.122 A 
ATOM     39  C   UNL     1      46.704  19.220  19.142  0.00  0.00    +0.050 A 
ATOM     40  C   UNL     1      46.850  20.241  20.071  0.00  0.00    -0.111 A 
ATOM     41  C   UNL     1      45.618  20.759  20.765  0.00  0.00    +0.189 C 
BRANCH   7   8
ATOM      8  O   UNL     1      50.155  18.715  18.117  0.00  0.00    -0.281 OA
ATOM      9  C   UNL     1      51.434  19.024  18.673  0.00  0.00    +0.231 C 
ENDBRANCH   7   8
BRANCH  41  42
ATOM     42  C   UNL     1      44.485  20.897  19.748  0.00  0.00    +0.101 C 
BRANCH  42  43
ATOM     43  C   UNL     1      43.268  20.161  20.248  0.00  0.00    -0.114 A 
ATOM     44  C   UNL     1      43.361  19.353  21.365  0.00  0.00    +0.038 A 
ATOM     45  C   UNL     1      42.246  18.676  21.824  0.00  0.00    -0.029 A 
ATOM     46  C   UNL     1      41.035  18.807  21.168  0.00  0.00    +0.047 A 
ATOM     47  C   UNL     1      40.938  19.615  20.051  0.00  0.00    -0.085 A 
ATOM     48  C   UNL     1      42.054  20.298  19.591  0.00  0.00    +0.134 A 
BRANCH  48  49
ATOM     49  O   UNL     1      41.960  21.098  18.495  0.00  0.00    -0.304 OA
ATOM     50  C   UNL     1      40.785  21.902  18.380  0.00  0.00    +0.237 C 
ENDBRANCH  48  49
ENDBRANCH  42  43
ENDBRANCH  41  42
ENDBRANCH  11  10
ENDBRANCH  12  11
TORSDOF 10
ENDMDL
MODEL 8
REMARK VINA RESULT:      -6.0      2.501      5.560
REMARK  Name = ZINC95485888
REMARK  18 active torsions:
REMARK  status: ('A' for Active; 'I' for Inactive)
REMARK    1  A    between atoms: C1_1  and  N1_2
REMARK    2  A    between atoms: C6_7  and  O6_51
REMARK    3  A    between atoms: C7_8  and  C19_22
REMARK    4  A    between atoms: C10_11  and  C11_13
REMARK    5  A    between atoms: C11_13  and  C12_14
REMARK    6  A    between atoms: C17_19  and  O1_20
REMARK    7  A    between atoms: O1_20  and  C18_21
REMARK    8  A    between atoms: C19_22  and  C20_23
REMARK    9  A    between atoms: C24_27  and  O3_31
REMARK   10  A    between atoms: C25_28  and  O2_29
REMARK   11  A    between atoms: O2_29  and  C26_30
REMARK   12  A    between atoms: O3_31  and  C27_32
REMARK   13  A    between atoms: C31_37  and  O5_49
REMARK   14  A    between atoms: C32_38  and  O4_47
REMARK   15  A    between atoms: N2_45  and  C38_46
REMARK   16  A    between atoms: O4_47  and  C39_48
REMARK   17  A    between atoms: O5_49  and  C40_50
REMARK   18  A    between atoms: O6_51  and  C41_52
REMARK                            x       y       z     vdW  Elec       q    Type
REMARK                         _______ _______ _______ _____ _____    ______ ____
ROOT
ATOM     12  C   UNL     1      46.296  16.323  18.640  0.00  0.00    -0.061 A 
ATOM     13  C   UNL     1      46.688  15.092  18.114  0.00  0.00    -0.051 A 
ATOM     14  C   UNL     1      46.462  13.941  18.815  0.00  0.00    -0.107 A 
ATOM     15  C   UNL     1      46.855  12.562  18.391  0.00  0.00    +0.301 C 
ATOM     16  C   UNL     1      48.265  12.409  17.935  0.00  0.00    -0.143 A 
ATOM     17  C   UNL     1      49.223  11.721  18.646  0.00  0.00    +0.013 A 
ATOM     18  C   UNL     1      50.507  11.607  18.132  0.00  0.00    +0.108 A 
ATOM     21  C   UNL     1      50.826  12.183  16.905  0.00  0.00    +0.147 A 
ATOM     24  C   UNL     1      49.858  12.885  16.197  0.00  0.00    -0.007 A 
ATOM     25  C   UNL     1      48.596  13.000  16.721  0.00  0.00    -0.071 A 
ATOM     26  C   UNL     1      47.489  13.786  16.082  0.00  0.00    +0.070 C 
ATOM     27  C   UNL     1      46.217  12.952  16.059  0.00  0.00    +0.259 C 
ATOM     28  N   UNL     1      45.980  12.193  17.261  0.00  0.00    -0.376 N 
ATOM     29  H   UNL     1      46.111  11.214  17.057  0.00  0.00    +0.424 HD
ATOM     30  C   UNL     1      44.582  12.405  17.657  0.00  0.00    +0.318 C 
ATOM     31  C   UNL     1      45.819  14.021  20.056  0.00  0.00    -0.058 A 
ATOM     32  C   UNL     1      45.425  15.233  20.581  0.00  0.00    +0.116 A 
ATOM     35  C   UNL     1      47.342  15.119  16.771  0.00  0.00    +0.109 C 
ATOM     36  C   UNL     1      45.674  16.403  19.869  0.00  0.00    +0.122 A 
ENDROOT
BRANCH  18  19
ATOM     19  O   UNL     1      51.457  10.930  18.830  0.00  0.00    -0.297 OA
ATOM     20  C   UNL     1      51.456  11.088  20.250  0.00  0.00    +0.246 C 
ENDBRANCH  18  19
BRANCH  21  22
ATOM     22  O   UNL     1      52.083  12.059  16.401  0.00  0.00    -0.288 OA
ATOM     23  C   UNL     1      52.239  12.256  14.994  0.00  0.00    +0.246 C 
ENDBRANCH  21  22
BRANCH  32  33
ATOM     33  O   UNL     1      44.803  15.286  21.789  0.00  0.00    -0.297 OA
ATOM     34  C   UNL     1      44.669  14.056  22.504  0.00  0.00    +0.244 C 
ENDBRANCH  32  33
BRANCH  36  37
ATOM     37  O   UNL     1      45.305  17.610  20.376  0.00  0.00    -0.291 OA
ATOM     38  C   UNL     1      43.953  18.018  20.161  0.00  0.00    +0.225 C 
ENDBRANCH  36  37
BRANCH  12  11
ATOM     11  C   UNL     1      46.561  17.583  17.857  0.00  0.00    +0.146 C 
BRANCH  11  10
ATOM      1  C   UNL     1      52.623  18.519  21.974  0.00  0.00    +0.189 C 
ATOM      2  N   UNL     1      51.335  19.043  21.499  0.00  0.00    -0.523 NA
ATOM      3  C   UNL     1      51.475  20.425  21.013  0.00  0.00    +0.171 C 
ATOM      4  C   UNL     1      50.081  21.037  20.881  0.00  0.00    +0.086 C 
ATOM      5  C   UNL     1      49.186  20.114  20.095  0.00  0.00    -0.016 A 
ATOM      6  C   UNL     1      48.013  20.628  19.562  0.00  0.00    -0.083 A 
ATOM      7  C   UNL     1      47.160  19.813  18.836  0.00  0.00    +0.146 A 
ATOM     10  C   UNL     1      47.483  18.477  18.643  0.00  0.00    -0.122 A 
ATOM     39  C   UNL     1      48.652  17.971  19.171  0.00  0.00    +0.050 A 
ATOM     40  C   UNL     1      49.509  18.788  19.896  0.00  0.00    -0.111 A 
ATOM     41  C   UNL     1      50.777  18.189  20.445  0.00  0.00    +0.189 C 
BRANCH   7   8
ATOM      8  O   UNL     1      46.011  20.319  18.317  0.00  0.00    -0.281 OA
ATOM      9  C   UNL     1      45.374  21.366  19.051  0.00  0.00    +0.231 C 
ENDBRANCH   7   8
BRANCH  41  42
ATOM     42  C   UNL     1      50.473  16.806  21.024  0.00  0.00    +0.101 C 
BRANCH  42  43
ATOM     43  C   UNL     1      51.548  15.838  20.601  0.00  0.00    -0.114 A 
ATOM     44  C   UNL     1      52.496  15.418  21.513  0.00  0.00    +0.038 A 
ATOM     45  C   UNL     1      53.484  14.529  21.127  0.00  0.00    -0.029 A 
ATOM     46  C   UNL     1      53.523  14.059  19.826  0.00  0.00    +0.047 A 
ATOM     47  C   UNL     1      52.576  14.476  18.911  0.00  0.00    -0.085 A 
ATOM     48  C   UNL     1      51.582  15.364  19.298  0.00  0.00    +0.134 A 
BRANCH  48  49
ATOM     49  O   UNL     1      50.646  15.771  18.400  0.00  0.00    -0.304 OA
ATOM     50  C   UNL     1      51.118  16.196  17.120  0.00  0.00    +0.237 C 
ENDBRANCH  48  49
ENDBRANCH  42  43
ENDBRANCH  41  42
ENDBRANCH  11  10
ENDBRANCH  12  11
TORSDOF 10
ENDMDL
MODEL 9
REMARK VINA RESULT:      -5.9      2.360      9.337
REMARK  Name = ZINC95485888
REMARK  18 active torsions:
REMARK  status: ('A' for Active; 'I' for Inactive)
REMARK    1  A    between atoms: C1_1  and  N1_2
REMARK    2  A    between atoms: C6_7  and  O6_51
REMARK    3  A    between atoms: C7_8  and  C19_22
REMARK    4  A    between atoms: C10_11  and  C11_13
REMARK    5  A    between atoms: C11_13  and  C12_14
REMARK    6  A    between atoms: C17_19  and  O1_20
REMARK    7  A    between atoms: O1_20  and  C18_21
REMARK    8  A    between atoms: C19_22  and  C20_23
REMARK    9  A    between atoms: C24_27  and  O3_31
REMARK   10  A    between atoms: C25_28  and  O2_29
REMARK   11  A    between atoms: O2_29  and  C26_30
REMARK   12  A    between atoms: O3_31  and  C27_32
REMARK   13  A    between atoms: C31_37  and  O5_49
REMARK   14  A    between atoms: C32_38  and  O4_47
REMARK   15  A    between atoms: N2_45  and  C38_46
REMARK   16  A    between atoms: O4_47  and  C39_48
REMARK   17  A    between atoms: O5_49  and  C40_50
REMARK   18  A    between atoms: O6_51  and  C41_52
REMARK                            x       y       z     vdW  Elec       q    Type
REMARK                         _______ _______ _______ _____ _____    ______ ____
ROOT
ATOM     12  C   UNL     1      49.791  16.506  19.728  0.00  0.00    -0.061 A 
ATOM     13  C   UNL     1      48.440  16.663  19.420  0.00  0.00    -0.051 A 
ATOM     14  C   UNL     1      48.059  17.482  18.394  0.00  0.00    -0.107 A 
ATOM     15  C   UNL     1      46.653  17.770  17.974  0.00  0.00    +0.301 C 
ATOM     16  C   UNL     1      45.722  18.149  19.073  0.00  0.00    -0.143 A 
ATOM     17  C   UNL     1      45.206  19.416  19.229  0.00  0.00    +0.013 A 
ATOM     18  C   UNL     1      44.323  19.674  20.267  0.00  0.00    +0.108 A 
ATOM     21  C   UNL     1      43.958  18.658  21.147  0.00  0.00    +0.147 A 
ATOM     24  C   UNL     1      44.489  17.384  20.992  0.00  0.00    -0.007 A 
ATOM     25  C   UNL     1      45.370  17.144  19.968  0.00  0.00    -0.071 A 
ATOM     26  C   UNL     1      46.057  15.830  19.739  0.00  0.00    +0.070 C 
ATOM     27  C   UNL     1      45.947  15.444  18.272  0.00  0.00    +0.259 C 
ATOM     28  N   UNL     1      46.129  16.538  17.352  0.00  0.00    -0.376 N 
ATOM     29  H   UNL     1      45.243  16.747  16.917  0.00  0.00    +0.424 HD
ATOM     30  C   UNL     1      47.068  16.098  16.312  0.00  0.00    +0.318 C 
ATOM     31  C   UNL     1      49.048  18.141  17.653  0.00  0.00    -0.058 A 
ATOM     32  C   UNL     1      50.386  17.987  17.949  0.00  0.00    +0.116 A 
ATOM     35  C   UNL     1      47.471  15.893  20.257  0.00  0.00    +0.109 C 
ATOM     36  C   UNL     1      50.765  17.166  19.007  0.00  0.00    +0.122 A 
ENDROOT
BRANCH  18  19
ATOM     19  O   UNL     1      43.812  20.924  20.427  0.00  0.00    -0.297 OA
ATOM     20  C   UNL     1      43.153  21.505  19.300  0.00  0.00    +0.246 C 
ENDBRANCH  18  19
BRANCH  21  22
ATOM     22  O   UNL     1      43.084  18.913  22.157  0.00  0.00    -0.288 OA
ATOM     23  C   UNL     1      41.694  18.757  21.865  0.00  0.00    +0.246 C 
ENDBRANCH  21  22
BRANCH  32  33
ATOM     33  O   UNL     1      51.328  18.639  17.216  0.00  0.00    -0.297 OA
ATOM     34  C   UNL     1      51.320  20.067  17.271  0.00  0.00    +0.244 C 
ENDBRANCH  32  33
BRANCH  36  37
ATOM     37  O   UNL     1      52.078  17.011  19.322  0.00  0.00    -0.291 OA
ATOM     38  C   UNL     1      52.637  17.944  20.249  0.00  0.00    +0.225 C 
ENDBRANCH  36  37
BRANCH  12  11
ATOM     11  C   UNL     1      50.192  15.605  20.868  0.00  0.00    +0.146 C 
BRANCH  11  10
ATOM      1  C   UNL     1      52.385  11.133  15.413  0.00  0.00    +0.189 C 
ATOM      2  N   UNL     1      51.707  11.296  16.707  0.00  0.00    -0.523 NA
ATOM      3  C   UNL     1      52.194  10.309  17.684  0.00  0.00    +0.171 C 
ATOM      4  C   UNL     1      51.223  10.277  18.864  0.00  0.00    +0.086 C 
ATOM      5  C   UNL     1      50.969  11.677  19.361  0.00  0.00    -0.016 A 
ATOM      6  C   UNL     1      50.417  11.840  20.622  0.00  0.00    -0.083 A 
ATOM      7  C   UNL     1      50.164  13.109  21.115  0.00  0.00    +0.146 A 
ATOM     10  C   UNL     1      50.466  14.221  20.341  0.00  0.00    -0.122 A 
ATOM     39  C   UNL     1      51.018  14.055  19.089  0.00  0.00    +0.050 A 
ATOM     40  C   UNL     1      51.275  12.783  18.596  0.00  0.00    -0.111 A 
ATOM     41  C   UNL     1      51.887  12.656  17.225  0.00  0.00    +0.189 C 
BRANCH   7   8
ATOM      8  O   UNL     1      49.621  13.266  22.351  0.00  0.00    -0.281 OA
ATOM      9  C   UNL     1      48.247  12.907  22.505  0.00  0.00    +0.231 C 
ENDBRANCH   7   8
BRANCH  41  42
ATOM     42  C   UNL     1      51.216  13.651  16.278  0.00  0.00    +0.101 C 
BRANCH  42  43
ATOM     43  C   UNL     1      49.867  13.119  15.865  0.00  0.00    -0.114 A 
ATOM     44  C   UNL     1      48.894  12.889  16.818  0.00  0.00    +0.038 A 
ATOM     45  C   UNL     1      47.656  12.400  16.441  0.00  0.00    -0.029 A 
ATOM     46  C   UNL     1      47.390  12.140  15.109  0.00  0.00    +0.047 A 
ATOM     47  C   UNL     1      48.359  12.370  14.152  0.00  0.00    -0.085 A 
ATOM     48  C   UNL     1      49.600  12.864  14.528  0.00  0.00    +0.134 A 
BRANCH  48  49
ATOM     49  O   UNL     1      50.555  13.096  13.587  0.00  0.00    -0.304 OA
ATOM     50  C   UNL     1      50.117  13.199  12.232  0.00  0.00    +0.237 C 
ENDBRANCH  48  49
ENDBRANCH  42  43
ENDBRANCH  41  42
ENDBRANCH  11  10
ENDBRANCH  12  11
TORSDOF 10
ENDMDL
