MODEL 1
REMARK VINA RESULT:      -5.0      0.000      0.000
REMARK  Name = ZINC00120283
REMARK  0 active torsions:
REMARK  status: ('A' for Active; 'I' for Inactive)
REMARK                            x       y       z     vdW  Elec       q    Type
REMARK                         _______ _______ _______ _____ _____    ______ ____
ROOT
ATOM      1  C   UNL     1      42.168  19.441  19.611  0.00  0.00    +0.162 A 
ATOM      2  C   UNL     1      41.007  19.691  18.955  0.00  0.00    -0.079 A 
ATOM      3  C   UNL     1      40.684  21.013  18.578  0.00  0.00    +0.511 A 
ATOM      4  O   UNL     1      41.499  22.043  18.849  0.00  0.00    -0.270 OA
ATOM      5  C   UNL     1      42.671  21.865  19.499  0.00  0.00    +0.170 A 
ATOM      6  C   UNL     1      43.493  22.946  19.765  0.00  0.00    +0.025 A 
ATOM      7  C   UNL     1      44.696  22.760  20.432  0.00  0.00    +0.107 A 
ATOM      8  O   UNL     1      45.674  23.604  20.818  0.00  0.00    -0.189 OA
ATOM      9  C   UNL     1      46.662  22.941  21.444  0.00  0.00    +0.230 A 
ATOM     10  C   UNL     1      46.381  21.632  21.500  0.00  0.00    -0.036 A 
ATOM     11  C   UNL     1      45.079  21.465  20.838  0.00  0.00    -0.153 A 
ATOM     12  C   UNL     1      44.262  20.374  20.575  0.00  0.00    +0.150 A 
ATOM     13  O   UNL     1      39.638  21.222  17.990  0.00  0.00    -0.457 OA
ATOM     14  C   UNL     1      43.056  20.570  19.905  0.00  0.00    -0.171 A 
ENDROOT
TORSDOF 0
ENDMDL
MODEL 2
REMARK VINA RESULT:      -4.9      1.522      5.293
REMARK  Name = ZINC00120283
REMARK  0 active torsions:
REMARK  status: ('A' for Active; 'I' for Inactive)
REMARK                            x       y       z     vdW  Elec       q    Type
REMARK                         _______ _______ _______ _____ _____    ______ ____
ROOT
ATOM      1  C   UNL     1      45.089  23.172  20.557  0.00  0.00    +0.162 A 
ATOM      2  C   UNL     1      46.189  22.666  21.171  0.00  0.00    -0.079 A 
ATOM      3  C   UNL     1      46.307  21.272  21.364  0.00  0.00    +0.511 A 
ATOM      4  O   UNL     1      45.356  20.420  20.954  0.00  0.00    -0.270 OA
ATOM      5  C   UNL     1      44.235  20.855  20.335  0.00  0.00    +0.170 A 
ATOM      6  C   UNL     1      43.270  19.954  19.921  0.00  0.00    +0.025 A 
ATOM      7  C   UNL     1      42.122  20.404  19.286  0.00  0.00    +0.107 A 
ATOM      8  O   UNL     1      41.040  19.774  18.787  0.00  0.00    -0.189 OA
ATOM      9  C   UNL     1      40.173  20.654  18.255  0.00  0.00    +0.230 A 
ATOM     10  C   UNL     1      40.643  21.902  18.380  0.00  0.00    -0.036 A 
ATOM     11  C   UNL     1      41.939  21.784  19.062  0.00  0.00    -0.153 A 
ATOM     12  C   UNL     1      42.901  22.697  19.473  0.00  0.00    +0.150 A 
ATOM     13  O   UNL     1      47.299  20.834  21.917  0.00  0.00    -0.457 OA
ATOM     14  C   UNL     1      44.052  22.236  20.110  0.00  0.00    -0.171 A 
ENDROOT
TORSDOF 0
ENDMDL
MODEL 3
REMARK VINA RESULT:      -4.9      0.808      4.911
REMARK  Name = ZINC00120283
REMARK  0 active torsions:
REMARK  status: ('A' for Active; 'I' for Inactive)
REMARK                            x       y       z     vdW  Elec       q    Type
REMARK                         _______ _______ _______ _____ _____    ______ ____
ROOT
ATOM      1  C   UNL     1      45.550  20.536  20.984  0.00  0.00    +0.162 A 
ATOM      2  C   UNL     1      46.435  21.469  21.418  0.00  0.00    -0.079 A 
ATOM      3  C   UNL     1      46.160  22.841  21.225  0.00  0.00    +0.511 A 
ATOM      4  O   UNL     1      45.039  23.257  20.620  0.00  0.00    -0.270 OA
ATOM      5  C   UNL     1      44.114  22.383  20.163  0.00  0.00    +0.170 A 
ATOM      6  C   UNL     1      42.965  22.841  19.543  0.00  0.00    +0.025 A 
ATOM      7  C   UNL     1      42.018  21.940  19.076  0.00  0.00    +0.107 A 
ATOM      8  O   UNL     1      40.835  22.092  18.448  0.00  0.00    -0.189 OA
ATOM      9  C   UNL     1      40.269  20.899  18.193  0.00  0.00    +0.230 A 
ATOM     10  C   UNL     1      41.052  19.908  18.639  0.00  0.00    -0.036 A 
ATOM     11  C   UNL     1      42.230  20.555  19.235  0.00  0.00    -0.153 A 
ATOM     12  C   UNL     1      43.379  20.085  19.856  0.00  0.00    +0.150 A 
ATOM     13  O   UNL     1      46.964  23.666  21.620  0.00  0.00    -0.457 OA
ATOM     14  C   UNL     1      44.325  20.997  20.323  0.00  0.00    -0.171 A 
ENDROOT
TORSDOF 0
ENDMDL
MODEL 4
REMARK VINA RESULT:      -4.8     20.885     22.430
REMARK  Name = ZINC00120283
REMARK  0 active torsions:
REMARK  status: ('A' for Active; 'I' for Inactive)
REMARK                            x       y       z     vdW  Elec       q    Type
REMARK                         _______ _______ _______ _____ _____    ______ ____
ROOT
ATOM      1  C   UNL     1      57.182  33.788   5.658  0.00  0.00    +0.162 A 
ATOM      2  C   UNL     1      58.014  33.135   4.807  0.00  0.00    -0.079 A 
ATOM      3  C   UNL     1      57.485  32.206   3.884  0.00  0.00    +0.511 A 
ATOM      4  O   UNL     1      56.171  31.945   3.819  0.00  0.00    -0.270 OA
ATOM      5  C   UNL     1      55.287  32.560   4.636  0.00  0.00    +0.170 A 
ATOM      6  C   UNL     1      53.936  32.273   4.547  0.00  0.00    +0.025 A 
ATOM      7  C   UNL     1      53.032  32.906   5.388  0.00  0.00    +0.107 A 
ATOM      8  O   UNL     1      51.693  32.828   5.524  0.00  0.00    -0.189 OA
ATOM      9  C   UNL     1      51.259  33.653   6.494  0.00  0.00    +0.230 A 
ATOM     10  C   UNL     1      52.290  34.311   7.040  0.00  0.00    -0.036 A 
ATOM     11  C   UNL     1      53.492  33.845   6.334  0.00  0.00    -0.153 A 
ATOM     12  C   UNL     1      54.845  34.140   6.431  0.00  0.00    +0.150 A 
ATOM     13  O   UNL     1      58.243  31.628   3.127  0.00  0.00    -0.457 OA
ATOM     14  C   UNL     1      55.747  33.499   5.583  0.00  0.00    -0.171 A 
ENDROOT
TORSDOF 0
ENDMDL
MODEL 5
REMARK VINA RESULT:      -4.8      1.312      2.072
REMARK  Name = ZINC00120283
REMARK  0 active torsions:
REMARK  status: ('A' for Active; 'I' for Inactive)
REMARK                            x       y       z     vdW  Elec       q    Type
REMARK                         _______ _______ _______ _____ _____    ______ ____
ROOT
ATOM      1  C   UNL     1      41.471  22.444  18.783  0.00  0.00    +0.162 A 
ATOM      2  C   UNL     1      40.642  21.529  18.219  0.00  0.00    -0.079 A 
ATOM      3  C   UNL     1      41.022  20.170  18.173  0.00  0.00    +0.511 A 
ATOM      4  O   UNL     1      42.191  19.748  18.676  0.00  0.00    -0.270 OA
ATOM      5  C   UNL     1      43.064  20.604  19.253  0.00  0.00    +0.170 A 
ATOM      6  C   UNL     1      44.263  20.140  19.766  0.00  0.00    +0.025 A 
ATOM      7  C   UNL     1      45.156  21.022  20.357  0.00  0.00    +0.107 A 
ATOM      8  O   UNL     1      46.367  20.861  20.927  0.00  0.00    -0.189 OA
ATOM      9  C   UNL     1      46.852  22.035  21.368  0.00  0.00    +0.230 A 
ATOM     10  C   UNL     1      45.985  23.022  21.109  0.00  0.00    -0.036 A 
ATOM     11  C   UNL     1      44.839  22.394  20.435  0.00  0.00    -0.153 A 
ATOM     12  C   UNL     1      43.639  22.869  19.925  0.00  0.00    +0.150 A 
ATOM     13  O   UNL     1      40.268  19.362  17.664  0.00  0.00    -0.457 OA
ATOM     14  C   UNL     1      42.747  21.976  19.332  0.00  0.00    -0.171 A 
ENDROOT
TORSDOF 0
ENDMDL
MODEL 6
REMARK VINA RESULT:      -4.7      6.182      8.268
REMARK  Name = ZINC00120283
REMARK  0 active torsions:
REMARK  status: ('A' for Active; 'I' for Inactive)
REMARK                            x       y       z     vdW  Elec       q    Type
REMARK                         _______ _______ _______ _____ _____    ______ ____
ROOT
ATOM      1  C   UNL     1      51.535  20.877  16.990  0.00  0.00    +0.162 A 
ATOM      2  C   UNL     1      52.093  20.060  16.062  0.00  0.00    -0.079 A 
ATOM      3  C   UNL     1      51.741  18.693  16.028  0.00  0.00    +0.511 A 
ATOM      4  O   UNL     1      50.861  18.169  16.894  0.00  0.00    -0.270 OA
ATOM      5  C   UNL     1      50.267  18.926  17.844  0.00  0.00    +0.170 A 
ATOM      6  C   UNL     1      49.361  18.360  18.723  0.00  0.00    +0.025 A 
ATOM      7  C   UNL     1      48.754  19.141  19.697  0.00  0.00    +0.107 A 
ATOM      8  O   UNL     1      47.856  18.869  20.666  0.00  0.00    -0.189 OA
ATOM      9  C   UNL     1      47.563  19.975  21.374  0.00  0.00    +0.230 A 
ATOM     10  C   UNL     1      48.254  21.023  20.905  0.00  0.00    -0.036 A 
ATOM     11  C   UNL     1      49.061  20.514  19.788  0.00  0.00    -0.153 A 
ATOM     12  C   UNL     1      49.968  21.091  18.910  0.00  0.00    +0.150 A 
ATOM     13  O   UNL     1      52.249  17.971  15.189  0.00  0.00    -0.457 OA
ATOM     14  C   UNL     1      50.574  20.300  17.934  0.00  0.00    -0.171 A 
ENDROOT
TORSDOF 0
ENDMDL
MODEL 7
REMARK VINA RESULT:      -4.7     20.918     22.175
REMARK  Name = ZINC00120283
REMARK  0 active torsions:
REMARK  status: ('A' for Active; 'I' for Inactive)
REMARK                            x       y       z     vdW  Elec       q    Type
REMARK                         _______ _______ _______ _____ _____    ______ ____
ROOT
ATOM      1  C   UNL     1      52.432  32.901   5.045  0.00  0.00    +0.162 A 
ATOM      2  C   UNL     1      51.813  33.695   5.955  0.00  0.00    -0.079 A 
ATOM      3  C   UNL     1      52.581  34.517   6.808  0.00  0.00    +0.511 A 
ATOM      4  O   UNL     1      53.921  34.538   6.748  0.00  0.00    -0.270 OA
ATOM      5  C   UNL     1      54.602  33.773   5.866  0.00  0.00    +0.170 A 
ATOM      6  C   UNL     1      55.985  33.816   5.825  0.00  0.00    +0.025 A 
ATOM      7  C   UNL     1      56.680  33.029   4.918  0.00  0.00    +0.107 A 
ATOM      8  O   UNL     1      57.993  32.867   4.657  0.00  0.00    -0.189 OA
ATOM      9  C   UNL     1      58.181  31.977   3.667  0.00  0.00    +0.230 A 
ATOM     10  C   UNL     1      57.003  31.511   3.231  0.00  0.00    -0.036 A 
ATOM     11  C   UNL     1      55.974  32.184   4.037  0.00  0.00    -0.153 A 
ATOM     12  C   UNL     1      54.587  32.134   4.069  0.00  0.00    +0.150 A 
ATOM     13  O   UNL     1      52.012  35.224   7.619  0.00  0.00    -0.457 OA
ATOM     14  C   UNL     1      53.896  32.928   4.984  0.00  0.00    -0.171 A 
ENDROOT
TORSDOF 0
ENDMDL
MODEL 8
REMARK VINA RESULT:      -4.7     21.450     22.493
REMARK  Name = ZINC00120283
REMARK  0 active torsions:
REMARK  status: ('A' for Active; 'I' for Inactive)
REMARK                            x       y       z     vdW  Elec       q    Type
REMARK                         _______ _______ _______ _____ _____    ______ ____
ROOT
ATOM      1  C   UNL     1      39.831  34.672  -0.385  0.00  0.00    +0.162 A 
ATOM      2  C   UNL     1      38.563  34.336  -0.036  0.00  0.00    -0.079 A 
ATOM      3  C   UNL     1      38.320  33.700   1.201  0.00  0.00    +0.511 A 
ATOM      4  O   UNL     1      39.314  33.415   2.055  0.00  0.00    -0.270 OA
ATOM      5  C   UNL     1      40.600  33.722   1.772  0.00  0.00    +0.170 A 
ATOM      6  C   UNL     1      41.606  33.417   2.672  0.00  0.00    +0.025 A 
ATOM      7  C   UNL     1      42.925  33.735   2.378  0.00  0.00    +0.107 A 
ATOM      8  O   UNL     1      44.083  33.562   3.046  0.00  0.00    -0.189 OA
ATOM      9  C   UNL     1      45.122  34.044   2.340  0.00  0.00    +0.230 A 
ATOM     10  C   UNL     1      44.696  34.555   1.177  0.00  0.00    -0.036 A 
ATOM     11  C   UNL     1      43.238  34.369   1.159  0.00  0.00    -0.153 A 
ATOM     12  C   UNL     1      42.236  34.680   0.249  0.00  0.00    +0.150 A 
ATOM     13  O   UNL     1      37.178  33.404   1.500  0.00  0.00    -0.457 OA
ATOM     14  C   UNL     1      40.914  34.358   0.553  0.00  0.00    -0.171 A 
ENDROOT
TORSDOF 0
ENDMDL
MODEL 9
REMARK VINA RESULT:      -4.6      5.888      7.630
REMARK  Name = ZINC00120283
REMARK  0 active torsions:
REMARK  status: ('A' for Active; 'I' for Inactive)
REMARK                            x       y       z     vdW  Elec       q    Type
REMARK                         _______ _______ _______ _____ _____    ______ ____
ROOT
ATOM      1  C   UNL     1      48.613  20.920  20.302  0.00  0.00    +0.162 A 
ATOM      2  C   UNL     1      47.783  20.149  21.049  0.00  0.00    -0.079 A 
ATOM      3  C   UNL     1      47.681  18.766  20.784  0.00  0.00    +0.511 A 
ATOM      4  O   UNL     1      48.388  18.182  19.806  0.00  0.00    -0.270 OA
ATOM      5  C   UNL     1      49.234  18.889  19.024  0.00  0.00    +0.170 A 
ATOM      6  C   UNL     1      49.952  18.260  18.022  0.00  0.00    +0.025 A 
ATOM      7  C   UNL     1      50.820  18.990  17.222  0.00  0.00    +0.107 A 
ATOM      8  O   UNL     1      51.628  18.654  16.197  0.00  0.00    -0.189 OA
ATOM      9  C   UNL     1      52.289  19.729  15.733  0.00  0.00    +0.230 A 
ATOM     10  C   UNL     1      51.946  20.821  16.429  0.00  0.00    -0.036 A 
ATOM     11  C   UNL     1      50.969  20.376  17.432  0.00  0.00    -0.153 A 
ATOM     12  C   UNL     1      50.254  21.017  18.435  0.00  0.00    +0.150 A 
ATOM     13  O   UNL     1      46.931  18.088  21.462  0.00  0.00    -0.457 OA
ATOM     14  C   UNL     1      49.384  20.276  19.234  0.00  0.00    -0.171 A 
ENDROOT
TORSDOF 0
ENDMDL
