MODEL 1
REMARK VINA RESULT:      -5.0      0.000      0.000
REMARK  Name = ZINC43617259
REMARK  18 active torsions:
REMARK  status: ('A' for Active; 'I' for Inactive)
REMARK    1  A    between atoms: C1_1  and  C2_2
REMARK    2  A    between atoms: C2_2  and  C3_3
REMARK    3  A    between atoms: C3_3  and  C4_4
REMARK    4  A    between atoms: C4_4  and  C5_5
REMARK    5  A    between atoms: C5_5  and  C6_6
REMARK    6  A    between atoms: C6_6  and  C7_7
REMARK    7  A    between atoms: C7_7  and  C8_8
REMARK    8  A    between atoms: C8_8  and  C9_9
REMARK    9  A    between atoms: C9_9  and  C10_10
REMARK   10  A    between atoms: C10_10  and  C11_12
REMARK   11  A    between atoms: C10_10  and  O3_24
REMARK   12  A    between atoms: C12_13  and  C13_14
REMARK   13  A    between atoms: C14_15  and  C15_16
REMARK   14  A    between atoms: C15_16  and  C16_18
REMARK   15  A    between atoms: C15_16  and  O1_20
REMARK   16  A    between atoms: C16_18  and  C17_19
REMARK   17  A    between atoms: O1_20  and  C18_21
REMARK   18  A    between atoms: C18_21  and  C19_23
REMARK                            x       y       z     vdW  Elec       q    Type
REMARK                         _______ _______ _______ _____ _____    ______ ____
ROOT
ATOM     10  C   UNL     1      45.252  19.957  19.208  0.00  0.00    +0.349 C 
ENDROOT
BRANCH  10  11
ATOM     11  O   UNL     1      44.784  19.328  18.013  0.00  0.00    -0.544 OA
ATOM     12  H   UNL     1      45.262  19.595  17.215  0.00  0.00    +0.382 HD
ENDBRANCH  10  11
BRANCH  10  13
ATOM     13  C   UNL     1      46.698  20.207  19.096  0.00  0.00    -0.147 C 
ATOM     14  C   UNL     1      47.852  20.407  19.008  0.00  0.00    -0.063 C 
BRANCH  14  15
ATOM     15  C   UNL     1      49.205  20.641  18.904  0.00  0.00    -0.042 C 
ATOM     16  C   UNL     1      50.358  20.840  18.816  0.00  0.00    -0.125 C 
BRANCH  16  17
ATOM     17  C   UNL     1      51.804  21.090  18.705  0.00  0.00    +0.320 C 
BRANCH  17  22
ATOM     22  C   UNL     1      52.328  21.650  20.029  0.00  0.00    +0.032 C 
ATOM     23  C   UNL     1      52.316  20.547  21.090  0.00  0.00    +0.030 C 
ENDBRANCH  17  22
BRANCH  17  18
ATOM     18  O   UNL     1      52.478  19.866  18.406  0.00  0.00    -0.343 OA
BRANCH  18  19
ATOM     19  C   UNL     1      52.197  19.287  17.228  0.00  0.00    +0.462 C 
ATOM     20  C   UNL     1      52.216  20.105  15.963  0.00  0.00    +0.162 C 
ATOM     21  O   UNL     1      51.927  18.110  17.182  0.00  0.00    -0.503 OA
ENDBRANCH  18  19
ENDBRANCH  17  18
ENDBRANCH  16  17
ENDBRANCH  14  15
ENDBRANCH  10  13
BRANCH  10   9
ATOM      9  C   UNL     1      44.983  19.042  20.405  0.00  0.00    +0.004 C 
BRANCH   9   8
ATOM      8  C   UNL     1      44.530  19.885  21.598  0.00  0.00    +0.021 C 
BRANCH   8   7
ATOM      7  C   UNL     1      43.272  19.266  22.212  0.00  0.00    +0.002 C 
BRANCH   7   6
ATOM      6  C   UNL     1      42.543  18.437  21.153  0.00  0.00    +0.003 C 
BRANCH   6   5
ATOM      5  C   UNL     1      41.222  19.120  20.791  0.00  0.00    +0.000 C 
BRANCH   5   4
ATOM      4  C   UNL     1      41.263  19.568  19.328  0.00  0.00    +0.000 C 
BRANCH   4   3
ATOM      3  C   UNL     1      41.819  20.990  19.245  0.00  0.00    -0.001 C 
BRANCH   3   2
ATOM      1  C   UNL     1      39.423  21.414  18.677  0.00  0.00    +0.006 C 
ATOM      2  C   UNL     1      40.864  21.864  18.429  0.00  0.00    -0.006 C 
ENDBRANCH   3   2
ENDBRANCH   4   3
ENDBRANCH   5   4
ENDBRANCH   6   5
ENDBRANCH   7   6
ENDBRANCH   8   7
ENDBRANCH   9   8
ENDBRANCH  10   9
TORSDOF 15
ENDMDL
MODEL 2
REMARK VINA RESULT:      -5.0      1.392      3.018
REMARK  Name = ZINC43617259
REMARK  18 active torsions:
REMARK  status: ('A' for Active; 'I' for Inactive)
REMARK    1  A    between atoms: C1_1  and  C2_2
REMARK    2  A    between atoms: C2_2  and  C3_3
REMARK    3  A    between atoms: C3_3  and  C4_4
REMARK    4  A    between atoms: C4_4  and  C5_5
REMARK    5  A    between atoms: C5_5  and  C6_6
REMARK    6  A    between atoms: C6_6  and  C7_7
REMARK    7  A    between atoms: C7_7  and  C8_8
REMARK    8  A    between atoms: C8_8  and  C9_9
REMARK    9  A    between atoms: C9_9  and  C10_10
REMARK   10  A    between atoms: C10_10  and  C11_12
REMARK   11  A    between atoms: C10_10  and  O3_24
REMARK   12  A    between atoms: C12_13  and  C13_14
REMARK   13  A    between atoms: C14_15  and  C15_16
REMARK   14  A    between atoms: C15_16  and  C16_18
REMARK   15  A    between atoms: C15_16  and  O1_20
REMARK   16  A    between atoms: C16_18  and  C17_19
REMARK   17  A    between atoms: O1_20  and  C18_21
REMARK   18  A    between atoms: C18_21  and  C19_23
REMARK                            x       y       z     vdW  Elec       q    Type
REMARK                         _______ _______ _______ _____ _____    ______ ____
ROOT
ATOM     10  C   UNL     1      44.108  21.390  19.621  0.00  0.00    +0.349 C 
ENDROOT
BRANCH  10  11
ATOM     11  O   UNL     1      43.721  22.695  19.186  0.00  0.00    -0.544 OA
ATOM     12  H   UNL     1      43.444  22.734  18.260  0.00  0.00    +0.382 HD
ENDBRANCH  10  11
BRANCH  10  13
ATOM     13  C   UNL     1      45.553  21.209  19.406  0.00  0.00    -0.147 C 
ATOM     14  C   UNL     1      46.706  21.065  19.235  0.00  0.00    -0.063 C 
BRANCH  14  15
ATOM     15  C   UNL     1      48.057  20.896  19.034  0.00  0.00    -0.042 C 
ATOM     16  C   UNL     1      49.209  20.753  18.863  0.00  0.00    -0.125 C 
BRANCH  16  17
ATOM     17  C   UNL     1      50.654  20.573  18.648  0.00  0.00    +0.320 C 
BRANCH  17  22
ATOM     22  C   UNL     1      51.371  20.537  19.999  0.00  0.00    +0.032 C 
ATOM     23  C   UNL     1      52.486  21.584  20.013  0.00  0.00    +0.030 C 
ENDBRANCH  17  22
BRANCH  17  18
ATOM     18  O   UNL     1      50.883  19.344  17.954  0.00  0.00    -0.343 OA
BRANCH  18  19
ATOM     19  C   UNL     1      51.480  19.423  16.754  0.00  0.00    +0.462 C 
ATOM     20  C   UNL     1      51.856  20.768  16.187  0.00  0.00    +0.162 C 
ATOM     21  O   UNL     1      51.715  18.416  16.129  0.00  0.00    -0.503 OA
ENDBRANCH  18  19
ENDBRANCH  17  18
ENDBRANCH  16  17
ENDBRANCH  14  15
ENDBRANCH  10  13
BRANCH  10   9
ATOM      9  C   UNL     1      43.337  20.337  18.823  0.00  0.00    +0.004 C 
BRANCH   9   8
ATOM      8  C   UNL     1      41.845  20.453  19.133  0.00  0.00    +0.021 C 
BRANCH   8   7
ATOM      7  C   UNL     1      41.324  19.110  19.650  0.00  0.00    +0.002 C 
BRANCH   7   6
ATOM      6  C   UNL     1      41.299  19.126  21.179  0.00  0.00    +0.003 C 
BRANCH   6   5
ATOM      5  C   UNL     1      42.332  18.134  21.717  0.00  0.00    +0.000 C 
BRANCH   5   4
ATOM      4  C   UNL     1      43.522  18.900  22.299  0.00  0.00    +0.000 C 
BRANCH   4   3
ATOM      3  C   UNL     1      44.820  18.359  21.700  0.00  0.00    -0.001 C 
BRANCH   3   2
ATOM      1  C   UNL     1      45.429  17.403  19.473  0.00  0.00    +0.006 C 
ATOM      2  C   UNL     1      44.495  17.268  20.677  0.00  0.00    -0.006 C 
ENDBRANCH   3   2
ENDBRANCH   4   3
ENDBRANCH   5   4
ENDBRANCH   6   5
ENDBRANCH   7   6
ENDBRANCH   8   7
ENDBRANCH   9   8
ENDBRANCH  10   9
TORSDOF 15
ENDMDL
MODEL 3
REMARK VINA RESULT:      -5.0      2.692      8.193
REMARK  Name = ZINC43617259
REMARK  18 active torsions:
REMARK  status: ('A' for Active; 'I' for Inactive)
REMARK    1  A    between atoms: C1_1  and  C2_2
REMARK    2  A    between atoms: C2_2  and  C3_3
REMARK    3  A    between atoms: C3_3  and  C4_4
REMARK    4  A    between atoms: C4_4  and  C5_5
REMARK    5  A    between atoms: C5_5  and  C6_6
REMARK    6  A    between atoms: C6_6  and  C7_7
REMARK    7  A    between atoms: C7_7  and  C8_8
REMARK    8  A    between atoms: C8_8  and  C9_9
REMARK    9  A    between atoms: C9_9  and  C10_10
REMARK   10  A    between atoms: C10_10  and  C11_12
REMARK   11  A    between atoms: C10_10  and  O3_24
REMARK   12  A    between atoms: C12_13  and  C13_14
REMARK   13  A    between atoms: C14_15  and  C15_16
REMARK   14  A    between atoms: C15_16  and  C16_18
REMARK   15  A    between atoms: C15_16  and  O1_20
REMARK   16  A    between atoms: C16_18  and  C17_19
REMARK   17  A    between atoms: O1_20  and  C18_21
REMARK   18  A    between atoms: C18_21  and  C19_23
REMARK                            x       y       z     vdW  Elec       q    Type
REMARK                         _______ _______ _______ _____ _____    ______ ____
ROOT
ATOM     10  C   UNL     1      47.488  15.971  17.609  0.00  0.00    +0.349 C 
ENDROOT
BRANCH  10  11
ATOM     11  O   UNL     1      47.324  15.644  16.227  0.00  0.00    -0.544 OA
ATOM     12  H   UNL     1      46.538  15.112  16.040  0.00  0.00    +0.382 HD
ENDBRANCH  10  11
BRANCH  10  13
ATOM     13  C   UNL     1      46.633  17.120  17.947  0.00  0.00    -0.147 C 
ATOM     14  C   UNL     1      45.951  18.038  18.217  0.00  0.00    -0.063 C 
BRANCH  14  15
ATOM     15  C   UNL     1      45.151  19.112  18.534  0.00  0.00    -0.042 C 
ATOM     16  C   UNL     1      44.470  20.028  18.804  0.00  0.00    -0.125 C 
BRANCH  16  17
ATOM     17  C   UNL     1      43.614  21.177  19.143  0.00  0.00    +0.320 C 
BRANCH  17  22
ATOM     22  C   UNL     1      42.152  20.728  19.190  0.00  0.00    +0.032 C 
ATOM     23  C   UNL     1      41.255  21.855  18.675  0.00  0.00    +0.030 C 
ENDBRANCH  17  22
BRANCH  17  18
ATOM     18  O   UNL     1      43.994  21.694  20.420  0.00  0.00    -0.343 OA
BRANCH  18  19
ATOM     19  C   UNL     1      44.959  22.627  20.438  0.00  0.00    +0.462 C 
ATOM     20  C   UNL     1      46.258  22.354  21.153  0.00  0.00    +0.162 C 
ATOM     21  O   UNL     1      44.787  23.685  19.881  0.00  0.00    -0.503 OA
ENDBRANCH  18  19
ENDBRANCH  17  18
ENDBRANCH  16  17
ENDBRANCH  14  15
ENDBRANCH  10  13
BRANCH  10   9
ATOM      9  C   UNL     1      48.952  16.326  17.878  0.00  0.00    +0.004 C 
BRANCH   9   8
ATOM      8  C   UNL     1      49.368  17.491  16.979  0.00  0.00    +0.021 C 
BRANCH   8   7
ATOM      7  C   UNL     1      50.893  17.612  16.972  0.00  0.00    +0.002 C 
BRANCH   7   6
ATOM      6  C   UNL     1      51.301  18.885  16.228  0.00  0.00    +0.003 C 
BRANCH   6   5
ATOM      5  C   UNL     1      52.013  19.834  17.194  0.00  0.00    +0.000 C 
BRANCH   5   4
ATOM      4  C   UNL     1      51.142  21.070  17.431  0.00  0.00    +0.000 C 
BRANCH   4   3
ATOM      3  C   UNL     1      50.616  21.056  18.867  0.00  0.00    -0.001 C 
BRANCH   3   2
ATOM      1  C   UNL     1      48.820  19.664  19.907  0.00  0.00    +0.006 C 
ATOM      2  C   UNL     1      49.119  20.738  18.859  0.00  0.00    -0.006 C 
ENDBRANCH   3   2
ENDBRANCH   4   3
ENDBRANCH   5   4
ENDBRANCH   6   5
ENDBRANCH   7   6
ENDBRANCH   8   7
ENDBRANCH   9   8
ENDBRANCH  10   9
TORSDOF 15
ENDMDL
MODEL 4
REMARK VINA RESULT:      -4.9      2.539      8.498
REMARK  Name = ZINC43617259
REMARK  18 active torsions:
REMARK  status: ('A' for Active; 'I' for Inactive)
REMARK    1  A    between atoms: C1_1  and  C2_2
REMARK    2  A    between atoms: C2_2  and  C3_3
REMARK    3  A    between atoms: C3_3  and  C4_4
REMARK    4  A    between atoms: C4_4  and  C5_5
REMARK    5  A    between atoms: C5_5  and  C6_6
REMARK    6  A    between atoms: C6_6  and  C7_7
REMARK    7  A    between atoms: C7_7  and  C8_8
REMARK    8  A    between atoms: C8_8  and  C9_9
REMARK    9  A    between atoms: C9_9  and  C10_10
REMARK   10  A    between atoms: C10_10  and  C11_12
REMARK   11  A    between atoms: C10_10  and  O3_24
REMARK   12  A    between atoms: C12_13  and  C13_14
REMARK   13  A    between atoms: C14_15  and  C15_16
REMARK   14  A    between atoms: C15_16  and  C16_18
REMARK   15  A    between atoms: C15_16  and  O1_20
REMARK   16  A    between atoms: C16_18  and  C17_19
REMARK   17  A    between atoms: O1_20  and  C18_21
REMARK   18  A    between atoms: C18_21  and  C19_23
REMARK                            x       y       z     vdW  Elec       q    Type
REMARK                         _______ _______ _______ _____ _____    ______ ____
ROOT
ATOM     10  C   UNL     1      47.606  16.940  17.258  0.00  0.00    +0.349 C 
ENDROOT
BRANCH  10  11
ATOM     11  O   UNL     1      47.077  16.384  16.052  0.00  0.00    -0.544 OA
ATOM     12  H   UNL     1      47.681  15.778  15.601  0.00  0.00    +0.382 HD
ENDBRANCH  10  11
BRANCH  10  13
ATOM     13  C   UNL     1      46.667  17.940  17.791  0.00  0.00    -0.147 C 
ATOM     14  C   UNL     1      45.918  18.738  18.217  0.00  0.00    -0.063 C 
BRANCH  14  15
ATOM     15  C   UNL     1      45.039  19.673  18.716  0.00  0.00    -0.042 C 
ATOM     16  C   UNL     1      44.290  20.470  19.141  0.00  0.00    -0.125 C 
BRANCH  16  17
ATOM     17  C   UNL     1      43.350  21.469  19.674  0.00  0.00    +0.320 C 
BRANCH  17  22
ATOM     22  C   UNL     1      44.005  22.851  19.649  0.00  0.00    +0.032 C 
ATOM     23  C   UNL     1      45.111  22.911  20.704  0.00  0.00    +0.030 C 
ENDBRANCH  17  22
BRANCH  17  18
ATOM     18  O   UNL     1      42.168  21.488  18.870  0.00  0.00    -0.343 OA
BRANCH  18  19
ATOM     19  C   UNL     1      41.404  20.384  18.882  0.00  0.00    +0.462 C 
ATOM     20  C   UNL     1      41.133  19.670  20.181  0.00  0.00    +0.162 C 
ATOM     21  O   UNL     1      40.935  19.962  17.852  0.00  0.00    -0.503 OA
ENDBRANCH  18  19
ENDBRANCH  17  18
ENDBRANCH  16  17
ENDBRANCH  14  15
ENDBRANCH  10  13
BRANCH  10   9
ATOM      9  C   UNL     1      48.951  17.608  16.964  0.00  0.00    +0.004 C 
BRANCH   9   8
ATOM      8  C   UNL     1      50.085  16.625  17.261  0.00  0.00    +0.021 C 
BRANCH   8   7
ATOM      7  C   UNL     1      51.425  17.361  17.207  0.00  0.00    +0.002 C 
BRANCH   7   6
ATOM      6  C   UNL     1      51.255  18.677  16.446  0.00  0.00    +0.003 C 
BRANCH   6   5
ATOM      5  C   UNL     1      52.210  19.725  17.020  0.00  0.00    +0.000 C 
BRANCH   5   4
ATOM      4  C   UNL     1      51.640  20.270  18.332  0.00  0.00    +0.000 C 
BRANCH   4   3
ATOM      3  C   UNL     1      50.394  21.106  18.038  0.00  0.00    -0.001 C 
BRANCH   3   2
ATOM      1  C   UNL     1      49.775  19.609  19.941  0.00  0.00    +0.006 C 
ATOM      2  C   UNL     1      49.273  20.708  19.001  0.00  0.00    -0.006 C 
ENDBRANCH   3   2
ENDBRANCH   4   3
ENDBRANCH   5   4
ENDBRANCH   6   5
ENDBRANCH   7   6
ENDBRANCH   8   7
ENDBRANCH   9   8
ENDBRANCH  10   9
TORSDOF 15
ENDMDL
MODEL 5
REMARK VINA RESULT:      -4.9      1.847      3.858
REMARK  Name = ZINC43617259
REMARK  18 active torsions:
REMARK  status: ('A' for Active; 'I' for Inactive)
REMARK    1  A    between atoms: C1_1  and  C2_2
REMARK    2  A    between atoms: C2_2  and  C3_3
REMARK    3  A    between atoms: C3_3  and  C4_4
REMARK    4  A    between atoms: C4_4  and  C5_5
REMARK    5  A    between atoms: C5_5  and  C6_6
REMARK    6  A    between atoms: C6_6  and  C7_7
REMARK    7  A    between atoms: C7_7  and  C8_8
REMARK    8  A    between atoms: C8_8  and  C9_9
REMARK    9  A    between atoms: C9_9  and  C10_10
REMARK   10  A    between atoms: C10_10  and  C11_12
REMARK   11  A    between atoms: C10_10  and  O3_24
REMARK   12  A    between atoms: C12_13  and  C13_14
REMARK   13  A    between atoms: C14_15  and  C15_16
REMARK   14  A    between atoms: C15_16  and  C16_18
REMARK   15  A    between atoms: C15_16  and  O1_20
REMARK   16  A    between atoms: C16_18  and  C17_19
REMARK   17  A    between atoms: O1_20  and  C18_21
REMARK   18  A    between atoms: C18_21  and  C19_23
REMARK                            x       y       z     vdW  Elec       q    Type
REMARK                         _______ _______ _______ _____ _____    ______ ____
ROOT
ATOM     10  C   UNL     1      42.864  22.158  19.618  0.00  0.00    +0.349 C 
ENDROOT
BRANCH  10  11
ATOM     11  O   UNL     1      42.719  23.488  19.117  0.00  0.00    -0.544 OA
ATOM     12  H   UNL     1      42.857  24.176  19.783  0.00  0.00    +0.382 HD
ENDBRANCH  10  11
BRANCH  10  13
ATOM     13  C   UNL     1      44.272  21.742  19.507  0.00  0.00    -0.147 C 
ATOM     14  C   UNL     1      45.395  21.411  19.419  0.00  0.00    -0.063 C 
BRANCH  14  15
ATOM     15  C   UNL     1      46.712  21.022  19.315  0.00  0.00    -0.042 C 
ATOM     16  C   UNL     1      47.833  20.690  19.227  0.00  0.00    -0.125 C 
BRANCH  16  17
ATOM     17  C   UNL     1      49.241  20.273  19.117  0.00  0.00    +0.320 C 
BRANCH  17  22
ATOM     22  C   UNL     1      49.308  18.834  18.602  0.00  0.00    +0.032 C 
ATOM     23  C   UNL     1      48.839  17.876  19.700  0.00  0.00    +0.030 C 
ENDBRANCH  17  22
BRANCH  17  18
ATOM     18  O   UNL     1      49.924  21.137  18.206  0.00  0.00    -0.343 OA
BRANCH  18  19
ATOM     19  C   UNL     1      51.266  21.117  18.237  0.00  0.00    +0.462 C 
ATOM     20  C   UNL     1      51.993  21.327  19.540  0.00  0.00    +0.162 C 
ATOM     21  O   UNL     1      51.891  20.931  17.219  0.00  0.00    -0.503 OA
ENDBRANCH  18  19
ENDBRANCH  17  18
ENDBRANCH  16  17
ENDBRANCH  14  15
ENDBRANCH  10  13
BRANCH  10   9
ATOM      9  C   UNL     1      41.985  21.207  18.803  0.00  0.00    +0.004 C 
BRANCH   9   8
ATOM      8  C   UNL     1      42.221  19.769  19.267  0.00  0.00    +0.021 C 
BRANCH   8   7
ATOM      7  C   UNL     1      41.341  19.474  20.483  0.00  0.00    +0.002 C 
BRANCH   7   6
ATOM      6  C   UNL     1      42.080  18.527  21.431  0.00  0.00    +0.003 C 
BRANCH   6   5
ATOM      5  C   UNL     1      43.296  19.244  22.022  0.00  0.00    +0.000 C 
BRANCH   5   4
ATOM      4  C   UNL     1      44.564  18.455  21.690  0.00  0.00    +0.000 C 
BRANCH   4   3
ATOM      3  C   UNL     1      44.202  16.993  21.427  0.00  0.00    -0.001 C 
BRANCH   3   2
ATOM      1  C   UNL     1      45.203  17.596  19.218  0.00  0.00    +0.006 C 
ATOM      2  C   UNL     1      45.013  16.471  20.239  0.00  0.00    -0.006 C 
ENDBRANCH   3   2
ENDBRANCH   4   3
ENDBRANCH   5   4
ENDBRANCH   6   5
ENDBRANCH   7   6
ENDBRANCH   8   7
ENDBRANCH   9   8
ENDBRANCH  10   9
TORSDOF 15
ENDMDL
MODEL 6
REMARK VINA RESULT:      -4.9      1.894      3.651
REMARK  Name = ZINC43617259
REMARK  18 active torsions:
REMARK  status: ('A' for Active; 'I' for Inactive)
REMARK    1  A    between atoms: C1_1  and  C2_2
REMARK    2  A    between atoms: C2_2  and  C3_3
REMARK    3  A    between atoms: C3_3  and  C4_4
REMARK    4  A    between atoms: C4_4  and  C5_5
REMARK    5  A    between atoms: C5_5  and  C6_6
REMARK    6  A    between atoms: C6_6  and  C7_7
REMARK    7  A    between atoms: C7_7  and  C8_8
REMARK    8  A    between atoms: C8_8  and  C9_9
REMARK    9  A    between atoms: C9_9  and  C10_10
REMARK   10  A    between atoms: C10_10  and  C11_12
REMARK   11  A    between atoms: C10_10  and  O3_24
REMARK   12  A    between atoms: C12_13  and  C13_14
REMARK   13  A    between atoms: C14_15  and  C15_16
REMARK   14  A    between atoms: C15_16  and  C16_18
REMARK   15  A    between atoms: C15_16  and  O1_20
REMARK   16  A    between atoms: C16_18  and  C17_19
REMARK   17  A    between atoms: O1_20  and  C18_21
REMARK   18  A    between atoms: C18_21  and  C19_23
REMARK                            x       y       z     vdW  Elec       q    Type
REMARK                         _______ _______ _______ _____ _____    ______ ____
ROOT
ATOM     10  C   UNL     1      44.070  20.996  20.019  0.00  0.00    +0.349 C 
ENDROOT
BRANCH  10  11
ATOM     11  O   UNL     1      43.433  21.911  19.125  0.00  0.00    -0.544 OA
ATOM     12  H   UNL     1      43.579  22.842  19.346  0.00  0.00    +0.382 HD
ENDBRANCH  10  11
BRANCH  10  13
ATOM     13  C   UNL     1      45.505  20.919  19.703  0.00  0.00    -0.147 C 
ATOM     14  C   UNL     1      46.651  20.857  19.450  0.00  0.00    -0.063 C 
BRANCH  14  15
ATOM     15  C   UNL     1      47.993  20.784  19.154  0.00  0.00    -0.042 C 
ATOM     16  C   UNL     1      49.137  20.722  18.902  0.00  0.00    -0.125 C 
BRANCH  16  17
ATOM     17  C   UNL     1      50.573  20.643  18.586  0.00  0.00    +0.320 C 
BRANCH  17  22
ATOM     22  C   UNL     1      51.374  20.511  19.883  0.00  0.00    +0.032 C 
ATOM     23  C   UNL     1      52.469  21.579  19.918  0.00  0.00    +0.030 C 
ENDBRANCH  17  22
BRANCH  17  18
ATOM     18  O   UNL     1      50.817  19.505  17.757  0.00  0.00    -0.343 OA
BRANCH  18  19
ATOM     19  C   UNL     1      51.459  19.721  16.598  0.00  0.00    +0.462 C 
ATOM     20  C   UNL     1      51.715  21.131  16.130  0.00  0.00    +0.162 C 
ATOM     21  O   UNL     1      51.831  18.786  15.929  0.00  0.00    -0.503 OA
ENDBRANCH  18  19
ENDBRANCH  17  18
ENDBRANCH  16  17
ENDBRANCH  14  15
ENDBRANCH  10  13
BRANCH  10   9
ATOM      9  C   UNL     1      43.438  19.611  19.866  0.00  0.00    +0.004 C 
BRANCH   9   8
ATOM      8  C   UNL     1      42.919  19.134  21.224  0.00  0.00    +0.021 C 
BRANCH   8   7
ATOM      7  C   UNL     1      43.659  17.859  21.634  0.00  0.00    +0.002 C 
BRANCH   7   6
ATOM      6  C   UNL     1      44.472  17.337  20.448  0.00  0.00    +0.003 C 
BRANCH   6   5
ATOM      5  C   UNL     1      45.926  17.130  20.878  0.00  0.00    +0.000 C 
BRANCH   5   4
ATOM      4  C   UNL     1      46.829  17.135  19.642  0.00  0.00    +0.000 C 
BRANCH   4   3
ATOM      3  C   UNL     1      45.966  17.146  18.380  0.00  0.00    -0.001 C 
BRANCH   3   2
ATOM      1  C   UNL     1      48.216  17.317  17.306  0.00  0.00    +0.006 C 
ATOM      2  C   UNL     1      46.756  17.769  17.227  0.00  0.00    -0.006 C 
ENDBRANCH   3   2
ENDBRANCH   4   3
ENDBRANCH   5   4
ENDBRANCH   6   5
ENDBRANCH   7   6
ENDBRANCH   8   7
ENDBRANCH   9   8
ENDBRANCH  10   9
TORSDOF 15
ENDMDL
MODEL 7
REMARK VINA RESULT:      -4.9      3.603      7.057
REMARK  Name = ZINC43617259
REMARK  18 active torsions:
REMARK  status: ('A' for Active; 'I' for Inactive)
REMARK    1  A    between atoms: C1_1  and  C2_2
REMARK    2  A    between atoms: C2_2  and  C3_3
REMARK    3  A    between atoms: C3_3  and  C4_4
REMARK    4  A    between atoms: C4_4  and  C5_5
REMARK    5  A    between atoms: C5_5  and  C6_6
REMARK    6  A    between atoms: C6_6  and  C7_7
REMARK    7  A    between atoms: C7_7  and  C8_8
REMARK    8  A    between atoms: C8_8  and  C9_9
REMARK    9  A    between atoms: C9_9  and  C10_10
REMARK   10  A    between atoms: C10_10  and  C11_12
REMARK   11  A    between atoms: C10_10  and  O3_24
REMARK   12  A    between atoms: C12_13  and  C13_14
REMARK   13  A    between atoms: C14_15  and  C15_16
REMARK   14  A    between atoms: C15_16  and  C16_18
REMARK   15  A    between atoms: C15_16  and  O1_20
REMARK   16  A    between atoms: C16_18  and  C17_19
REMARK   17  A    between atoms: O1_20  and  C18_21
REMARK   18  A    between atoms: C18_21  and  C19_23
REMARK                            x       y       z     vdW  Elec       q    Type
REMARK                         _______ _______ _______ _____ _____    ______ ____
ROOT
ATOM     10  C   UNL     1      52.077  19.479  16.280  0.00  0.00    +0.349 C 
ENDROOT
BRANCH  10  11
ATOM     11  O   UNL     1      51.706  20.295  15.167  0.00  0.00    -0.544 OA
ATOM     12  H   UNL     1      50.818  20.117  14.828  0.00  0.00    +0.382 HD
ENDBRANCH  10  11
BRANCH  10  13
ATOM     13  C   UNL     1      50.961  18.584  16.627  0.00  0.00    -0.147 C 
ATOM     14  C   UNL     1      50.070  17.871  16.903  0.00  0.00    -0.063 C 
BRANCH  14  15
ATOM     15  C   UNL     1      49.026  17.033  17.227  0.00  0.00    -0.042 C 
ATOM     16  C   UNL     1      48.137  16.320  17.503  0.00  0.00    -0.125 C 
BRANCH  16  17
ATOM     17  C   UNL     1      47.021  15.425  17.850  0.00  0.00    +0.320 C 
BRANCH  17  22
ATOM     22  C   UNL     1      45.860  16.249  18.410  0.00  0.00    +0.032 C 
ATOM     23  C   UNL     1      45.417  15.661  19.751  0.00  0.00    +0.030 C 
ENDBRANCH  17  22
BRANCH  17  18
ATOM     18  O   UNL     1      46.588  14.727  16.680  0.00  0.00    -0.343 OA
BRANCH  18  19
ATOM     19  C   UNL     1      46.861  13.415  16.616  0.00  0.00    +0.462 C 
ATOM     20  C   UNL     1      46.111  12.445  17.493  0.00  0.00    +0.162 C 
ATOM     21  O   UNL     1      47.710  13.010  15.856  0.00  0.00    -0.503 OA
ENDBRANCH  18  19
ENDBRANCH  17  18
ENDBRANCH  16  17
ENDBRANCH  14  15
ENDBRANCH  10  13
BRANCH  10   9
ATOM      9  C   UNL     1      52.406  20.372  17.479  0.00  0.00    +0.004 C 
BRANCH   9   8
ATOM      8  C   UNL     1      51.178  21.205  17.848  0.00  0.00    +0.021 C 
BRANCH   8   7
ATOM      7  C   UNL     1      50.785  20.918  19.299  0.00  0.00    +0.002 C 
BRANCH   7   6
ATOM      6  C   UNL     1      49.261  20.825  19.405  0.00  0.00    +0.003 C 
BRANCH   6   5
ATOM      5  C   UNL     1      48.877  19.506  20.079  0.00  0.00    +0.000 C 
BRANCH   5   4
ATOM      4  C   UNL     1      47.378  19.258  19.899  0.00  0.00    +0.000 C 
BRANCH   4   3
ATOM      3  C   UNL     1      46.911  19.889  18.587  0.00  0.00    -0.001 C 
BRANCH   3   2
ATOM      1  C   UNL     1      44.426  19.661  18.725  0.00  0.00    +0.006 C 
ATOM      2  C   UNL     1      45.598  20.640  18.820  0.00  0.00    -0.006 C 
ENDBRANCH   3   2
ENDBRANCH   4   3
ENDBRANCH   5   4
ENDBRANCH   6   5
ENDBRANCH   7   6
ENDBRANCH   8   7
ENDBRANCH   9   8
ENDBRANCH  10   9
TORSDOF 15
ENDMDL
MODEL 8
REMARK VINA RESULT:      -4.8      2.046      8.594
REMARK  Name = ZINC43617259
REMARK  18 active torsions:
REMARK  status: ('A' for Active; 'I' for Inactive)
REMARK    1  A    between atoms: C1_1  and  C2_2
REMARK    2  A    between atoms: C2_2  and  C3_3
REMARK    3  A    between atoms: C3_3  and  C4_4
REMARK    4  A    between atoms: C4_4  and  C5_5
REMARK    5  A    between atoms: C5_5  and  C6_6
REMARK    6  A    between atoms: C6_6  and  C7_7
REMARK    7  A    between atoms: C7_7  and  C8_8
REMARK    8  A    between atoms: C8_8  and  C9_9
REMARK    9  A    between atoms: C9_9  and  C10_10
REMARK   10  A    between atoms: C10_10  and  C11_12
REMARK   11  A    between atoms: C10_10  and  O3_24
REMARK   12  A    between atoms: C12_13  and  C13_14
REMARK   13  A    between atoms: C14_15  and  C15_16
REMARK   14  A    between atoms: C15_16  and  C16_18
REMARK   15  A    between atoms: C15_16  and  O1_20
REMARK   16  A    between atoms: C16_18  and  C17_19
REMARK   17  A    between atoms: O1_20  and  C18_21
REMARK   18  A    between atoms: C18_21  and  C19_23
REMARK                            x       y       z     vdW  Elec       q    Type
REMARK                         _______ _______ _______ _____ _____    ______ ____
ROOT
ATOM     10  C   UNL     1      49.447  17.035  17.999  0.00  0.00    +0.349 C 
ENDROOT
BRANCH  10  11
ATOM     11  O   UNL     1      49.415  15.620  17.799  0.00  0.00    -0.544 OA
ATOM     12  H   UNL     1      48.686  15.176  18.254  0.00  0.00    +0.382 HD
ENDBRANCH  10  11
BRANCH  10  13
ATOM     13  C   UNL     1      48.099  17.512  18.350  0.00  0.00    -0.147 C 
ATOM     14  C   UNL     1      47.024  17.892  18.630  0.00  0.00    -0.063 C 
BRANCH  14  15
ATOM     15  C   UNL     1      45.764  18.339  18.959  0.00  0.00    -0.042 C 
ATOM     16  C   UNL     1      44.690  18.718  19.240  0.00  0.00    -0.125 C 
BRANCH  16  17
ATOM     17  C   UNL     1      43.343  19.195  19.592  0.00  0.00    +0.320 C 
BRANCH  17  22
ATOM     22  C   UNL     1      43.334  19.672  21.045  0.00  0.00    +0.032 C 
ATOM     23  C   UNL     1      42.447  18.747  21.881  0.00  0.00    +0.030 C 
ENDBRANCH  17  22
BRANCH  17  18
ATOM     18  O   UNL     1      42.980  20.279  18.733  0.00  0.00    -0.343 OA
BRANCH  18  19
ATOM     19  C   UNL     1      41.669  20.518  18.573  0.00  0.00    +0.462 C 
ATOM     20  C   UNL     1      41.143  21.926  18.677  0.00  0.00    +0.162 C 
ATOM     21  O   UNL     1      40.912  19.604  18.347  0.00  0.00    -0.503 OA
ENDBRANCH  18  19
ENDBRANCH  17  18
ENDBRANCH  16  17
ENDBRANCH  14  15
ENDBRANCH  10  13
BRANCH  10   9
ATOM      9  C   UNL     1      49.913  17.721  16.713  0.00  0.00    +0.004 C 
BRANCH   9   8
ATOM      8  C   UNL     1      51.433  17.885  16.744  0.00  0.00    +0.021 C 
BRANCH   8   7
ATOM      7  C   UNL     1      51.838  19.061  15.853  0.00  0.00    +0.002 C 
BRANCH   7   6
ATOM      6  C   UNL     1      52.391  20.193  16.721  0.00  0.00    +0.003 C 
BRANCH   6   5
ATOM      5  C   UNL     1      51.259  21.157  17.083  0.00  0.00    +0.000 C 
BRANCH   5   4
ATOM      4  C   UNL     1      50.939  21.031  18.574  0.00  0.00    +0.000 C 
BRANCH   4   3
ATOM      3  C   UNL     1      49.429  20.875  18.760  0.00  0.00    -0.001 C 
BRANCH   3   2
ATOM      1  C   UNL     1      47.655  21.128  20.502  0.00  0.00    +0.006 C 
ATOM      2  C   UNL     1      49.111  20.729  20.250  0.00  0.00    -0.006 C 
ENDBRANCH   3   2
ENDBRANCH   4   3
ENDBRANCH   5   4
ENDBRANCH   6   5
ENDBRANCH   7   6
ENDBRANCH   8   7
ENDBRANCH   9   8
ENDBRANCH  10   9
TORSDOF 15
ENDMDL
MODEL 9
REMARK VINA RESULT:      -4.6      2.942      8.396
REMARK  Name = ZINC43617259
REMARK  18 active torsions:
REMARK  status: ('A' for Active; 'I' for Inactive)
REMARK    1  A    between atoms: C1_1  and  C2_2
REMARK    2  A    between atoms: C2_2  and  C3_3
REMARK    3  A    between atoms: C3_3  and  C4_4
REMARK    4  A    between atoms: C4_4  and  C5_5
REMARK    5  A    between atoms: C5_5  and  C6_6
REMARK    6  A    between atoms: C6_6  and  C7_7
REMARK    7  A    between atoms: C7_7  and  C8_8
REMARK    8  A    between atoms: C8_8  and  C9_9
REMARK    9  A    between atoms: C9_9  and  C10_10
REMARK   10  A    between atoms: C10_10  and  C11_12
REMARK   11  A    between atoms: C10_10  and  O3_24
REMARK   12  A    between atoms: C12_13  and  C13_14
REMARK   13  A    between atoms: C14_15  and  C15_16
REMARK   14  A    between atoms: C15_16  and  C16_18
REMARK   15  A    between atoms: C15_16  and  O1_20
REMARK   16  A    between atoms: C16_18  and  C17_19
REMARK   17  A    between atoms: O1_20  and  C18_21
REMARK   18  A    between atoms: C18_21  and  C19_23
REMARK                            x       y       z     vdW  Elec       q    Type
REMARK                         _______ _______ _______ _____ _____    ______ ____
ROOT
ATOM     10  C   UNL     1      47.449  15.283  17.183  0.00  0.00    +0.349 C 
ENDROOT
BRANCH  10  11
ATOM     11  O   UNL     1      46.988  14.870  15.894  0.00  0.00    -0.544 OA
ATOM     12  H   UNL     1      47.085  15.545  15.208  0.00  0.00    +0.382 HD
ENDBRANCH  10  11
BRANCH  10  13
ATOM     13  C   UNL     1      46.633  16.413  17.657  0.00  0.00    -0.147 C 
ATOM     14  C   UNL     1      45.983  17.314  18.036  0.00  0.00    -0.063 C 
BRANCH  14  15
ATOM     15  C   UNL     1      45.220  18.371  18.480  0.00  0.00    -0.042 C 
ATOM     16  C   UNL     1      44.571  19.271  18.860  0.00  0.00    -0.125 C 
BRANCH  16  17
ATOM     17  C   UNL     1      43.755  20.400  19.335  0.00  0.00    +0.320 C 
BRANCH  17  22
ATOM     22  C   UNL     1      44.618  21.662  19.398  0.00  0.00    +0.032 C 
ATOM     23  C   UNL     1      45.783  21.437  20.363  0.00  0.00    +0.030 C 
ENDBRANCH  17  22
BRANCH  17  18
ATOM     18  O   UNL     1      42.664  20.613  18.436  0.00  0.00    -0.343 OA
BRANCH  18  19
ATOM     19  C   UNL     1      41.512  21.051  18.968  0.00  0.00    +0.462 C 
ATOM     20  C   UNL     1      40.743  20.175  19.923  0.00  0.00    +0.162 C 
ATOM     21  O   UNL     1      41.092  22.147  18.680  0.00  0.00    -0.503 OA
ENDBRANCH  18  19
ENDBRANCH  17  18
ENDBRANCH  16  17
ENDBRANCH  14  15
ENDBRANCH  10  13
BRANCH  10   9
ATOM      9  C   UNL     1      48.913  15.715  17.086  0.00  0.00    +0.004 C 
BRANCH   9   8
ATOM      8  C   UNL     1      49.465  15.965  18.490  0.00  0.00    +0.021 C 
BRANCH   8   7
ATOM      7  C   UNL     1      50.140  17.337  18.536  0.00  0.00    +0.002 C 
BRANCH   7   6
ATOM      6  C   UNL     1      49.315  18.283  19.411  0.00  0.00    +0.003 C 
BRANCH   6   5
ATOM      5  C   UNL     1      49.204  19.646  18.723  0.00  0.00    +0.000 C 
BRANCH   5   4
ATOM      4  C   UNL     1      50.497  20.435  18.943  0.00  0.00    +0.000 C 
BRANCH   4   3
ATOM      3  C   UNL     1      50.915  21.103  17.632  0.00  0.00    -0.001 C 
BRANCH   3   2
ATOM      1  C   UNL     1      51.705  19.507  15.880  0.00  0.00    +0.006 C 
ATOM      2  C   UNL     1      52.136  20.382  17.059  0.00  0.00    -0.006 C 
ENDBRANCH   3   2
ENDBRANCH   4   3
ENDBRANCH   5   4
ENDBRANCH   6   5
ENDBRANCH   7   6
ENDBRANCH   8   7
ENDBRANCH   9   8
ENDBRANCH  10   9
TORSDOF 15
ENDMDL
