MODEL 1
REMARK VINA RESULT:      -6.4      0.000      0.000
REMARK  Name = ZINC95485991
REMARK  12 active torsions:
REMARK  status: ('A' for Active; 'I' for Inactive)
REMARK    1  A    between atoms: C1_1  and  C2_2
REMARK    2  A    between atoms: C2_2  and  C26_33
REMARK    3  A    between atoms: C3_3  and  C4_4
REMARK    4  A    between atoms: C4_4  and  C5_5
REMARK    5  A    between atoms: C5_5  and  C6_6
REMARK    6  A    between atoms: C9_10  and  O7_32
REMARK    7  A    between atoms: C14_16  and  C15_17
REMARK    8  A    between atoms: C17_19  and  O5_25
REMARK    9  A    between atoms: C18_20  and  O4_24
REMARK   10  A    between atoms: C20_22  and  O3_23
REMARK   11  A    between atoms: C23_28  and  C24_30
REMARK   12  A    between atoms: C23_28  and  C25_31
REMARK                            x       y       z     vdW  Elec       q    Type
REMARK                         _______ _______ _______ _____ _____    ______ ____
ROOT
ATOM      7  C   UNL     1      49.560  17.320  19.747  0.00  0.00    -0.233 A 
ATOM      8  C   UNL     1      48.661  16.577  20.545  0.00  0.00    +0.429 A 
ATOM      9  C   UNL     1      47.232  16.924  20.460  0.00  0.00    -0.284 A 
ATOM     10  C   UNL     1      46.271  16.239  21.216  0.00  0.00    +0.239 A 
ATOM     13  C   UNL     1      44.935  16.585  21.116  0.00  0.00    -0.049 A 
ATOM     14  C   UNL     1      44.543  17.611  20.269  0.00  0.00    +0.215 A 
ATOM     15  C   UNL     1      45.496  18.304  19.509  0.00  0.00    -0.171 A 
ATOM     16  C   UNL     1      45.033  19.390  18.621  0.00  0.00    +0.056 C 
ATOM     17  C   UNL     1      43.813  19.886  18.820  0.00  0.00    -0.047 C 
ATOM     18  C   UNL     1      42.954  19.346  19.934  0.00  0.00    +0.145 C 
ATOM     19  C   UNL     1      41.480  19.504  19.557  0.00  0.00    +0.088 C 
ATOM     20  C   UNL     1      43.235  20.134  21.215  0.00  0.00    +0.039 C 
ATOM     21  O   UNL     1      43.237  17.965  20.159  0.00  0.00    -0.293 OA
ATOM     22  C   UNL     1      46.846  17.965  19.599  0.00  0.00    +0.210 A 
ATOM     23  O   UNL     1      47.778  18.617  18.876  0.00  0.00    -0.211 OA
ATOM     24  O   UNL     1      49.053  15.683  21.277  0.00  0.00    -0.446 OA
ATOM     25  C   UNL     1      49.085  18.314  18.947  0.00  0.00    +0.184 A 
ENDROOT
BRANCH  25  26
ATOM     26  C   UNL     1      50.036  19.081  18.127  0.00  0.00    -0.079 A 
ATOM     27  C   UNL     1      50.768  18.444  17.119  0.00  0.00    +0.066 A 
ATOM     28  C   UNL     1      51.659  19.168  16.353  0.00  0.00    +0.074 A 
ATOM     31  C   UNL     1      51.831  20.534  16.581  0.00  0.00    +0.125 A 
ATOM     34  C   UNL     1      51.108  21.171  17.578  0.00  0.00    -0.011 A 
ATOM     35  C   UNL     1      50.207  20.456  18.348  0.00  0.00    +0.159 A 
BRANCH  28  29
ATOM     29  O   UNL     1      52.372  18.548  15.374  0.00  0.00    -0.481 OA
ATOM     30  H   UNL     1      51.841  17.976  14.803  0.00  0.00    +0.391 HD
ENDBRANCH  28  29
BRANCH  31  32
ATOM     32  O   UNL     1      52.709  21.241  15.824  0.00  0.00    -0.483 OA
ATOM     33  H   UNL     1      53.577  21.359  16.236  0.00  0.00    +0.396 HD
ENDBRANCH  31  32
BRANCH  35  36
ATOM     36  O   UNL     1      49.496  21.083  19.320  0.00  0.00    -0.484 OA
ATOM     37  H   UNL     1      49.069  21.900  19.031  0.00  0.00    +0.399 HD
ENDBRANCH  35  36
ENDBRANCH  25  26
BRANCH  10  11
ATOM     11  O   UNL     1      46.651  15.235  22.046  0.00  0.00    -0.470 OA
ATOM     12  H   UNL     1      45.982  14.990  22.699  0.00  0.00    +0.404 HD
ENDBRANCH  10  11
BRANCH   7   6
ATOM      6  C   UNL     1      51.037  17.017  19.785  0.00  0.00    +0.117 C 
BRANCH   6   5
ATOM      5  C   UNL     1      51.615  17.465  21.129  0.00  0.00    +0.051 C 
BRANCH   5   4
ATOM      1  C   UNL     1      50.674  19.779  22.438  0.00  0.00    +0.069 C 
ATOM      2  C   UNL     1      51.863  19.863  21.515  0.00  0.00    -0.138 C 
ATOM      3  C   UNL     1      52.509  21.197  21.239  0.00  0.00    +0.072 C 
ATOM      4  C   UNL     1      52.334  18.778  20.953  0.00  0.00    -0.048 C 
ENDBRANCH   5   4
ENDBRANCH   6   5
ENDBRANCH   7   6
TORSDOF 8
ENDMDL
MODEL 2
REMARK VINA RESULT:      -6.2      3.375      7.419
REMARK  Name = ZINC95485991
REMARK  12 active torsions:
REMARK  status: ('A' for Active; 'I' for Inactive)
REMARK    1  A    between atoms: C1_1  and  C2_2
REMARK    2  A    between atoms: C2_2  and  C26_33
REMARK    3  A    between atoms: C3_3  and  C4_4
REMARK    4  A    between atoms: C4_4  and  C5_5
REMARK    5  A    between atoms: C5_5  and  C6_6
REMARK    6  A    between atoms: C9_10  and  O7_32
REMARK    7  A    between atoms: C14_16  and  C15_17
REMARK    8  A    between atoms: C17_19  and  O5_25
REMARK    9  A    between atoms: C18_20  and  O4_24
REMARK   10  A    between atoms: C20_22  and  O3_23
REMARK   11  A    between atoms: C23_28  and  C24_30
REMARK   12  A    between atoms: C23_28  and  C25_31
REMARK                            x       y       z     vdW  Elec       q    Type
REMARK                         _______ _______ _______ _____ _____    ______ ____
ROOT
ATOM      7  C   UNL     1      46.713  18.343  19.444  0.00  0.00    -0.233 A 
ATOM      8  C   UNL     1      47.886  17.946  18.765  0.00  0.00    +0.429 A 
ATOM      9  C   UNL     1      47.900  16.602  18.162  0.00  0.00    -0.284 A 
ATOM     10  C   UNL     1      49.022  16.127  17.470  0.00  0.00    +0.239 A 
ATOM     13  C   UNL     1      49.007  14.860  16.911  0.00  0.00    -0.049 A 
ATOM     14  C   UNL     1      47.884  14.057  17.037  0.00  0.00    +0.215 A 
ATOM     15  C   UNL     1      46.756  14.522  17.729  0.00  0.00    -0.171 A 
ATOM     16  C   UNL     1      45.581  13.632  17.838  0.00  0.00    +0.056 C 
ATOM     17  C   UNL     1      45.751  12.336  17.582  0.00  0.00    -0.047 C 
ATOM     18  C   UNL     1      47.113  11.816  17.205  0.00  0.00    +0.145 C 
ATOM     19  C   UNL     1      46.955  10.580  16.316  0.00  0.00    +0.088 C 
ATOM     20  C   UNL     1      47.876  11.429  18.474  0.00  0.00    +0.039 C 
ATOM     21  O   UNL     1      47.851  12.812  16.497  0.00  0.00    -0.293 OA
ATOM     22  C   UNL     1      46.757  15.797  18.295  0.00  0.00    +0.210 A 
ATOM     23  O   UNL     1      45.683  16.264  18.963  0.00  0.00    -0.211 OA
ATOM     24  O   UNL     1      48.852  18.687  18.681  0.00  0.00    -0.446 OA
ATOM     25  C   UNL     1      45.658  17.484  19.521  0.00  0.00    +0.184 A 
ENDROOT
BRANCH  25  26
ATOM     26  C   UNL     1      44.445  17.913  20.238  0.00  0.00    -0.079 A 
ATOM     27  C   UNL     1      43.605  18.882  19.679  0.00  0.00    +0.066 A 
ATOM     28  C   UNL     1      42.469  19.279  20.355  0.00  0.00    +0.074 A 
ATOM     31  C   UNL     1      42.158  18.717  21.594  0.00  0.00    +0.125 A 
ATOM     34  C   UNL     1      42.987  17.757  22.152  0.00  0.00    -0.011 A 
ATOM     35  C   UNL     1      44.125  17.346  21.480  0.00  0.00    +0.159 A 
BRANCH  28  29
ATOM     29  O   UNL     1      41.652  20.221  19.813  0.00  0.00    -0.481 OA
ATOM     30  H   UNL     1      40.800  19.877  19.510  0.00  0.00    +0.391 HD
ENDBRANCH  28  29
BRANCH  31  32
ATOM     32  O   UNL     1      41.039  19.113  22.254  0.00  0.00    -0.483 OA
ATOM     33  H   UNL     1      40.214  18.879  21.805  0.00  0.00    +0.396 HD
ENDBRANCH  31  32
BRANCH  35  36
ATOM     36  O   UNL     1      44.934  16.400  22.026  0.00  0.00    -0.484 OA
ATOM     37  H   UNL     1      44.459  15.675  22.452  0.00  0.00    +0.399 HD
ENDBRANCH  35  36
ENDBRANCH  25  26
BRANCH  10  11
ATOM     11  O   UNL     1      50.123  16.910  17.345  0.00  0.00    -0.470 OA
ATOM     12  H   UNL     1      49.946  17.855  17.437  0.00  0.00    +0.404 HD
ENDBRANCH  10  11
BRANCH   7   6
ATOM      6  C   UNL     1      46.631  19.705  20.085  0.00  0.00    +0.117 C 
BRANCH   6   5
ATOM      5  C   UNL     1      46.757  20.784  19.008  0.00  0.00    +0.051 C 
BRANCH   5   4
ATOM      1  C   UNL     1      46.055  22.753  20.901  0.00  0.00    +0.069 C 
ATOM      2  C   UNL     1      45.098  22.394  19.793  0.00  0.00    -0.138 C 
ATOM      3  C   UNL     1      43.738  23.040  19.735  0.00  0.00    +0.072 C 
ATOM      4  C   UNL     1      45.449  21.521  18.881  0.00  0.00    -0.048 C 
ENDBRANCH   5   4
ENDBRANCH   6   5
ENDBRANCH   7   6
TORSDOF 8
ENDMDL
MODEL 3
REMARK VINA RESULT:      -6.0      3.984      6.581
REMARK  Name = ZINC95485991
REMARK  12 active torsions:
REMARK  status: ('A' for Active; 'I' for Inactive)
REMARK    1  A    between atoms: C1_1  and  C2_2
REMARK    2  A    between atoms: C2_2  and  C26_33
REMARK    3  A    between atoms: C3_3  and  C4_4
REMARK    4  A    between atoms: C4_4  and  C5_5
REMARK    5  A    between atoms: C5_5  and  C6_6
REMARK    6  A    between atoms: C9_10  and  O7_32
REMARK    7  A    between atoms: C14_16  and  C15_17
REMARK    8  A    between atoms: C17_19  and  O5_25
REMARK    9  A    between atoms: C18_20  and  O4_24
REMARK   10  A    between atoms: C20_22  and  O3_23
REMARK   11  A    between atoms: C23_28  and  C24_30
REMARK   12  A    between atoms: C23_28  and  C25_31
REMARK                            x       y       z     vdW  Elec       q    Type
REMARK                         _______ _______ _______ _____ _____    ______ ____
ROOT
ATOM      7  C   UNL     1      48.335  17.187  18.331  0.00  0.00    -0.233 A 
ATOM      8  C   UNL     1      47.468  16.109  18.042  0.00  0.00    +0.429 A 
ATOM      9  C   UNL     1      48.029  14.966  17.301  0.00  0.00    -0.284 A 
ATOM     10  C   UNL     1      47.241  13.855  16.972  0.00  0.00    +0.239 A 
ATOM     13  C   UNL     1      47.794  12.794  16.276  0.00  0.00    -0.049 A 
ATOM     14  C   UNL     1      49.129  12.828  15.902  0.00  0.00    +0.215 A 
ATOM     15  C   UNL     1      49.926  13.936  16.224  0.00  0.00    -0.171 A 
ATOM     16  C   UNL     1      51.343  13.929  15.804  0.00  0.00    +0.056 C 
ATOM     17  C   UNL     1      51.716  13.057  14.869  0.00  0.00    -0.047 C 
ATOM     18  C   UNL     1      50.700  12.123  14.264  0.00  0.00    +0.145 C 
ATOM     19  C   UNL     1      51.399  10.839  13.813  0.00  0.00    +0.088 C 
ATOM     20  C   UNL     1      50.052  12.797  13.052  0.00  0.00    +0.039 C 
ATOM     21  O   UNL     1      49.689  11.797  15.218  0.00  0.00    -0.293 OA
ATOM     22  C   UNL     1      49.382  15.011  16.926  0.00  0.00    +0.210 A 
ATOM     23  O   UNL     1      50.131  16.085  17.248  0.00  0.00    -0.211 OA
ATOM     24  O   UNL     1      46.298  16.125  18.391  0.00  0.00    -0.446 OA
ATOM     25  C   UNL     1      49.631  17.135  17.918  0.00  0.00    +0.184 A 
ENDROOT
BRANCH  25  26
ATOM     26  C   UNL     1      50.519  18.269  18.224  0.00  0.00    -0.079 A 
ATOM     27  C   UNL     1      50.634  19.334  17.323  0.00  0.00    +0.066 A 
ATOM     28  C   UNL     1      51.467  20.395  17.615  0.00  0.00    +0.074 A 
ATOM     31  C   UNL     1      52.196  20.407  18.805  0.00  0.00    +0.125 A 
ATOM     34  C   UNL     1      52.086  19.355  19.701  0.00  0.00    -0.011 A 
ATOM     35  C   UNL     1      51.248  18.289  19.422  0.00  0.00    +0.159 A 
BRANCH  28  29
ATOM     29  O   UNL     1      51.580  21.429  16.739  0.00  0.00    -0.481 OA
ATOM     30  H   UNL     1      52.190  21.261  16.008  0.00  0.00    +0.391 HD
ENDBRANCH  28  29
BRANCH  31  32
ATOM     32  O   UNL     1      53.014  21.453  19.086  0.00  0.00    -0.483 OA
ATOM     33  H   UNL     1      52.972  22.171  18.438  0.00  0.00    +0.396 HD
ENDBRANCH  31  32
BRANCH  35  36
ATOM     36  O   UNL     1      51.137  17.262  20.303  0.00  0.00    -0.484 OA
ATOM     37  H   UNL     1      50.547  16.554  20.010  0.00  0.00    +0.399 HD
ENDBRANCH  35  36
ENDBRANCH  25  26
BRANCH  10  11
ATOM     11  O   UNL     1      45.935  13.818  17.337  0.00  0.00    -0.470 OA
ATOM     12  H   UNL     1      45.728  14.357  18.112  0.00  0.00    +0.404 HD
ENDBRANCH  10  11
BRANCH   7   6
ATOM      6  C   UNL     1      47.826  18.389  19.086  0.00  0.00    +0.117 C 
BRANCH   6   5
ATOM      5  C   UNL     1      46.894  19.201  18.184  0.00  0.00    +0.051 C 
BRANCH   5   4
ATOM      1  C   UNL     1      44.246  20.014  18.714  0.00  0.00    +0.069 C 
ATOM      2  C   UNL     1      45.396  20.943  19.009  0.00  0.00    -0.138 C 
ATOM      3  C   UNL     1      45.126  22.333  19.526  0.00  0.00    +0.072 C 
ATOM      4  C   UNL     1      46.628  20.543  18.816  0.00  0.00    -0.048 C 
ENDBRANCH   5   4
ENDBRANCH   6   5
ENDBRANCH   7   6
TORSDOF 8
ENDMDL
MODEL 4
REMARK VINA RESULT:      -5.8      3.534      6.699
REMARK  Name = ZINC95485991
REMARK  12 active torsions:
REMARK  status: ('A' for Active; 'I' for Inactive)
REMARK    1  A    between atoms: C1_1  and  C2_2
REMARK    2  A    between atoms: C2_2  and  C26_33
REMARK    3  A    between atoms: C3_3  and  C4_4
REMARK    4  A    between atoms: C4_4  and  C5_5
REMARK    5  A    between atoms: C5_5  and  C6_6
REMARK    6  A    between atoms: C9_10  and  O7_32
REMARK    7  A    between atoms: C14_16  and  C15_17
REMARK    8  A    between atoms: C17_19  and  O5_25
REMARK    9  A    between atoms: C18_20  and  O4_24
REMARK   10  A    between atoms: C20_22  and  O3_23
REMARK   11  A    between atoms: C23_28  and  C24_30
REMARK   12  A    between atoms: C23_28  and  C25_31
REMARK                            x       y       z     vdW  Elec       q    Type
REMARK                         _______ _______ _______ _____ _____    ______ ____
ROOT
ATOM      7  C   UNL     1      48.040  17.781  19.073  0.00  0.00    -0.233 A 
ATOM      8  C   UNL     1      49.215  17.147  18.610  0.00  0.00    +0.429 A 
ATOM      9  C   UNL     1      49.063  15.856  17.916  0.00  0.00    -0.284 A 
ATOM     10  C   UNL     1      50.174  15.159  17.424  0.00  0.00    +0.239 A 
ATOM     13  C   UNL     1      50.002  13.948  16.775  0.00  0.00    -0.049 A 
ATOM     14  C   UNL     1      48.730  13.422  16.611  0.00  0.00    +0.215 A 
ATOM     15  C   UNL     1      47.610  14.110  17.101  0.00  0.00    -0.171 A 
ATOM     16  C   UNL     1      46.274  13.510  16.904  0.00  0.00    +0.056 C 
ATOM     17  C   UNL     1      46.207  12.220  16.584  0.00  0.00    -0.047 C 
ATOM     18  C   UNL     1      47.471  11.413  16.444  0.00  0.00    +0.145 C 
ATOM     19  C   UNL     1      47.238  10.277  15.447  0.00  0.00    +0.088 C 
ATOM     20  C   UNL     1      47.846  10.820  17.805  0.00  0.00    +0.039 C 
ATOM     21  O   UNL     1      48.541  12.236  15.978  0.00  0.00    -0.293 OA
ATOM     22  C   UNL     1      47.770  15.332  17.756  0.00  0.00    +0.210 A 
ATOM     23  O   UNL     1      46.707  16.010  18.233  0.00  0.00    -0.211 OA
ATOM     24  O   UNL     1      50.315  17.649  18.778  0.00  0.00    -0.446 OA
ATOM     25  C   UNL     1      46.832  17.185  18.871  0.00  0.00    +0.184 A 
ENDROOT
BRANCH  25  26
ATOM     26  C   UNL     1      45.619  17.857  19.365  0.00  0.00    -0.079 A 
ATOM     27  C   UNL     1      45.160  19.024  18.744  0.00  0.00    +0.066 A 
ATOM     28  C   UNL     1      44.022  19.649  19.211  0.00  0.00    +0.074 A 
ATOM     31  C   UNL     1      43.328  19.121  20.301  0.00  0.00    +0.125 A 
ATOM     34  C   UNL     1      43.778  17.965  20.919  0.00  0.00    -0.011 A 
ATOM     35  C   UNL     1      44.914  17.325  20.455  0.00  0.00    +0.159 A 
BRANCH  28  29
ATOM     29  O   UNL     1      43.576  20.785  18.609  0.00  0.00    -0.481 OA
ATOM     30  H   UNL     1      43.061  21.362  19.190  0.00  0.00    +0.391 HD
ENDBRANCH  28  29
BRANCH  31  32
ATOM     32  O   UNL     1      42.209  19.741  20.756  0.00  0.00    -0.483 OA
ATOM     33  H   UNL     1      42.319  20.691  20.905  0.00  0.00    +0.396 HD
ENDBRANCH  31  32
BRANCH  35  36
ATOM     36  O   UNL     1      45.351  16.189  21.058  0.00  0.00    -0.484 OA
ATOM     37  H   UNL     1      44.907  15.992  21.894  0.00  0.00    +0.399 HD
ENDBRANCH  35  36
ENDBRANCH  25  26
BRANCH  10  11
ATOM     11  O   UNL     1      51.421  15.671  17.582  0.00  0.00    -0.470 OA
ATOM     12  H   UNL     1      51.942  15.694  16.769  0.00  0.00    +0.404 HD
ENDBRANCH  10  11
BRANCH   7   6
ATOM      6  C   UNL     1      48.124  19.103  19.791  0.00  0.00    +0.117 C 
BRANCH   6   5
ATOM      5  C   UNL     1      48.758  20.146  18.868  0.00  0.00    +0.051 C 
BRANCH   5   4
ATOM      1  C   UNL     1      51.101  20.859  17.470  0.00  0.00    +0.069 C 
ATOM      2  C   UNL     1      50.999  21.111  18.953  0.00  0.00    -0.138 C 
ATOM      3  C   UNL     1      52.175  21.684  19.701  0.00  0.00    +0.072 C 
ATOM      4  C   UNL     1      49.889  20.833  19.590  0.00  0.00    -0.048 C 
ENDBRANCH   5   4
ENDBRANCH   6   5
ENDBRANCH   7   6
TORSDOF 8
ENDMDL
MODEL 5
REMARK VINA RESULT:      -5.7      3.500      7.592
REMARK  Name = ZINC95485991
REMARK  12 active torsions:
REMARK  status: ('A' for Active; 'I' for Inactive)
REMARK    1  A    between atoms: C1_1  and  C2_2
REMARK    2  A    between atoms: C2_2  and  C26_33
REMARK    3  A    between atoms: C3_3  and  C4_4
REMARK    4  A    between atoms: C4_4  and  C5_5
REMARK    5  A    between atoms: C5_5  and  C6_6
REMARK    6  A    between atoms: C9_10  and  O7_32
REMARK    7  A    between atoms: C14_16  and  C15_17
REMARK    8  A    between atoms: C17_19  and  O5_25
REMARK    9  A    between atoms: C18_20  and  O4_24
REMARK   10  A    between atoms: C20_22  and  O3_23
REMARK   11  A    between atoms: C23_28  and  C24_30
REMARK   12  A    between atoms: C23_28  and  C25_31
REMARK                            x       y       z     vdW  Elec       q    Type
REMARK                         _______ _______ _______ _____ _____    ______ ____
ROOT
ATOM      7  C   UNL     1      50.490  16.408  18.886  0.00  0.00    -0.233 A 
ATOM      8  C   UNL     1      50.385  15.191  19.597  0.00  0.00    +0.429 A 
ATOM      9  C   UNL     1      51.631  14.596  20.113  0.00  0.00    -0.284 A 
ATOM     10  C   UNL     1      51.619  13.392  20.829  0.00  0.00    +0.239 A 
ATOM     13  C   UNL     1      52.804  12.856  21.304  0.00  0.00    -0.049 A 
ATOM     14  C   UNL     1      54.005  13.509  21.071  0.00  0.00    +0.215 A 
ATOM     15  C   UNL     1      54.028  14.714  20.355  0.00  0.00    -0.171 A 
ATOM     16  C   UNL     1      55.332  15.374  20.130  0.00  0.00    +0.056 C 
ATOM     17  C   UNL     1      56.438  14.655  20.311  0.00  0.00    -0.047 C 
ATOM     18  C   UNL     1      56.337  13.210  20.722  0.00  0.00    +0.145 C 
ATOM     19  C   UNL     1      57.583  12.822  21.521  0.00  0.00    +0.088 C 
ATOM     20  C   UNL     1      56.248  12.334  19.470  0.00  0.00    +0.039 C 
ATOM     21  O   UNL     1      55.177  12.998  21.528  0.00  0.00    -0.293 OA
ATOM     22  C   UNL     1      52.842  15.266  19.872  0.00  0.00    +0.210 A 
ATOM     23  O   UNL     1      52.842  16.424  19.182  0.00  0.00    -0.211 OA
ATOM     24  O   UNL     1      49.305  14.652  19.776  0.00  0.00    -0.446 OA
ATOM     25  C   UNL     1      51.715  16.974  18.702  0.00  0.00    +0.184 A 
ENDROOT
BRANCH  25  26
ATOM     26  C   UNL     1      51.806  18.240  17.954  0.00  0.00    -0.079 A 
ATOM     27  C   UNL     1      51.749  19.462  18.632  0.00  0.00    +0.066 A 
ATOM     28  C   UNL     1      51.835  20.645  17.926  0.00  0.00    +0.074 A 
ATOM     31  C   UNL     1      51.978  20.624  16.539  0.00  0.00    +0.125 A 
ATOM     34  C   UNL     1      52.035  19.416  15.861  0.00  0.00    -0.011 A 
ATOM     35  C   UNL     1      51.957  18.224  16.559  0.00  0.00    +0.159 A 
BRANCH  28  29
ATOM     29  O   UNL     1      51.779  21.833  18.585  0.00  0.00    -0.481 OA
ATOM     30  H   UNL     1      52.000  21.773  19.525  0.00  0.00    +0.391 HD
ENDBRANCH  28  29
BRANCH  31  32
ATOM     32  O   UNL     1      52.062  21.791  15.850  0.00  0.00    -0.483 OA
ATOM     33  H   UNL     1      52.096  21.679  14.889  0.00  0.00    +0.396 HD
ENDBRANCH  31  32
BRANCH  35  36
ATOM     36  O   UNL     1      52.019  17.040  15.896  0.00  0.00    -0.484 OA
ATOM     37  H   UNL     1      52.916  16.767  15.661  0.00  0.00    +0.399 HD
ENDBRANCH  35  36
ENDBRANCH  25  26
BRANCH  10  11
ATOM     11  O   UNL     1      50.446  12.751  21.059  0.00  0.00    -0.470 OA
ATOM     12  H   UNL     1      50.170  12.756  21.985  0.00  0.00    +0.404 HD
ENDBRANCH  10  11
BRANCH   7   6
ATOM      6  C   UNL     1      49.256  17.071  18.330  0.00  0.00    +0.117 C 
BRANCH   6   5
ATOM      5  C   UNL     1      48.573  17.884  19.432  0.00  0.00    +0.051 C 
BRANCH   5   4
ATOM      1  C   UNL     1      48.535  20.645  20.006  0.00  0.00    +0.069 C 
ATOM      2  C   UNL     1      47.465  20.039  19.133  0.00  0.00    -0.138 C 
ATOM      3  C   UNL     1      46.336  20.897  18.622  0.00  0.00    +0.072 C 
ATOM      4  C   UNL     1      47.516  18.768  18.820  0.00  0.00    -0.048 C 
ENDBRANCH   5   4
ENDBRANCH   6   5
ENDBRANCH   7   6
TORSDOF 8
ENDMDL
MODEL 6
REMARK VINA RESULT:      -5.6      3.463      7.070
REMARK  Name = ZINC95485991
REMARK  12 active torsions:
REMARK  status: ('A' for Active; 'I' for Inactive)
REMARK    1  A    between atoms: C1_1  and  C2_2
REMARK    2  A    between atoms: C2_2  and  C26_33
REMARK    3  A    between atoms: C3_3  and  C4_4
REMARK    4  A    between atoms: C4_4  and  C5_5
REMARK    5  A    between atoms: C5_5  and  C6_6
REMARK    6  A    between atoms: C9_10  and  O7_32
REMARK    7  A    between atoms: C14_16  and  C15_17
REMARK    8  A    between atoms: C17_19  and  O5_25
REMARK    9  A    between atoms: C18_20  and  O4_24
REMARK   10  A    between atoms: C20_22  and  O3_23
REMARK   11  A    between atoms: C23_28  and  C24_30
REMARK   12  A    between atoms: C23_28  and  C25_31
REMARK                            x       y       z     vdW  Elec       q    Type
REMARK                         _______ _______ _______ _____ _____    ______ ____
ROOT
ATOM      7  C   UNL     1      46.096  18.578  21.383  0.00  0.00    -0.233 A 
ATOM      8  C   UNL     1      47.378  18.003  21.538  0.00  0.00    +0.429 A 
ATOM      9  C   UNL     1      47.839  17.078  20.489  0.00  0.00    -0.284 A 
ATOM     10  C   UNL     1      49.096  16.463  20.563  0.00  0.00    +0.239 A 
ATOM     13  C   UNL     1      49.504  15.599  19.561  0.00  0.00    -0.049 A 
ATOM     14  C   UNL     1      48.671  15.338  18.484  0.00  0.00    +0.215 A 
ATOM     15  C   UNL     1      47.410  15.947  18.401  0.00  0.00    -0.171 A 
ATOM     16  C   UNL     1      46.555  15.638  17.236  0.00  0.00    +0.056 C 
ATOM     17  C   UNL     1      46.857  14.568  16.503  0.00  0.00    -0.047 C 
ATOM     18  C   UNL     1      48.033  13.705  16.879  0.00  0.00    +0.145 C 
ATOM     19  C   UNL     1      48.597  13.042  15.621  0.00  0.00    +0.088 C 
ATOM     20  C   UNL     1      47.573  12.622  17.857  0.00  0.00    +0.039 C 
ATOM     21  O   UNL     1      49.054  14.492  17.494  0.00  0.00    -0.293 OA
ATOM     22  C   UNL     1      46.986  16.821  19.402  0.00  0.00    +0.210 A 
ATOM     23  O   UNL     1      45.779  17.418  19.341  0.00  0.00    -0.211 OA
ATOM     24  O   UNL     1      48.076  18.262  22.505  0.00  0.00    -0.446 OA
ATOM     25  C   UNL     1      45.345  18.259  20.293  0.00  0.00    +0.184 A 
ENDROOT
BRANCH  25  26
ATOM     26  C   UNL     1      44.010  18.863  20.150  0.00  0.00    -0.079 A 
ATOM     27  C   UNL     1      43.082  18.773  21.194  0.00  0.00    +0.066 A 
ATOM     28  C   UNL     1      41.833  19.342  21.054  0.00  0.00    +0.074 A 
ATOM     31  C   UNL     1      41.492  20.005  19.875  0.00  0.00    +0.125 A 
ATOM     34  C   UNL     1      42.406  20.098  18.838  0.00  0.00    -0.011 A 
ATOM     35  C   UNL     1      43.665  19.538  18.969  0.00  0.00    +0.159 A 
BRANCH  28  29
ATOM     29  O   UNL     1      40.930  19.253  22.068  0.00  0.00    -0.481 OA
ATOM     30  H   UNL     1      41.158  18.597  22.741  0.00  0.00    +0.391 HD
ENDBRANCH  28  29
BRANCH  31  32
ATOM     32  O   UNL     1      40.261  20.562  19.744  0.00  0.00    -0.483 OA
ATOM     33  H   UNL     1      40.020  21.160  20.465  0.00  0.00    +0.396 HD
ENDBRANCH  31  32
BRANCH  35  36
ATOM     36  O   UNL     1      44.563  19.634  17.954  0.00  0.00    -0.484 OA
ATOM     37  H   UNL     1      44.812  18.784  17.568  0.00  0.00    +0.399 HD
ENDBRANCH  35  36
ENDBRANCH  25  26
BRANCH  10  11
ATOM     11  O   UNL     1      49.914  16.716  21.615  0.00  0.00    -0.470 OA
ATOM     12  H   UNL     1      50.246  17.624  21.645  0.00  0.00    +0.404 HD
ENDBRANCH  10  11
BRANCH   7   6
ATOM      6  C   UNL     1      45.562  19.533  22.420  0.00  0.00    +0.117 C 
BRANCH   6   5
ATOM      5  C   UNL     1      46.250  20.891  22.266  0.00  0.00    +0.051 C 
BRANCH   5   4
ATOM      1  C   UNL     1      46.647  21.689  19.590  0.00  0.00    +0.069 C 
ATOM      2  C   UNL     1      45.517  22.278  20.395  0.00  0.00    -0.138 C 
ATOM      3  C   UNL     1      44.639  23.344  19.791  0.00  0.00    +0.072 C 
ATOM      4  C   UNL     1      45.299  21.865  21.619  0.00  0.00    -0.048 C 
ENDBRANCH   5   4
ENDBRANCH   6   5
ENDBRANCH   7   6
TORSDOF 8
ENDMDL
MODEL 7
REMARK VINA RESULT:      -5.5      2.188      4.139
REMARK  Name = ZINC95485991
REMARK  12 active torsions:
REMARK  status: ('A' for Active; 'I' for Inactive)
REMARK    1  A    between atoms: C1_1  and  C2_2
REMARK    2  A    between atoms: C2_2  and  C26_33
REMARK    3  A    between atoms: C3_3  and  C4_4
REMARK    4  A    between atoms: C4_4  and  C5_5
REMARK    5  A    between atoms: C5_5  and  C6_6
REMARK    6  A    between atoms: C9_10  and  O7_32
REMARK    7  A    between atoms: C14_16  and  C15_17
REMARK    8  A    between atoms: C17_19  and  O5_25
REMARK    9  A    between atoms: C18_20  and  O4_24
REMARK   10  A    between atoms: C20_22  and  O3_23
REMARK   11  A    between atoms: C23_28  and  C24_30
REMARK   12  A    between atoms: C23_28  and  C25_31
REMARK                            x       y       z     vdW  Elec       q    Type
REMARK                         _______ _______ _______ _____ _____    ______ ____
ROOT
ATOM      7  C   UNL     1      50.211  19.148  20.570  0.00  0.00    -0.233 A 
ATOM      8  C   UNL     1      49.580  20.259  21.173  0.00  0.00    +0.429 A 
ATOM      9  C   UNL     1      48.108  20.251  21.240  0.00  0.00    -0.284 A 
ATOM     10  C   UNL     1      47.401  21.312  21.820  0.00  0.00    +0.239 A 
ATOM     13  C   UNL     1      46.018  21.278  21.871  0.00  0.00    -0.049 A 
ATOM     14  C   UNL     1      45.329  20.195  21.347  0.00  0.00    +0.215 A 
ATOM     15  C   UNL     1      46.027  19.128  20.762  0.00  0.00    -0.171 A 
ATOM     16  C   UNL     1      45.251  17.995  20.215  0.00  0.00    +0.056 C 
ATOM     17  C   UNL     1      43.950  18.174  19.995  0.00  0.00    -0.047 C 
ATOM     18  C   UNL     1      43.314  19.507  20.292  0.00  0.00    +0.145 C 
ATOM     19  C   UNL     1      41.840  19.296  20.645  0.00  0.00    +0.088 C 
ATOM     20  C   UNL     1      43.413  20.401  19.054  0.00  0.00    +0.039 C 
ATOM     21  O   UNL     1      43.973  20.143  21.387  0.00  0.00    -0.293 OA
ATOM     22  C   UNL     1      47.421  19.149  20.705  0.00  0.00    +0.210 A 
ATOM     23  O   UNL     1      48.111  18.133  20.149  0.00  0.00    -0.211 OA
ATOM     24  O   UNL     1      50.229  21.191  21.620  0.00  0.00    -0.446 OA
ATOM     25  C   UNL     1      49.452  18.130  20.077  0.00  0.00    +0.184 A 
ENDROOT
BRANCH  25  26
ATOM     26  C   UNL     1      50.126  16.982  19.448  0.00  0.00    -0.079 A 
ATOM     27  C   UNL     1      50.856  16.081  20.231  0.00  0.00    +0.066 A 
ATOM     28  C   UNL     1      51.485  15.006  19.635  0.00  0.00    +0.074 A 
ATOM     31  C   UNL     1      51.396  14.818  18.256  0.00  0.00    +0.125 A 
ATOM     34  C   UNL     1      50.674  15.708  17.475  0.00  0.00    -0.011 A 
ATOM     35  C   UNL     1      50.033  16.785  18.062  0.00  0.00    +0.159 A 
BRANCH  28  29
ATOM     29  O   UNL     1      52.196  14.131  20.395  0.00  0.00    -0.481 OA
ATOM     30  H   UNL     1      52.255  14.377  21.329  0.00  0.00    +0.391 HD
ENDBRANCH  28  29
BRANCH  31  32
ATOM     32  O   UNL     1      52.018  13.759  17.676  0.00  0.00    -0.483 OA
ATOM     33  H   UNL     1      51.809  13.646  16.738  0.00  0.00    +0.396 HD
ENDBRANCH  31  32
BRANCH  35  36
ATOM     36  O   UNL     1      49.321  17.653  17.298  0.00  0.00    -0.484 OA
ATOM     37  H   UNL     1      49.851  18.125  16.642  0.00  0.00    +0.399 HD
ENDBRANCH  35  36
ENDBRANCH  25  26
BRANCH  10  11
ATOM     11  O   UNL     1      48.072  22.373  22.335  0.00  0.00    -0.470 OA
ATOM     12  H   UNL     1      48.806  22.131  22.915  0.00  0.00    +0.404 HD
ENDBRANCH  10  11
BRANCH   7   6
ATOM      6  C   UNL     1      51.714  19.092  20.468  0.00  0.00    +0.117 C 
BRANCH   6   5
ATOM      5  C   UNL     1      52.198  20.146  19.470  0.00  0.00    +0.051 C 
BRANCH   5   4
ATOM      1  C   UNL     1      51.114  21.226  17.101  0.00  0.00    +0.069 C 
ATOM      2  C   UNL     1      51.928  19.958  17.051  0.00  0.00    -0.138 C 
ATOM      3  C   UNL     1      52.107  19.230  15.744  0.00  0.00    +0.072 C 
ATOM      4  C   UNL     1      52.478  19.488  18.143  0.00  0.00    -0.048 C 
ENDBRANCH   5   4
ENDBRANCH   6   5
ENDBRANCH   7   6
TORSDOF 8
ENDMDL
MODEL 8
REMARK VINA RESULT:      -5.5      3.466      7.728
REMARK  Name = ZINC95485991
REMARK  12 active torsions:
REMARK  status: ('A' for Active; 'I' for Inactive)
REMARK    1  A    between atoms: C1_1  and  C2_2
REMARK    2  A    between atoms: C2_2  and  C26_33
REMARK    3  A    between atoms: C3_3  and  C4_4
REMARK    4  A    between atoms: C4_4  and  C5_5
REMARK    5  A    between atoms: C5_5  and  C6_6
REMARK    6  A    between atoms: C9_10  and  O7_32
REMARK    7  A    between atoms: C14_16  and  C15_17
REMARK    8  A    between atoms: C17_19  and  O5_25
REMARK    9  A    between atoms: C18_20  and  O4_24
REMARK   10  A    between atoms: C20_22  and  O3_23
REMARK   11  A    between atoms: C23_28  and  C24_30
REMARK   12  A    between atoms: C23_28  and  C25_31
REMARK                            x       y       z     vdW  Elec       q    Type
REMARK                         _______ _______ _______ _____ _____    ______ ____
ROOT
ATOM      7  C   UNL     1      50.465  16.185  18.044  0.00  0.00    -0.233 A 
ATOM      8  C   UNL     1      50.357  14.905  18.634  0.00  0.00    +0.429 A 
ATOM      9  C   UNL     1      51.546  14.372  19.322  0.00  0.00    -0.284 A 
ATOM     10  C   UNL     1      51.527  13.112  19.934  0.00  0.00    +0.239 A 
ATOM     13  C   UNL     1      52.658  12.636  20.575  0.00  0.00    -0.049 A 
ATOM     14  C   UNL     1      53.812  13.403  20.611  0.00  0.00    +0.215 A 
ATOM     15  C   UNL     1      53.842  14.666  20.000  0.00  0.00    -0.171 A 
ATOM     16  C   UNL     1      55.095  15.448  20.063  0.00  0.00    +0.056 C 
ATOM     17  C   UNL     1      56.217  14.810  20.388  0.00  0.00    -0.047 C 
ATOM     18  C   UNL     1      56.187  13.330  20.668  0.00  0.00    +0.145 C 
ATOM     19  C   UNL     1      57.307  12.978  21.648  0.00  0.00    +0.088 C 
ATOM     20  C   UNL     1      56.401  12.564  19.361  0.00  0.00    +0.039 C 
ATOM     21  O   UNL     1      54.931  12.953  21.234  0.00  0.00    -0.293 OA
ATOM     22  C   UNL     1      52.709  15.158  19.352  0.00  0.00    +0.210 A 
ATOM     23  O   UNL     1      52.716  16.369  18.759  0.00  0.00    -0.211 OA
ATOM     24  O   UNL     1      49.319  14.266  18.575  0.00  0.00    -0.446 OA
ATOM     25  C   UNL     1      51.642  16.865  18.125  0.00  0.00    +0.184 A 
ENDROOT
BRANCH  25  26
ATOM     26  C   UNL     1      51.738  18.195  17.500  0.00  0.00    -0.079 A 
ATOM     27  C   UNL     1      51.546  19.348  18.269  0.00  0.00    +0.066 A 
ATOM     28  C   UNL     1      51.638  20.591  17.677  0.00  0.00    +0.074 A 
ATOM     31  C   UNL     1      51.921  20.701  16.316  0.00  0.00    +0.125 A 
ATOM     34  C   UNL     1      52.112  19.562  15.549  0.00  0.00    -0.011 A 
ATOM     35  C   UNL     1      52.030  18.310  16.132  0.00  0.00    +0.159 A 
BRANCH  28  29
ATOM     29  O   UNL     1      51.449  21.712  18.424  0.00  0.00    -0.481 OA
ATOM     30  H   UNL     1      50.614  22.168  18.247  0.00  0.00    +0.391 HD
ENDBRANCH  28  29
BRANCH  31  32
ATOM     32  O   UNL     1      52.009  21.927  15.740  0.00  0.00    -0.483 OA
ATOM     33  H   UNL     1      52.900  22.304  15.751  0.00  0.00    +0.396 HD
ENDBRANCH  31  32
BRANCH  35  36
ATOM     36  O   UNL     1      52.223  17.194  15.382  0.00  0.00    -0.484 OA
ATOM     37  H   UNL     1      51.510  17.013  14.755  0.00  0.00    +0.399 HD
ENDBRANCH  35  36
ENDBRANCH  25  26
BRANCH  10  11
ATOM     11  O   UNL     1      50.399  12.359  19.901  0.00  0.00    -0.470 OA
ATOM     12  H   UNL     1      49.628  12.820  19.545  0.00  0.00    +0.404 HD
ENDBRANCH  10  11
BRANCH   7   6
ATOM      6  C   UNL     1      49.287  16.790  17.324  0.00  0.00    +0.117 C 
BRANCH   6   5
ATOM      5  C   UNL     1      48.433  17.582  18.316  0.00  0.00    +0.051 C 
BRANCH   5   4
ATOM      1  C   UNL     1      47.611  16.495  20.785  0.00  0.00    +0.069 C 
ATOM      2  C   UNL     1      46.722  16.378  19.574  0.00  0.00    -0.138 C 
ATOM      3  C   UNL     1      45.421  15.622  19.665  0.00  0.00    +0.072 C 
ATOM      4  C   UNL     1      47.079  16.933  18.442  0.00  0.00    -0.048 C 
ENDBRANCH   5   4
ENDBRANCH   6   5
ENDBRANCH   7   6
TORSDOF 8
ENDMDL
MODEL 9
REMARK VINA RESULT:      -5.2      2.999      6.561
REMARK  Name = ZINC95485991
REMARK  12 active torsions:
REMARK  status: ('A' for Active; 'I' for Inactive)
REMARK    1  A    between atoms: C1_1  and  C2_2
REMARK    2  A    between atoms: C2_2  and  C26_33
REMARK    3  A    between atoms: C3_3  and  C4_4
REMARK    4  A    between atoms: C4_4  and  C5_5
REMARK    5  A    between atoms: C5_5  and  C6_6
REMARK    6  A    between atoms: C9_10  and  O7_32
REMARK    7  A    between atoms: C14_16  and  C15_17
REMARK    8  A    between atoms: C17_19  and  O5_25
REMARK    9  A    between atoms: C18_20  and  O4_24
REMARK   10  A    between atoms: C20_22  and  O3_23
REMARK   11  A    between atoms: C23_28  and  C24_30
REMARK   12  A    between atoms: C23_28  and  C25_31
REMARK                            x       y       z     vdW  Elec       q    Type
REMARK                         _______ _______ _______ _____ _____    ______ ____
ROOT
ATOM      7  C   UNL     1      47.277  17.881  20.843  0.00  0.00    -0.233 A 
ATOM      8  C   UNL     1      48.514  17.198  20.842  0.00  0.00    +0.429 A 
ATOM      9  C   UNL     1      48.686  16.109  19.863  0.00  0.00    -0.284 A 
ATOM     10  C   UNL     1      49.880  15.379  19.792  0.00  0.00    +0.239 A 
ATOM     13  C   UNL     1      50.016  14.363  18.862  0.00  0.00    -0.049 A 
ATOM     14  C   UNL     1      48.972  14.063  18.001  0.00  0.00    +0.215 A 
ATOM     15  C   UNL     1      47.772  14.787  18.065  0.00  0.00    -0.171 A 
ATOM     16  C   UNL     1      46.686  14.432  17.128  0.00  0.00    +0.056 C 
ATOM     17  C   UNL     1      46.752  13.256  16.507  0.00  0.00    -0.047 C 
ATOM     18  C   UNL     1      47.906  12.326  16.779  0.00  0.00    +0.145 C 
ATOM     19  C   UNL     1      48.160  11.461  15.543  0.00  0.00    +0.088 C 
ATOM     20  C   UNL     1      47.558  11.422  17.964  0.00  0.00    +0.039 C 
ATOM     21  O   UNL     1      49.086  13.069  17.083  0.00  0.00    -0.293 OA
ATOM     22  C   UNL     1      47.622  15.814  18.996  0.00  0.00    +0.210 A 
ATOM     23  O   UNL     1      46.478  16.523  19.073  0.00  0.00    -0.211 OA
ATOM     24  O   UNL     1      49.404  17.496  21.621  0.00  0.00    -0.446 OA
ATOM     25  C   UNL     1      46.305  17.514  19.963  0.00  0.00    +0.184 A 
ENDROOT
BRANCH  25  26
ATOM     26  C   UNL     1      45.021  18.234  19.982  0.00  0.00    -0.079 A 
ATOM     27  C   UNL     1      44.072  17.950  20.971  0.00  0.00    +0.066 A 
ATOM     28  C   UNL     1      42.870  18.628  20.984  0.00  0.00    +0.074 A 
ATOM     31  C   UNL     1      42.599  19.594  20.015  0.00  0.00    +0.125 A 
ATOM     34  C   UNL     1      43.535  19.880  19.034  0.00  0.00    -0.011 A 
ATOM     35  C   UNL     1      44.747  19.211  19.014  0.00  0.00    +0.159 A 
BRANCH  28  29
ATOM     29  O   UNL     1      41.946  18.351  21.944  0.00  0.00    -0.481 OA
ATOM     30  H   UNL     1      41.668  19.123  22.456  0.00  0.00    +0.391 HD
ENDBRANCH  28  29
BRANCH  31  32
ATOM     32  O   UNL     1      41.414  20.257  20.034  0.00  0.00    -0.483 OA
ATOM     33  H   UNL     1      41.503  21.221  20.069  0.00  0.00    +0.396 HD
ENDBRANCH  31  32
BRANCH  35  36
ATOM     36  O   UNL     1      45.666  19.496  18.056  0.00  0.00    -0.484 OA
ATOM     37  H   UNL     1      46.494  19.005  18.147  0.00  0.00    +0.399 HD
ENDBRANCH  35  36
ENDBRANCH  25  26
BRANCH  10  11
ATOM     11  O   UNL     1      50.905  15.670  20.633  0.00  0.00    -0.470 OA
ATOM     12  H   UNL     1      51.743  15.847  20.185  0.00  0.00    +0.404 HD
ENDBRANCH  10  11
BRANCH   7   6
ATOM      6  C   UNL     1      47.032  19.005  21.818  0.00  0.00    +0.117 C 
BRANCH   6   5
ATOM      5  C   UNL     1      47.343  20.342  21.144  0.00  0.00    +0.051 C 
BRANCH   5   4
ATOM      1  C   UNL     1      49.175  20.578  19.013  0.00  0.00    +0.069 C 
ATOM      2  C   UNL     1      49.638  20.775  20.434  0.00  0.00    -0.138 C 
ATOM      3  C   UNL     1      51.095  21.032  20.722  0.00  0.00    +0.072 C 
ATOM      4  C   UNL     1      48.775  20.722  21.418  0.00  0.00    -0.048 C 
ENDBRANCH   5   4
ENDBRANCH   6   5
ENDBRANCH   7   6
TORSDOF 8
ENDMDL
