MODEL 1
REMARK VINA RESULT:      -7.6      0.000      0.000
REMARK  Name = ZINC95486109
REMARK  8 active torsions:
REMARK  status: ('A' for Active; 'I' for Inactive)
REMARK    1  A    between atoms: C1_1  and  C2_2
REMARK    2  A    between atoms: C6_6  and  C29_34
REMARK    3  A    between atoms: C6_6  and  O3_35
REMARK    4  A    between atoms: C10_11  and  C28_33
REMARK    5  A    between atoms: C14_16  and  C27_32
REMARK    6  A    between atoms: C18_20  and  C26_29
REMARK    7  A    between atoms: C21_24  and  C24_27
REMARK    8  A    between atoms: C21_24  and  C25_28
REMARK                            x       y       z     vdW  Elec       q    Type
REMARK                         _______ _______ _______ _____ _____    ______ ____
ROOT
ATOM      1  C   UNL     1      50.428  17.895  19.884  0.00  0.00    +0.031 C 
ATOM      2  C   UNL     1      49.886  19.189  19.301  0.00  0.00    -0.035 C 
ATOM      3  C   UNL     1      50.335  19.265  17.829  0.00  0.00    +0.007 C 
ATOM      4  C   UNL     1      51.859  19.303  17.758  0.00  0.00    +0.006 C 
ATOM      5  C   UNL     1      52.394  20.531  18.487  0.00  0.00    -0.019 C 
ATOM      6  C   UNL     1      51.931  20.548  19.947  0.00  0.00    +0.146 C 
ATOM      9  C   UNL     1      52.364  21.902  20.545  0.00  0.00    -0.007 C 
ATOM     10  C   UNL     1      48.358  19.254  19.334  0.00  0.00    -0.001 C 
ATOM     11  C   UNL     1      47.687  18.159  18.536  0.00  0.00    +0.005 C 
ATOM     12  C   UNL     1      46.179  18.344  18.422  0.00  0.00    +0.013 C 
ATOM     13  C   UNL     1      45.613  19.493  19.251  0.00  0.00    +0.014 C 
ATOM     14  C   UNL     1      45.912  20.799  18.507  0.00  0.00    +0.006 C 
ATOM     15  C   UNL     1      46.260  19.552  20.598  0.00  0.00    -0.116 C 
ATOM     16  C   UNL     1      45.603  19.737  21.712  0.00  0.00    -0.013 C 
ATOM     17  C   UNL     1      44.101  19.826  21.729  0.00  0.00    +0.048 C 
ATOM     18  C   UNL     1      43.604  18.855  20.649  0.00  0.00    -0.113 C 
ATOM     22  C   UNL     1      42.082  18.755  20.703  0.00  0.00    +0.014 C 
ATOM     23  C   UNL     1      41.451  20.110  20.408  0.00  0.00    +0.002 C 
ATOM     24  C   UNL     1      41.879  20.598  19.029  0.00  0.00    -0.065 C 
ATOM     25  C   UNL     1      41.312  22.011  18.810  0.00  0.00    +0.006 C 
ATOM     26  C   UNL     1      41.329  19.680  17.938  0.00  0.00    +0.017 C 
ATOM     27  C   UNL     1      43.406  20.675  18.931  0.00  0.00    +0.017 C 
ATOM     28  C   UNL     1      44.085  19.363  19.297  0.00  0.00    +0.020 C 
ATOM     29  C   UNL     1      47.770  19.369  20.729  0.00  0.00    +0.003 C 
ATOM     30  C   UNL     1      47.980  18.113  21.590  0.00  0.00    +0.031 C 
ATOM     31  C   UNL     1      48.368  20.581  21.443  0.00  0.00    +0.009 C 
ATOM     32  C   UNL     1      49.898  20.485  21.453  0.00  0.00    +0.015 C 
ATOM     33  C   UNL     1      50.418  20.431  20.021  0.00  0.00    +0.016 C 
ENDROOT
BRANCH  18  19
ATOM     19  C   UNL     1      44.162  17.476  20.924  0.00  0.00    +0.513 C 
ATOM     20  O   UNL     1      44.390  16.715  20.001  0.00  0.00    -0.704 OA
ATOM     21  O   UNL     1      44.383  17.126  22.071  0.00  0.00    -0.686 OA
ENDBRANCH  18  19
BRANCH   6   7
ATOM      7  O   UNL     1      52.587  19.515  20.677  0.00  0.00    -0.545 OA
ATOM      8  H   UNL     1      52.036  19.104  21.358  0.00  0.00    +0.366 HD
ENDBRANCH   6   7
TORSDOF 2
ENDMDL
MODEL 2
REMARK VINA RESULT:      -6.7      1.570      7.504
REMARK  Name = ZINC95486109
REMARK  8 active torsions:
REMARK  status: ('A' for Active; 'I' for Inactive)
REMARK    1  A    between atoms: C1_1  and  C2_2
REMARK    2  A    between atoms: C6_6  and  C29_34
REMARK    3  A    between atoms: C6_6  and  O3_35
REMARK    4  A    between atoms: C10_11  and  C28_33
REMARK    5  A    between atoms: C14_16  and  C27_32
REMARK    6  A    between atoms: C18_20  and  C26_29
REMARK    7  A    between atoms: C21_24  and  C24_27
REMARK    8  A    between atoms: C21_24  and  C25_28
REMARK                            x       y       z     vdW  Elec       q    Type
REMARK                         _______ _______ _______ _____ _____    ______ ____
ROOT
ATOM      1  C   UNL     1      44.426  21.167  21.278  0.00  0.00    +0.031 C 
ATOM      2  C   UNL     1      44.484  19.959  20.357  0.00  0.00    -0.035 C 
ATOM      3  C   UNL     1      43.599  20.259  19.133  0.00  0.00    +0.007 C 
ATOM      4  C   UNL     1      42.153  20.457  19.580  0.00  0.00    +0.006 C 
ATOM      5  C   UNL     1      41.628  19.195  20.254  0.00  0.00    -0.019 C 
ATOM      6  C   UNL     1      42.504  18.805  21.449  0.00  0.00    +0.146 C 
ATOM      9  C   UNL     1      42.006  17.433  21.948  0.00  0.00    -0.007 C 
ATOM     10  C   UNL     1      45.901  19.668  19.858  0.00  0.00    -0.001 C 
ATOM     11  C   UNL     1      46.504  20.798  19.054  0.00  0.00    +0.005 C 
ATOM     12  C   UNL     1      47.832  20.426  18.407  0.00  0.00    +0.013 C 
ATOM     13  C   UNL     1      48.376  19.058  18.811  0.00  0.00    +0.014 C 
ATOM     14  C   UNL     1      47.601  17.995  18.026  0.00  0.00    +0.006 C 
ATOM     15  C   UNL     1      48.177  18.812  20.273  0.00  0.00    -0.116 C 
ATOM     16  C   UNL     1      49.092  18.305  21.055  0.00  0.00    -0.013 C 
ATOM     17  C   UNL     1      50.475  17.998  20.547  0.00  0.00    +0.048 C 
ATOM     18  C   UNL     1      50.804  19.092  19.521  0.00  0.00    -0.113 C 
ATOM     22  C   UNL     1      52.255  18.958  19.067  0.00  0.00    +0.014 C 
ATOM     23  C   UNL     1      52.472  17.618  18.375  0.00  0.00    +0.002 C 
ATOM     24  C   UNL     1      51.550  17.496  17.168  0.00  0.00    -0.065 C 
ATOM     25  C   UNL     1      51.720  16.095  16.559  0.00  0.00    +0.006 C 
ATOM     26  C   UNL     1      51.915  18.534  16.106  0.00  0.00    +0.017 C 
ATOM     27  C   UNL     1      50.086  17.664  17.585  0.00  0.00    +0.017 C 
ATOM     28  C   UNL     1      49.837  18.954  18.353  0.00  0.00    +0.020 C 
ATOM     29  C   UNL     1      46.852  19.180  20.936  0.00  0.00    +0.003 C 
ATOM     30  C   UNL     1      47.180  20.244  21.995  0.00  0.00    +0.031 C 
ATOM     31  C   UNL     1      46.267  17.945  21.620  0.00  0.00    +0.009 C 
ATOM     32  C   UNL     1      44.868  18.256  22.164  0.00  0.00    +0.015 C 
ATOM     33  C   UNL     1      43.956  18.685  21.020  0.00  0.00    +0.016 C 
ENDROOT
BRANCH  18  19
ATOM     19  C   UNL     1      50.653  20.448  20.174  0.00  0.00    +0.513 C 
ATOM     20  O   UNL     1      50.714  20.552  21.386  0.00  0.00    -0.704 OA
ATOM     21  O   UNL     1      50.472  21.438  19.485  0.00  0.00    -0.686 OA
ENDBRANCH  18  19
BRANCH   6   7
ATOM      7  O   UNL     1      42.331  19.746  22.505  0.00  0.00    -0.545 OA
ATOM      8  H   UNL     1      42.415  19.363  23.390  0.00  0.00    +0.366 HD
ENDBRANCH   6   7
TORSDOF 2
ENDMDL
MODEL 3
REMARK VINA RESULT:      -6.6      3.671      7.389
REMARK  Name = ZINC95486109
REMARK  8 active torsions:
REMARK  status: ('A' for Active; 'I' for Inactive)
REMARK    1  A    between atoms: C1_1  and  C2_2
REMARK    2  A    between atoms: C6_6  and  C29_34
REMARK    3  A    between atoms: C6_6  and  O3_35
REMARK    4  A    between atoms: C10_11  and  C28_33
REMARK    5  A    between atoms: C14_16  and  C27_32
REMARK    6  A    between atoms: C18_20  and  C26_29
REMARK    7  A    between atoms: C21_24  and  C24_27
REMARK    8  A    between atoms: C21_24  and  C25_28
REMARK                            x       y       z     vdW  Elec       q    Type
REMARK                         _______ _______ _______ _____ _____    ______ ____
ROOT
ATOM      1  C   UNL     1      46.239  19.590  21.062  0.00  0.00    +0.031 C 
ATOM      2  C   UNL     1      45.598  19.068  19.787  0.00  0.00    -0.035 C 
ATOM      3  C   UNL     1      45.604  20.212  18.755  0.00  0.00    +0.007 C 
ATOM      4  C   UNL     1      44.769  21.379  19.276  0.00  0.00    +0.006 C 
ATOM      5  C   UNL     1      43.325  20.940  19.497  0.00  0.00    -0.019 C 
ATOM      6  C   UNL     1      43.252  19.759  20.470  0.00  0.00    +0.146 C 
ATOM      9  C   UNL     1      41.788  19.277  20.488  0.00  0.00    -0.007 C 
ATOM     10  C   UNL     1      46.359  17.885  19.187  0.00  0.00    -0.001 C 
ATOM     11  C   UNL     1      47.782  18.215  18.797  0.00  0.00    +0.005 C 
ATOM     12  C   UNL     1      48.467  17.089  18.032  0.00  0.00    +0.013 C 
ATOM     13  C   UNL     1      47.658  15.798  17.939  0.00  0.00    +0.014 C 
ATOM     14  C   UNL     1      46.588  15.992  16.860  0.00  0.00    +0.006 C 
ATOM     15  C   UNL     1      46.978  15.497  19.237  0.00  0.00    -0.116 C 
ATOM     16  C   UNL     1      46.945  14.310  19.782  0.00  0.00    -0.013 C 
ATOM     17  C   UNL     1      47.677  13.147  19.168  0.00  0.00    +0.048 C 
ATOM     18  C   UNL     1      48.964  13.724  18.565  0.00  0.00    -0.113 C 
ATOM     22  C   UNL     1      49.854  12.590  18.059  0.00  0.00    +0.014 C 
ATOM     23  C   UNL     1      49.149  11.818  16.951  0.00  0.00    +0.002 C 
ATOM     24  C   UNL     1      48.811  12.751  15.795  0.00  0.00    -0.065 C 
ATOM     25  C   UNL     1      48.010  11.963  14.746  0.00  0.00    +0.006 C 
ATOM     26  C   UNL     1      50.087  13.276  15.137  0.00  0.00    +0.017 C 
ATOM     27  C   UNL     1      47.948  13.921  16.277  0.00  0.00    +0.017 C 
ATOM     28  C   UNL     1      48.577  14.675  17.441  0.00  0.00    +0.020 C 
ATOM     29  C   UNL     1      46.287  16.614  20.015  0.00  0.00    +0.003 C 
ATOM     30  C   UNL     1      47.018  16.717  21.363  0.00  0.00    +0.031 C 
ATOM     31  C   UNL     1      44.826  16.237  20.256  0.00  0.00    +0.009 C 
ATOM     32  C   UNL     1      44.079  17.408  20.905  0.00  0.00    +0.015 C 
ATOM     33  C   UNL     1      44.146  18.628  19.993  0.00  0.00    +0.016 C 
ENDROOT
BRANCH  18  19
ATOM     19  C   UNL     1      49.732  14.461  19.639  0.00  0.00    +0.513 C 
ATOM     20  O   UNL     1      49.540  14.200  20.814  0.00  0.00    -0.704 OA
ATOM     21  O   UNL     1      50.543  15.318  19.329  0.00  0.00    -0.686 OA
ENDBRANCH  18  19
BRANCH   6   7
ATOM      7  O   UNL     1      43.588  20.193  21.786  0.00  0.00    -0.545 OA
ATOM      8  H   UNL     1      42.825  20.445  22.323  0.00  0.00    +0.366 HD
ENDBRANCH   6   7
TORSDOF 2
ENDMDL
MODEL 4
REMARK VINA RESULT:      -6.5      2.933      6.640
REMARK  Name = ZINC95486109
REMARK  8 active torsions:
REMARK  status: ('A' for Active; 'I' for Inactive)
REMARK    1  A    between atoms: C1_1  and  C2_2
REMARK    2  A    between atoms: C6_6  and  C29_34
REMARK    3  A    between atoms: C6_6  and  O3_35
REMARK    4  A    between atoms: C10_11  and  C28_33
REMARK    5  A    between atoms: C14_16  and  C27_32
REMARK    6  A    between atoms: C18_20  and  C26_29
REMARK    7  A    between atoms: C21_24  and  C24_27
REMARK    8  A    between atoms: C21_24  and  C25_28
REMARK                            x       y       z     vdW  Elec       q    Type
REMARK                         _______ _______ _______ _____ _____    ______ ____
ROOT
ATOM      1  C   UNL     1      44.876  19.899  21.901  0.00  0.00    +0.031 C 
ATOM      2  C   UNL     1      46.056  20.280  21.022  0.00  0.00    -0.035 C 
ATOM      3  C   UNL     1      47.091  20.996  21.910  0.00  0.00    +0.007 C 
ATOM      4  C   UNL     1      46.482  22.273  22.483  0.00  0.00    +0.006 C 
ATOM      5  C   UNL     1      46.079  23.220  21.358  0.00  0.00    -0.019 C 
ATOM      6  C   UNL     1      45.092  22.545  20.400  0.00  0.00    +0.146 C 
ATOM      9  C   UNL     1      44.887  23.506  19.211  0.00  0.00    -0.007 C 
ATOM     10  C   UNL     1      46.735  19.064  20.389  0.00  0.00    -0.001 C 
ATOM     11  C   UNL     1      47.302  18.092  21.399  0.00  0.00    +0.005 C 
ATOM     12  C   UNL     1      48.136  16.988  20.760  0.00  0.00    +0.013 C 
ATOM     13  C   UNL     1      48.115  16.975  19.234  0.00  0.00    +0.014 C 
ATOM     14  C   UNL     1      49.054  18.082  18.744  0.00  0.00    +0.006 C 
ATOM     15  C   UNL     1      46.739  17.251  18.715  0.00  0.00    -0.116 C 
ATOM     16  C   UNL     1      46.183  16.583  17.740  0.00  0.00    -0.013 C 
ATOM     17  C   UNL     1      46.871  15.404  17.107  0.00  0.00    +0.048 C 
ATOM     18  C   UNL     1      47.637  14.701  18.236  0.00  0.00    -0.113 C 
ATOM     22  C   UNL     1      48.238  13.395  17.721  0.00  0.00    +0.014 C 
ATOM     23  C   UNL     1      49.242  13.677  16.610  0.00  0.00    +0.002 C 
ATOM     24  C   UNL     1      50.356  14.579  17.127  0.00  0.00    -0.065 C 
ATOM     25  C   UNL     1      51.290  14.927  15.955  0.00  0.00    +0.006 C 
ATOM     26  C   UNL     1      51.174  13.863  18.202  0.00  0.00    +0.017 C 
ATOM     27  C   UNL     1      49.782  15.885  17.685  0.00  0.00    +0.017 C 
ATOM     28  C   UNL     1      48.713  15.651  18.744  0.00  0.00    +0.020 C 
ATOM     29  C   UNL     1      45.892  18.355  19.344  0.00  0.00    +0.003 C 
ATOM     30  C   UNL     1      44.647  17.665  19.924  0.00  0.00    +0.031 C 
ATOM     31  C   UNL     1      45.467  19.348  18.263  0.00  0.00    +0.009 C 
ATOM     32  C   UNL     1      44.741  20.540  18.897  0.00  0.00    +0.015 C 
ATOM     33  C   UNL     1      45.666  21.234  19.891  0.00  0.00    +0.016 C 
ENDROOT
BRANCH  18  19
ATOM     19  C   UNL     1      46.674  14.351  19.349  0.00  0.00    +0.513 C 
ATOM     20  O   UNL     1      45.481  14.262  19.117  0.00  0.00    -0.704 OA
ATOM     21  O   UNL     1      47.091  14.159  20.478  0.00  0.00    -0.686 OA
ENDBRANCH  18  19
BRANCH   6   7
ATOM      7  O   UNL     1      43.834  22.367  21.044  0.00  0.00    -0.545 OA
ATOM      8  H   UNL     1      43.899  22.175  21.990  0.00  0.00    +0.366 HD
ENDBRANCH   6   7
TORSDOF 2
ENDMDL
MODEL 5
REMARK VINA RESULT:      -6.3      4.695      8.400
REMARK  Name = ZINC95486109
REMARK  8 active torsions:
REMARK  status: ('A' for Active; 'I' for Inactive)
REMARK    1  A    between atoms: C1_1  and  C2_2
REMARK    2  A    between atoms: C6_6  and  C29_34
REMARK    3  A    between atoms: C6_6  and  O3_35
REMARK    4  A    between atoms: C10_11  and  C28_33
REMARK    5  A    between atoms: C14_16  and  C27_32
REMARK    6  A    between atoms: C18_20  and  C26_29
REMARK    7  A    between atoms: C21_24  and  C24_27
REMARK    8  A    between atoms: C21_24  and  C25_28
REMARK                            x       y       z     vdW  Elec       q    Type
REMARK                         _______ _______ _______ _____ _____    ______ ____
ROOT
ATOM      1  C   UNL     1      47.533  12.372  19.312  0.00  0.00    +0.031 C 
ATOM      2  C   UNL     1      47.262  13.355  18.185  0.00  0.00    -0.035 C 
ATOM      3  C   UNL     1      45.785  13.783  18.280  0.00  0.00    +0.007 C 
ATOM      4  C   UNL     1      44.884  12.566  18.088  0.00  0.00    +0.006 C 
ATOM      5  C   UNL     1      45.116  11.945  16.715  0.00  0.00    -0.019 C 
ATOM      6  C   UNL     1      46.585  11.551  16.532  0.00  0.00    +0.146 C 
ATOM      9  C   UNL     1      46.756  11.106  15.065  0.00  0.00    -0.007 C 
ATOM     10  C   UNL     1      48.126  14.613  18.282  0.00  0.00    -0.001 C 
ATOM     11  C   UNL     1      47.903  15.406  19.550  0.00  0.00    +0.005 C 
ATOM     12  C   UNL     1      48.626  16.747  19.550  0.00  0.00    +0.013 C 
ATOM     13  C   UNL     1      49.553  16.971  18.358  0.00  0.00    +0.014 C 
ATOM     14  C   UNL     1      48.684  17.345  17.153  0.00  0.00    +0.006 C 
ATOM     15  C   UNL     1      50.314  15.726  18.029  0.00  0.00    -0.116 C 
ATOM     16  C   UNL     1      51.591  15.706  17.753  0.00  0.00    -0.013 C 
ATOM     17  C   UNL     1      52.427  16.956  17.826  0.00  0.00    +0.048 C 
ATOM     18  C   UNL     1      51.864  17.776  18.995  0.00  0.00    -0.113 C 
ATOM     22  C   UNL     1      52.754  18.991  19.251  0.00  0.00    +0.014 C 
ATOM     23  C   UNL     1      52.767  19.904  18.032  0.00  0.00    +0.002 C 
ATOM     24  C   UNL     1      51.352  20.370  17.710  0.00  0.00    -0.065 C 
ATOM     25  C   UNL     1      51.391  21.199  16.416  0.00  0.00    +0.006 C 
ATOM     26  C   UNL     1      50.807  21.250  18.834  0.00  0.00    +0.017 C 
ATOM     27  C   UNL     1      50.425  19.172  17.483  0.00  0.00    +0.017 C 
ATOM     28  C   UNL     1      50.441  18.188  18.645  0.00  0.00    +0.020 C 
ATOM     29  C   UNL     1      49.604  14.374  18.026  0.00  0.00    +0.003 C 
ATOM     30  C   UNL     1      50.286  13.525  19.109  0.00  0.00    +0.031 C 
ATOM     31  C   UNL     1      49.789  13.707  16.663  0.00  0.00    +0.009 C 
ATOM     32  C   UNL     1      48.961  12.419  16.590  0.00  0.00    +0.015 C 
ATOM     33  C   UNL     1      47.487  12.744  16.800  0.00  0.00    +0.016 C 
ENDROOT
BRANCH  18  19
ATOM     19  C   UNL     1      51.876  16.930  20.249  0.00  0.00    +0.513 C 
ATOM     20  O   UNL     1      52.627  15.975  20.333  0.00  0.00    -0.704 OA
ATOM     21  O   UNL     1      51.132  17.205  21.176  0.00  0.00    -0.686 OA
ENDBRANCH  18  19
BRANCH   6   7
ATOM      7  O   UNL     1      46.899  10.440  17.367  0.00  0.00    -0.545 OA
ATOM      8  H   UNL     1      47.413  10.672  18.153  0.00  0.00    +0.366 HD
ENDBRANCH   6   7
TORSDOF 2
ENDMDL
MODEL 6
REMARK VINA RESULT:      -6.1      4.196      7.530
REMARK  Name = ZINC95486109
REMARK  8 active torsions:
REMARK  status: ('A' for Active; 'I' for Inactive)
REMARK    1  A    between atoms: C1_1  and  C2_2
REMARK    2  A    between atoms: C6_6  and  C29_34
REMARK    3  A    between atoms: C6_6  and  O3_35
REMARK    4  A    between atoms: C10_11  and  C28_33
REMARK    5  A    between atoms: C14_16  and  C27_32
REMARK    6  A    between atoms: C18_20  and  C26_29
REMARK    7  A    between atoms: C21_24  and  C24_27
REMARK    8  A    between atoms: C21_24  and  C25_28
REMARK                            x       y       z     vdW  Elec       q    Type
REMARK                         _______ _______ _______ _____ _____    ______ ____
ROOT
ATOM      1  C   UNL     1      46.205  17.765  21.197  0.00  0.00    +0.031 C 
ATOM      2  C   UNL     1      47.256  18.214  20.194  0.00  0.00    -0.035 C 
ATOM      3  C   UNL     1      48.396  18.889  20.980  0.00  0.00    +0.007 C 
ATOM      4  C   UNL     1      47.862  20.121  21.706  0.00  0.00    +0.006 C 
ATOM      5  C   UNL     1      47.307  21.128  20.704  0.00  0.00    -0.019 C 
ATOM      6  C   UNL     1      46.205  20.499  19.846  0.00  0.00    +0.146 C 
ATOM      9  C   UNL     1      45.838  21.527  18.756  0.00  0.00    -0.007 C 
ATOM     10  C   UNL     1      47.850  17.047  19.404  0.00  0.00    -0.001 C 
ATOM     11  C   UNL     1      48.552  16.025  20.268  0.00  0.00    +0.005 C 
ATOM     12  C   UNL     1      49.299  14.972  19.458  0.00  0.00    +0.013 C 
ATOM     13  C   UNL     1      49.075  15.050  17.951  0.00  0.00    +0.014 C 
ATOM     14  C   UNL     1      49.935  16.197  17.409  0.00  0.00    +0.006 C 
ATOM     15  C   UNL     1      47.641  15.339  17.636  0.00  0.00    -0.116 C 
ATOM     16  C   UNL     1      46.964  14.723  16.704  0.00  0.00    -0.013 C 
ATOM     17  C   UNL     1      47.568  13.593  15.914  0.00  0.00    +0.048 C 
ATOM     18  C   UNL     1      48.481  12.834  16.887  0.00  0.00    -0.113 C 
ATOM     22  C   UNL     1      49.015  11.570  16.217  0.00  0.00    +0.014 C 
ATOM     23  C   UNL     1      49.861  11.931  15.003  0.00  0.00    +0.002 C 
ATOM     24  C   UNL     1      51.029  12.816  15.421  0.00  0.00    -0.065 C 
ATOM     25  C   UNL     1      51.796  13.246  14.160  0.00  0.00    +0.006 C 
ATOM     26  C   UNL     1      51.986  12.047  16.333  0.00  0.00    +0.017 C 
ATOM     27  C   UNL     1      50.527  14.077  16.131  0.00  0.00    +0.017 C 
ATOM     28  C   UNL     1      49.609  13.766  17.305  0.00  0.00    +0.020 C 
ATOM     29  C   UNL     1      46.879  16.391  18.438  0.00  0.00    +0.003 C 
ATOM     30  C   UNL     1      45.726  15.651  19.134  0.00  0.00    +0.031 C 
ATOM     31  C   UNL     1      46.309  17.441  17.486  0.00  0.00    +0.009 C 
ATOM     32  C   UNL     1      45.668  18.584  18.283  0.00  0.00    +0.015 C 
ATOM     33  C   UNL     1      46.713  19.229  19.185  0.00  0.00    +0.016 C 
ENDROOT
BRANCH  18  19
ATOM     19  C   UNL     1      47.676  12.405  18.094  0.00  0.00    +0.513 C 
ATOM     20  O   UNL     1      46.467  12.284  18.009  0.00  0.00    -0.704 OA
ATOM     21  O   UNL     1      48.238  12.180  19.152  0.00  0.00    -0.686 OA
ENDBRANCH  18  19
BRANCH   6   7
ATOM      7  O   UNL     1      45.044  20.266  20.639  0.00  0.00    -0.545 OA
ATOM      8  H   UNL     1      44.326  20.894  20.478  0.00  0.00    +0.366 HD
ENDBRANCH   6   7
TORSDOF 2
ENDMDL
MODEL 7
REMARK VINA RESULT:      -6.1      2.464      7.737
REMARK  Name = ZINC95486109
REMARK  8 active torsions:
REMARK  status: ('A' for Active; 'I' for Inactive)
REMARK    1  A    between atoms: C1_1  and  C2_2
REMARK    2  A    between atoms: C6_6  and  C29_34
REMARK    3  A    between atoms: C6_6  and  O3_35
REMARK    4  A    between atoms: C10_11  and  C28_33
REMARK    5  A    between atoms: C14_16  and  C27_32
REMARK    6  A    between atoms: C18_20  and  C26_29
REMARK    7  A    between atoms: C21_24  and  C24_27
REMARK    8  A    between atoms: C21_24  and  C25_28
REMARK                            x       y       z     vdW  Elec       q    Type
REMARK                         _______ _______ _______ _____ _____    ______ ____
ROOT
ATOM      1  C   UNL     1      46.385  20.864  18.380  0.00  0.00    +0.031 C 
ATOM      2  C   UNL     1      46.361  19.809  19.474  0.00  0.00    -0.035 C 
ATOM      3  C   UNL     1      45.162  18.880  19.203  0.00  0.00    +0.007 C 
ATOM      4  C   UNL     1      43.865  19.681  19.275  0.00  0.00    +0.006 C 
ATOM      5  C   UNL     1      43.694  20.294  20.661  0.00  0.00    -0.019 C 
ATOM      6  C   UNL     1      44.888  21.185  21.018  0.00  0.00    +0.146 C 
ATOM      9  C   UNL     1      44.714  21.607  22.491  0.00  0.00    -0.007 C 
ATOM     10  C   UNL     1      47.629  18.953  19.493  0.00  0.00    -0.001 C 
ATOM     11  C   UNL     1      47.858  18.180  18.214  0.00  0.00    +0.005 C 
ATOM     12  C   UNL     1      49.013  17.192  18.314  0.00  0.00    +0.013 C 
ATOM     13  C   UNL     1      49.813  17.275  19.611  0.00  0.00    +0.014 C 
ATOM     14  C   UNL     1      49.005  16.568  20.705  0.00  0.00    +0.006 C 
ATOM     15  C   UNL     1      50.026  18.698  20.019  0.00  0.00    -0.116 C 
ATOM     16  C   UNL     1      51.166  19.168  20.449  0.00  0.00    -0.013 C 
ATOM     17  C   UNL     1      52.402  18.308  20.488  0.00  0.00    +0.048 C 
ATOM     18  C   UNL     1      52.316  17.383  19.266  0.00  0.00    -0.113 C 
ATOM     22  C   UNL     1      53.609  16.582  19.130  0.00  0.00    +0.014 C 
ATOM     23  C   UNL     1      53.811  15.692  20.350  0.00  0.00    +0.002 C 
ATOM     24  C   UNL     1      52.635  14.735  20.501  0.00  0.00    -0.065 C 
ATOM     25  C   UNL     1      52.821  13.929  21.797  0.00  0.00    +0.006 C 
ATOM     26  C   UNL     1      52.581  13.759  19.326  0.00  0.00    +0.017 C 
ATOM     27  C   UNL     1      51.316  15.507  20.603  0.00  0.00    +0.017 C 
ATOM     28  C   UNL     1      51.109  16.472  19.444  0.00  0.00    +0.020 C 
ATOM     29  C   UNL     1      48.878  19.700  19.925  0.00  0.00    +0.003 C 
ATOM     30  C   UNL     1      49.326  20.778  18.926  0.00  0.00    +0.031 C 
ATOM     31  C   UNL     1      48.648  20.339  21.294  0.00  0.00    +0.009 C 
ATOM     32  C   UNL     1      47.407  21.238  21.256  0.00  0.00    +0.015 C 
ATOM     33  C   UNL     1      46.186  20.409  20.871  0.00  0.00    +0.016 C 
ENDROOT
BRANCH  18  19
ATOM     19  C   UNL     1      52.165  18.221  18.016  0.00  0.00    +0.513 C 
ATOM     20  O   UNL     1      51.661  17.740  17.017  0.00  0.00    -0.704 OA
ATOM     21  O   UNL     1      52.548  19.379  18.009  0.00  0.00    -0.686 OA
ENDBRANCH  18  19
BRANCH   6   7
ATOM      7  O   UNL     1      44.872  22.363  20.217  0.00  0.00    -0.545 OA
ATOM      8  H   UNL     1      44.530  23.144  20.675  0.00  0.00    +0.366 HD
ENDBRANCH   6   7
TORSDOF 2
ENDMDL
MODEL 8
REMARK VINA RESULT:      -6.1      4.164      6.174
REMARK  Name = ZINC95486109
REMARK  8 active torsions:
REMARK  status: ('A' for Active; 'I' for Inactive)
REMARK    1  A    between atoms: C1_1  and  C2_2
REMARK    2  A    between atoms: C6_6  and  C29_34
REMARK    3  A    between atoms: C6_6  and  O3_35
REMARK    4  A    between atoms: C10_11  and  C28_33
REMARK    5  A    between atoms: C14_16  and  C27_32
REMARK    6  A    between atoms: C18_20  and  C26_29
REMARK    7  A    between atoms: C21_24  and  C24_27
REMARK    8  A    between atoms: C21_24  and  C25_28
REMARK                            x       y       z     vdW  Elec       q    Type
REMARK                         _______ _______ _______ _____ _____    ______ ____
ROOT
ATOM      1  C   UNL     1      49.987  13.568  18.239  0.00  0.00    +0.031 C 
ATOM      2  C   UNL     1      48.514  13.265  18.459  0.00  0.00    -0.035 C 
ATOM      3  C   UNL     1      48.416  12.167  19.535  0.00  0.00    +0.007 C 
ATOM      4  C   UNL     1      49.102  10.897  19.038  0.00  0.00    +0.006 C 
ATOM      5  C   UNL     1      48.424  10.389  17.770  0.00  0.00    -0.019 C 
ATOM      6  C   UNL     1      48.434  11.461  16.675  0.00  0.00    +0.146 C 
ATOM      9  C   UNL     1      47.576  10.925  15.510  0.00  0.00    -0.007 C 
ATOM     10  C   UNL     1      47.731  14.483  18.952  0.00  0.00    -0.001 C 
ATOM     11  C   UNL     1      48.218  15.020  20.279  0.00  0.00    +0.005 C 
ATOM     12  C   UNL     1      47.317  16.109  20.848  0.00  0.00    +0.013 C 
ATOM     13  C   UNL     1      46.195  16.559  19.917  0.00  0.00    +0.014 C 
ATOM     14  C   UNL     1      45.089  15.500  19.970  0.00  0.00    +0.006 C 
ATOM     15  C   UNL     1      46.681  16.671  18.506  0.00  0.00    -0.116 C 
ATOM     16  C   UNL     1      46.395  17.671  17.716  0.00  0.00    -0.013 C 
ATOM     17  C   UNL     1      45.601  18.852  18.205  0.00  0.00    +0.048 C 
ATOM     18  C   UNL     1      46.017  19.070  19.666  0.00  0.00    -0.113 C 
ATOM     22  C   UNL     1      45.382  20.351  20.201  0.00  0.00    +0.014 C 
ATOM     23  C   UNL     1      43.863  20.237  20.183  0.00  0.00    +0.002 C 
ATOM     24  C   UNL     1      43.415  19.055  21.035  0.00  0.00    -0.065 C 
ATOM     25  C   UNL     1      41.890  18.908  20.907  0.00  0.00    +0.006 C 
ATOM     26  C   UNL     1      43.758  19.292  22.505  0.00  0.00    +0.017 C 
ATOM     27  C   UNL     1      44.065  17.757  20.546  0.00  0.00    +0.017 C 
ATOM     28  C   UNL     1      45.582  17.852  20.470  0.00  0.00    +0.020 C 
ATOM     29  C   UNL     1      47.585  15.588  17.922  0.00  0.00    +0.003 C 
ATOM     30  C   UNL     1      48.912  16.278  17.568  0.00  0.00    +0.031 C 
ATOM     31  C   UNL     1      46.948  15.027  16.650  0.00  0.00    +0.009 C 
ATOM     32  C   UNL     1      47.767  13.839  16.131  0.00  0.00    +0.015 C 
ATOM     33  C   UNL     1      47.822  12.750  17.195  0.00  0.00    +0.016 C 
ENDROOT
BRANCH  18  19
ATOM     19  C   UNL     1      47.518  19.241  19.737  0.00  0.00    +0.513 C 
ATOM     20  O   UNL     1      48.136  19.614  18.755  0.00  0.00    -0.704 OA
ATOM     21  O   UNL     1      48.110  19.005  20.777  0.00  0.00    -0.686 OA
ENDBRANCH  18  19
BRANCH   6   7
ATOM      7  O   UNL     1      49.761  11.651  16.193  0.00  0.00    -0.545 OA
ATOM      8  H   UNL     1      50.370  12.015  16.850  0.00  0.00    +0.366 HD
ENDBRANCH   6   7
TORSDOF 2
ENDMDL
MODEL 9
REMARK VINA RESULT:      -6.0      3.114      7.500
REMARK  Name = ZINC95486109
REMARK  8 active torsions:
REMARK  status: ('A' for Active; 'I' for Inactive)
REMARK    1  A    between atoms: C1_1  and  C2_2
REMARK    2  A    between atoms: C6_6  and  C29_34
REMARK    3  A    between atoms: C6_6  and  O3_35
REMARK    4  A    between atoms: C10_11  and  C28_33
REMARK    5  A    between atoms: C14_16  and  C27_32
REMARK    6  A    between atoms: C18_20  and  C26_29
REMARK    7  A    between atoms: C21_24  and  C24_27
REMARK    8  A    between atoms: C21_24  and  C25_28
REMARK                            x       y       z     vdW  Elec       q    Type
REMARK                         _______ _______ _______ _____ _____    ______ ____
ROOT
ATOM      1  C   UNL     1      45.640  20.574  19.593  0.00  0.00    +0.031 C 
ATOM      2  C   UNL     1      45.021  19.195  19.433  0.00  0.00    -0.035 C 
ATOM      3  C   UNL     1      43.877  19.310  18.408  0.00  0.00    +0.007 C 
ATOM      4  C   UNL     1      42.808  20.263  18.934  0.00  0.00    +0.006 C 
ATOM      5  C   UNL     1      42.227  19.739  20.243  0.00  0.00    -0.019 C 
ATOM      6  C   UNL     1      43.326  19.544  21.292  0.00  0.00    +0.146 C 
ATOM      9  C   UNL     1      42.676  18.848  22.505  0.00  0.00    -0.007 C 
ATOM     10  C   UNL     1      46.019  18.158  18.916  0.00  0.00    -0.001 C 
ATOM     11  C   UNL     1      46.585  18.488  17.554  0.00  0.00    +0.005 C 
ATOM     12  C   UNL     1      47.429  17.361  16.970  0.00  0.00    +0.013 C 
ATOM     13  C   UNL     1      47.673  16.191  17.919  0.00  0.00    +0.014 C 
ATOM     14  C   UNL     1      46.401  15.337  17.945  0.00  0.00    +0.006 C 
ATOM     15  C   UNL     1      47.952  16.674  19.306  0.00  0.00    -0.116 C 
ATOM     16  C   UNL     1      48.904  16.199  20.064  0.00  0.00    -0.013 C 
ATOM     17  C   UNL     1      49.865  15.159  19.553  0.00  0.00    +0.048 C 
ATOM     18  C   UNL     1      50.097  15.485  18.071  0.00  0.00    -0.113 C 
ATOM     22  C   UNL     1      51.187  14.578  17.505  0.00  0.00    +0.014 C 
ATOM     23  C   UNL     1      50.753  13.120  17.578  0.00  0.00    +0.002 C 
ATOM     24  C   UNL     1      49.464  12.916  16.790  0.00  0.00    -0.065 C 
ATOM     25  C   UNL     1      49.001  11.461  16.973  0.00  0.00    +0.006 C 
ATOM     26  C   UNL     1      49.700  13.166  15.300  0.00  0.00    +0.017 C 
ATOM     27  C   UNL     1      48.359  13.840  17.310  0.00  0.00    +0.017 C 
ATOM     28  C   UNL     1      48.778  15.303  17.333  0.00  0.00    +0.020 C 
ATOM     29  C   UNL     1      47.115  17.802  19.905  0.00  0.00    +0.003 C 
ATOM     30  C   UNL     1      48.088  18.959  20.186  0.00  0.00    +0.031 C 
ATOM     31  C   UNL     1      46.492  17.330  21.218  0.00  0.00    +0.009 C 
ATOM     32  C   UNL     1      45.531  18.395  21.760  0.00  0.00    +0.015 C 
ATOM     33  C   UNL     1      44.430  18.658  20.739  0.00  0.00    +0.016 C 
ENDROOT
BRANCH  18  19
ATOM     19  C   UNL     1      50.580  16.913  17.945  0.00  0.00    +0.513 C 
ATOM     20  O   UNL     1      51.127  17.457  18.887  0.00  0.00    -0.704 OA
ATOM     21  O   UNL     1      50.422  17.519  16.899  0.00  0.00    -0.686 OA
ENDBRANCH  18  19
BRANCH   6   7
ATOM      7  O   UNL     1      43.817  20.810  21.723  0.00  0.00    -0.545 OA
ATOM      8  H   UNL     1      44.674  20.768  22.171  0.00  0.00    +0.366 HD
ENDBRANCH   6   7
TORSDOF 2
ENDMDL
