MODEL 1
REMARK VINA RESULT:      -5.8      0.000      0.000
REMARK  Name = ZINC95486248
REMARK  7 active torsions:
REMARK  status: ('A' for Active; 'I' for Inactive)
REMARK    1  A    between atoms: C1_1  and  C2_2
REMARK    2  A    between atoms: C6_8  and  C18_33
REMARK    3  A    between atoms: C7_10  and  O5_25
REMARK    4  A    between atoms: O5_25  and  C14_26
REMARK    5  A    between atoms: C14_26  and  C15_28
REMARK    6  A    between atoms: C15_28  and  C16_29
REMARK    7  A    between atoms: C16_29  and  C17_30
REMARK                            x       y       z     vdW  Elec       q    Type
REMARK                         _______ _______ _______ _____ _____    ______ ____
ROOT
ATOM      1  C   UNL     1      48.019  14.909  16.908  0.00  0.00    +0.031 C 
ATOM      2  C   UNL     1      47.124  15.897  17.659  0.00  0.00    -0.017 C 
ATOM      3  C   UNL     1      47.058  17.227  16.892  0.00  0.00    +0.021 C 
ATOM      4  C   UNL     1      46.244  18.258  17.668  0.00  0.00    +0.043 C 
ATOM      5  C   UNL     1      46.814  18.463  19.079  0.00  0.00    +0.046 C 
ATOM      6  C   UNL     1      45.960  19.495  19.817  0.00  0.00    -0.010 C 
ATOM      7  C   UNL     1      45.533  20.595  18.844  0.00  0.00    +0.056 C 
ATOM      8  C   UNL     1      44.719  18.805  20.387  0.00  0.00    +0.338 C 
ATOM     17  O   UNL     1      44.388  17.683  19.569  0.00  0.00    -0.360 OA
ATOM     18  C   UNL     1      45.298  16.588  19.676  0.00  0.00    +0.369 C 
ATOM     19  O   UNL     1      44.943  15.815  20.824  0.00  0.00    -0.381 OA
ATOM     20  C   UNL     1      46.057  15.015  21.344  0.00  0.00    +0.371 C 
ATOM     21  O   UNL     1      47.034  15.916  21.887  0.00  0.00    -0.207 OA
ATOM     22  O   UNL     1      47.124  17.198  21.161  0.00  0.00    -0.159 OA
ATOM     23  C   UNL     1      46.713  14.226  20.201  0.00  0.00    -0.001 C 
ATOM     24  C   UNL     1      48.032  14.948  19.861  0.00  0.00    +0.047 C 
ATOM     25  C   UNL     1      46.748  17.109  19.800  0.00  0.00    +0.015 C 
ATOM     26  C   UNL     1      47.708  16.180  19.031  0.00  0.00    -0.013 C 
ENDROOT
BRANCH   8   9
ATOM      9  O   UNL     1      43.626  19.727  20.403  0.00  0.00    -0.335 OA
BRANCH   9  10
ATOM     10  C   UNL     1      42.417  19.231  20.710  0.00  0.00    +0.455 C 
ATOM     16  O   UNL     1      42.242  18.677  21.769  0.00  0.00    -0.491 OA
BRANCH  10  11
ATOM     11  C   UNL     1      41.279  19.366  19.733  0.00  0.00    +0.126 C 
BRANCH  11  12
ATOM     12  C   UNL     1      41.715  20.246  18.559  0.00  0.00    -0.040 C 
BRANCH  12  13
ATOM     13  C   UNL     1      41.130  21.625  18.720  0.00  0.00    +0.494 C 
ATOM     14  O   UNL     1      39.924  21.788  18.649  0.00  0.00    -0.699 OA
ATOM     15  O   UNL     1      41.864  22.578  18.922  0.00  0.00    -0.699 OA
ENDBRANCH  12  13
ENDBRANCH  11  12
ENDBRANCH  10  11
ENDBRANCH   9  10
ENDBRANCH   8   9
TORSDOF 5
ENDMDL
MODEL 2
REMARK VINA RESULT:      -5.5      1.879      2.949
REMARK  Name = ZINC95486248
REMARK  7 active torsions:
REMARK  status: ('A' for Active; 'I' for Inactive)
REMARK    1  A    between atoms: C1_1  and  C2_2
REMARK    2  A    between atoms: C6_8  and  C18_33
REMARK    3  A    between atoms: C7_10  and  O5_25
REMARK    4  A    between atoms: O5_25  and  C14_26
REMARK    5  A    between atoms: C14_26  and  C15_28
REMARK    6  A    between atoms: C15_28  and  C16_29
REMARK    7  A    between atoms: C16_29  and  C17_30
REMARK                            x       y       z     vdW  Elec       q    Type
REMARK                         _______ _______ _______ _____ _____    ______ ____
ROOT
ATOM      1  C   UNL     1      50.477  19.909  18.065  0.00  0.00    +0.031 C 
ATOM      2  C   UNL     1      49.074  19.832  18.671  0.00  0.00    -0.017 C 
ATOM      3  C   UNL     1      48.952  20.833  19.831  0.00  0.00    +0.021 C 
ATOM      4  C   UNL     1      47.591  20.710  20.510  0.00  0.00    +0.043 C 
ATOM      5  C   UNL     1      47.343  19.274  20.993  0.00  0.00    +0.046 C 
ATOM      6  C   UNL     1      45.966  19.201  21.656  0.00  0.00    -0.010 C 
ATOM      7  C   UNL     1      45.715  20.481  22.453  0.00  0.00    +0.056 C 
ATOM      8  C   UNL     1      44.895  19.053  20.573  0.00  0.00    +0.338 C 
ATOM     17  O   UNL     1      45.358  19.663  19.368  0.00  0.00    -0.360 OA
ATOM     18  C   UNL     1      46.409  18.952  18.714  0.00  0.00    +0.369 C 
ATOM     19  O   UNL     1      45.829  17.910  17.926  0.00  0.00    -0.381 OA
ATOM     20  C   UNL     1      46.764  16.815  17.644  0.00  0.00    +0.371 C 
ATOM     21  O   UNL     1      47.033  16.135  18.879  0.00  0.00    -0.207 OA
ATOM     22  O   UNL     1      47.036  17.024  20.057  0.00  0.00    -0.159 OA
ATOM     23  C   UNL     1      48.086  17.382  17.109  0.00  0.00    -0.001 C 
ATOM     24  C   UNL     1      49.105  17.302  18.263  0.00  0.00    +0.047 C 
ATOM     25  C   UNL     1      47.385  18.363  19.758  0.00  0.00    +0.015 C 
ATOM     26  C   UNL     1      48.830  18.442  19.229  0.00  0.00    -0.013 C 
ENDROOT
BRANCH   8   9
ATOM      9  O   UNL     1      43.691  19.692  21.003  0.00  0.00    -0.335 OA
BRANCH   9  10
ATOM     10  C   UNL     1      42.589  18.930  21.075  0.00  0.00    +0.455 C 
ATOM     16  O   UNL     1      42.601  17.910  21.722  0.00  0.00    -0.491 OA
BRANCH  10  11
ATOM     11  C   UNL     1      41.338  19.345  20.347  0.00  0.00    +0.126 C 
BRANCH  11  12
ATOM     12  C   UNL     1      41.694  20.361  19.258  0.00  0.00    -0.040 C 
BRANCH  12  13
ATOM     13  C   UNL     1      40.550  20.477  18.285  0.00  0.00    +0.494 C 
ATOM     14  O   UNL     1      39.894  21.504  18.235  0.00  0.00    -0.699 OA
ATOM     15  O   UNL     1      40.281  19.545  17.546  0.00  0.00    -0.699 OA
ENDBRANCH  12  13
ENDBRANCH  11  12
ENDBRANCH  10  11
ENDBRANCH   9  10
ENDBRANCH   8   9
TORSDOF 5
ENDMDL
MODEL 3
REMARK VINA RESULT:      -5.5      2.199      3.205
REMARK  Name = ZINC95486248
REMARK  7 active torsions:
REMARK  status: ('A' for Active; 'I' for Inactive)
REMARK    1  A    between atoms: C1_1  and  C2_2
REMARK    2  A    between atoms: C6_8  and  C18_33
REMARK    3  A    between atoms: C7_10  and  O5_25
REMARK    4  A    between atoms: O5_25  and  C14_26
REMARK    5  A    between atoms: C14_26  and  C15_28
REMARK    6  A    between atoms: C15_28  and  C16_29
REMARK    7  A    between atoms: C16_29  and  C17_30
REMARK                            x       y       z     vdW  Elec       q    Type
REMARK                         _______ _______ _______ _____ _____    ______ ____
ROOT
ATOM      1  C   UNL     1      50.621  18.118  17.404  0.00  0.00    +0.031 C 
ATOM      2  C   UNL     1      49.473  18.880  18.070  0.00  0.00    -0.017 C 
ATOM      3  C   UNL     1      50.037  20.026  18.924  0.00  0.00    +0.021 C 
ATOM      4  C   UNL     1      48.917  20.746  19.671  0.00  0.00    +0.043 C 
ATOM      5  C   UNL     1      48.108  19.763  20.530  0.00  0.00    +0.046 C 
ATOM      6  C   UNL     1      46.995  20.528  21.249  0.00  0.00    -0.010 C 
ATOM      7  C   UNL     1      47.517  21.898  21.685  0.00  0.00    +0.056 C 
ATOM      8  C   UNL     1      45.813  20.710  20.293  0.00  0.00    +0.338 C 
ATOM     17  O   UNL     1      46.296  20.739  18.950  0.00  0.00    -0.360 OA
ATOM     18  C   UNL     1      46.759  19.479  18.464  0.00  0.00    +0.369 C 
ATOM     19  O   UNL     1      45.633  18.727  18.010  0.00  0.00    -0.381 OA
ATOM     20  C   UNL     1      45.878  17.280  17.990  0.00  0.00    +0.371 C 
ATOM     21  O   UNL     1      46.001  16.834  19.349  0.00  0.00    -0.207 OA
ATOM     22  O   UNL     1      46.623  17.828  20.244  0.00  0.00    -0.159 OA
ATOM     23  C   UNL     1      47.199  16.984  17.264  0.00  0.00    -0.001 C 
ATOM     24  C   UNL     1      48.239  16.651  18.352  0.00  0.00    +0.047 C 
ATOM     25  C   UNL     1      47.505  18.716  19.583  0.00  0.00    +0.015 C 
ATOM     26  C   UNL     1      48.703  17.951  18.989  0.00  0.00    -0.013 C 
ENDROOT
BRANCH   8   9
ATOM      9  O   UNL     1      45.146  21.939  20.590  0.00  0.00    -0.335 OA
BRANCH   9  10
ATOM     10  C   UNL     1      44.119  22.280  19.796  0.00  0.00    +0.455 C 
ATOM     16  O   UNL     1      44.040  23.404  19.359  0.00  0.00    -0.491 OA
BRANCH  10  11
ATOM     11  C   UNL     1      43.064  21.261  19.451  0.00  0.00    +0.126 C 
BRANCH  11  12
ATOM     12  C   UNL     1      41.786  21.979  19.011  0.00  0.00    -0.040 C 
BRANCH  12  13
ATOM     13  C   UNL     1      40.796  20.970  18.490  0.00  0.00    +0.494 C 
ATOM     14  O   UNL     1      39.649  21.307  18.252  0.00  0.00    -0.699 OA
ATOM     15  O   UNL     1      41.143  19.815  18.306  0.00  0.00    -0.699 OA
ENDBRANCH  12  13
ENDBRANCH  11  12
ENDBRANCH  10  11
ENDBRANCH   9  10
ENDBRANCH   8   9
TORSDOF 5
ENDMDL
MODEL 4
REMARK VINA RESULT:      -5.5      2.909      3.653
REMARK  Name = ZINC95486248
REMARK  7 active torsions:
REMARK  status: ('A' for Active; 'I' for Inactive)
REMARK    1  A    between atoms: C1_1  and  C2_2
REMARK    2  A    between atoms: C6_8  and  C18_33
REMARK    3  A    between atoms: C7_10  and  O5_25
REMARK    4  A    between atoms: O5_25  and  C14_26
REMARK    5  A    between atoms: C14_26  and  C15_28
REMARK    6  A    between atoms: C15_28  and  C16_29
REMARK    7  A    between atoms: C16_29  and  C17_30
REMARK                            x       y       z     vdW  Elec       q    Type
REMARK                         _______ _______ _______ _____ _____    ______ ____
ROOT
ATOM      1  C   UNL     1      52.228  19.541  16.641  0.00  0.00    +0.031 C 
ATOM      2  C   UNL     1      50.905  19.514  17.408  0.00  0.00    -0.017 C 
ATOM      3  C   UNL     1      50.628  20.899  18.015  0.00  0.00    +0.021 C 
ATOM      4  C   UNL     1      49.358  20.873  18.861  0.00  0.00    +0.043 C 
ATOM      5  C   UNL     1      49.445  19.799  19.955  0.00  0.00    +0.046 C 
ATOM      6  C   UNL     1      48.149  19.807  20.767  0.00  0.00    -0.010 C 
ATOM      7  C   UNL     1      47.669  21.248  20.948  0.00  0.00    +0.056 C 
ATOM      8  C   UNL     1      47.084  19.001  20.020  0.00  0.00    +0.338 C 
ATOM     17  O   UNL     1      47.348  19.060  18.618  0.00  0.00    -0.360 OA
ATOM     18  C   UNL     1      48.494  18.317  18.203  0.00  0.00    +0.369 C 
ATOM     19  O   UNL     1      48.113  16.949  18.042  0.00  0.00    -0.381 OA
ATOM     20  C   UNL     1      49.245  16.022  18.143  0.00  0.00    +0.371 C 
ATOM     21  O   UNL     1      49.712  16.039  19.500  0.00  0.00    -0.207 OA
ATOM     22  O   UNL     1      49.581  17.355  20.155  0.00  0.00    -0.159 OA
ATOM     23  C   UNL     1      50.390  16.494  17.234  0.00  0.00    -0.001 C 
ATOM     24  C   UNL     1      51.456  17.124  18.152  0.00  0.00    +0.047 C 
ATOM     25  C   UNL     1      49.622  18.445  19.253  0.00  0.00    +0.015 C 
ATOM     26  C   UNL     1      50.990  18.516  18.547  0.00  0.00    -0.013 C 
ENDROOT
BRANCH   8   9
ATOM      9  O   UNL     1      45.793  19.554  20.289  0.00  0.00    -0.335 OA
BRANCH   9  10
ATOM     10  C   UNL     1      44.752  19.011  19.639  0.00  0.00    +0.455 C 
ATOM     16  O   UNL     1      44.568  17.818  19.682  0.00  0.00    -0.491 OA
BRANCH  10  11
ATOM     11  C   UNL     1      43.813  19.890  18.855  0.00  0.00    +0.126 C 
BRANCH  11  12
ATOM     12  C   UNL     1      42.433  19.881  19.516  0.00  0.00    -0.040 C 
BRANCH  12  13
ATOM     13  C   UNL     1      41.447  20.603  18.635  0.00  0.00    +0.494 C 
ATOM     14  O   UNL     1      41.374  21.819  18.669  0.00  0.00    -0.699 OA
ATOM     15  O   UNL     1      40.723  19.970  17.885  0.00  0.00    -0.699 OA
ENDBRANCH  12  13
ENDBRANCH  11  12
ENDBRANCH  10  11
ENDBRANCH   9  10
ENDBRANCH   8   9
TORSDOF 5
ENDMDL
MODEL 5
REMARK VINA RESULT:      -5.2      2.495      6.380
REMARK  Name = ZINC95486248
REMARK  7 active torsions:
REMARK  status: ('A' for Active; 'I' for Inactive)
REMARK    1  A    between atoms: C1_1  and  C2_2
REMARK    2  A    between atoms: C6_8  and  C18_33
REMARK    3  A    between atoms: C7_10  and  O5_25
REMARK    4  A    between atoms: O5_25  and  C14_26
REMARK    5  A    between atoms: C14_26  and  C15_28
REMARK    6  A    between atoms: C15_28  and  C16_29
REMARK    7  A    between atoms: C16_29  and  C17_30
REMARK                            x       y       z     vdW  Elec       q    Type
REMARK                         _______ _______ _______ _____ _____    ______ ____
ROOT
ATOM      1  C   UNL     1      42.099  21.934  19.017  0.00  0.00    +0.031 C 
ATOM      2  C   UNL     1      42.793  20.644  19.461  0.00  0.00    -0.017 C 
ATOM      3  C   UNL     1      41.794  19.744  20.204  0.00  0.00    +0.021 C 
ATOM      4  C   UNL     1      42.486  18.492  20.735  0.00  0.00    +0.043 C 
ATOM      5  C   UNL     1      43.674  18.859  21.637  0.00  0.00    +0.046 C 
ATOM      6  C   UNL     1      44.338  17.574  22.135  0.00  0.00    -0.010 C 
ATOM      7  C   UNL     1      43.264  16.527  22.432  0.00  0.00    +0.056 C 
ATOM      8  C   UNL     1      45.284  17.046  21.054  0.00  0.00    +0.338 C 
ATOM     17  O   UNL     1      44.806  17.454  19.772  0.00  0.00    -0.360 OA
ATOM     18  C   UNL     1      44.952  18.850  19.506  0.00  0.00    +0.369 C 
ATOM     19  O   UNL     1      46.284  19.088  19.050  0.00  0.00    -0.381 OA
ATOM     20  C   UNL     1      46.720  20.474  19.248  0.00  0.00    +0.371 C 
ATOM     21  O   UNL     1      46.848  20.701  20.660  0.00  0.00    -0.207 OA
ATOM     22  O   UNL     1      45.866  19.954  21.471  0.00  0.00    -0.159 OA
ATOM     23  C   UNL     1      45.659  21.439  18.700  0.00  0.00    -0.001 C 
ATOM     24  C   UNL     1      44.910  22.016  19.918  0.00  0.00    +0.047 C 
ATOM     25  C   UNL     1      44.661  19.670  20.784  0.00  0.00    +0.015 C 
ATOM     26  C   UNL     1      43.925  20.972  20.417  0.00  0.00    -0.013 C 
ENDROOT
BRANCH   8   9
ATOM      9  O   UNL     1      45.330  15.619  21.117  0.00  0.00    -0.335 OA
BRANCH   9  10
ATOM     10  C   UNL     1      46.420  15.023  20.609  0.00  0.00    +0.455 C 
ATOM     16  O   UNL     1      47.437  15.656  20.450  0.00  0.00    -0.491 OA
BRANCH  10  11
ATOM     11  C   UNL     1      46.375  13.563  20.238  0.00  0.00    +0.126 C 
BRANCH  11  12
ATOM     12  C   UNL     1      45.226  13.322  19.256  0.00  0.00    -0.040 C 
BRANCH  12  13
ATOM     13  C   UNL     1      45.777  13.186  17.860  0.00  0.00    +0.494 C 
ATOM     14  O   UNL     1      46.345  14.128  17.334  0.00  0.00    -0.699 OA
ATOM     15  O   UNL     1      45.657  12.133  17.257  0.00  0.00    -0.699 OA
ENDBRANCH  12  13
ENDBRANCH  11  12
ENDBRANCH  10  11
ENDBRANCH   9  10
ENDBRANCH   8   9
TORSDOF 5
ENDMDL
MODEL 6
REMARK VINA RESULT:      -5.1      3.507      6.979
REMARK  Name = ZINC95486248
REMARK  7 active torsions:
REMARK  status: ('A' for Active; 'I' for Inactive)
REMARK    1  A    between atoms: C1_1  and  C2_2
REMARK    2  A    between atoms: C6_8  and  C18_33
REMARK    3  A    between atoms: C7_10  and  O5_25
REMARK    4  A    between atoms: O5_25  and  C14_26
REMARK    5  A    between atoms: C14_26  and  C15_28
REMARK    6  A    between atoms: C15_28  and  C16_29
REMARK    7  A    between atoms: C16_29  and  C17_30
REMARK                            x       y       z     vdW  Elec       q    Type
REMARK                         _______ _______ _______ _____ _____    ______ ____
ROOT
ATOM      1  C   UNL     1      44.370  21.398  21.822  0.00  0.00    +0.031 C 
ATOM      2  C   UNL     1      45.646  20.724  21.315  0.00  0.00    -0.017 C 
ATOM      3  C   UNL     1      46.829  21.698  21.427  0.00  0.00    +0.021 C 
ATOM      4  C   UNL     1      48.096  21.079  20.843  0.00  0.00    +0.043 C 
ATOM      5  C   UNL     1      47.876  20.643  19.387  0.00  0.00    +0.046 C 
ATOM      6  C   UNL     1      49.168  20.022  18.852  0.00  0.00    -0.010 C 
ATOM      7  C   UNL     1      50.370  20.797  19.395  0.00  0.00    +0.056 C 
ATOM      8  C   UNL     1      49.250  18.564  19.307  0.00  0.00    +0.338 C 
ATOM     17  O   UNL     1      48.543  18.416  20.538  0.00  0.00    -0.360 OA
ATOM     18  C   UNL     1      47.124  18.512  20.418  0.00  0.00    +0.369 C 
ATOM     19  O   UNL     1      46.616  17.240  20.010  0.00  0.00    -0.381 OA
ATOM     20  C   UNL     1      45.307  17.328  19.354  0.00  0.00    +0.371 C 
ATOM     21  O   UNL     1      45.488  17.990  18.093  0.00  0.00    -0.207 OA
ATOM     22  O   UNL     1      46.543  19.022  18.112  0.00  0.00    -0.159 OA
ATOM     23  C   UNL     1      44.350  18.172  20.208  0.00  0.00    -0.001 C 
ATOM     24  C   UNL     1      44.239  19.549  19.524  0.00  0.00    +0.047 C 
ATOM     25  C   UNL     1      46.748  19.602  19.387  0.00  0.00    +0.015 C 
ATOM     26  C   UNL     1      45.486  20.353  19.853  0.00  0.00    -0.013 C 
ENDROOT
BRANCH   8   9
ATOM      9  O   UNL     1      50.619  18.199  19.493  0.00  0.00    -0.335 OA
BRANCH   9  10
ATOM     10  C   UNL     1      51.040  17.082  18.879  0.00  0.00    +0.455 C 
ATOM     16  O   UNL     1      50.648  16.002  19.253  0.00  0.00    -0.491 OA
BRANCH  10  11
ATOM     11  C   UNL     1      52.002  17.175  17.723  0.00  0.00    +0.126 C 
BRANCH  11  12
ATOM     12  C   UNL     1      51.325  17.893  16.552  0.00  0.00    -0.040 C 
BRANCH  12  13
ATOM     13  C   UNL     1      51.967  19.240  16.350  0.00  0.00    +0.494 C 
ATOM     14  O   UNL     1      52.700  19.702  17.207  0.00  0.00    -0.699 OA
ATOM     15  O   UNL     1      51.754  19.869  15.326  0.00  0.00    -0.699 OA
ENDBRANCH  12  13
ENDBRANCH  11  12
ENDBRANCH  10  11
ENDBRANCH   9  10
ENDBRANCH   8   9
TORSDOF 5
ENDMDL
MODEL 7
REMARK VINA RESULT:      -5.1      3.353      6.754
REMARK  Name = ZINC95486248
REMARK  7 active torsions:
REMARK  status: ('A' for Active; 'I' for Inactive)
REMARK    1  A    between atoms: C1_1  and  C2_2
REMARK    2  A    between atoms: C6_8  and  C18_33
REMARK    3  A    between atoms: C7_10  and  O5_25
REMARK    4  A    between atoms: O5_25  and  C14_26
REMARK    5  A    between atoms: C14_26  and  C15_28
REMARK    6  A    between atoms: C15_28  and  C16_29
REMARK    7  A    between atoms: C16_29  and  C17_30
REMARK                            x       y       z     vdW  Elec       q    Type
REMARK                         _______ _______ _______ _____ _____    ______ ____
ROOT
ATOM      1  C   UNL     1      42.267  18.607  21.365  0.00  0.00    +0.031 C 
ATOM      2  C   UNL     1      43.677  18.358  20.826  0.00  0.00    -0.017 C 
ATOM      3  C   UNL     1      44.225  17.039  21.393  0.00  0.00    +0.021 C 
ATOM      4  C   UNL     1      45.665  16.813  20.942  0.00  0.00    +0.043 C 
ATOM      5  C   UNL     1      46.559  17.998  21.338  0.00  0.00    +0.046 C 
ATOM      6  C   UNL     1      47.986  17.729  20.856  0.00  0.00    -0.010 C 
ATOM      7  C   UNL     1      48.314  16.246  21.036  0.00  0.00    +0.056 C 
ATOM      8  C   UNL     1      48.095  18.103  19.377  0.00  0.00    +0.338 C 
ATOM     17  O   UNL     1      46.819  17.945  18.757  0.00  0.00    -0.360 OA
ATOM     18  C   UNL     1      45.852  18.922  19.143  0.00  0.00    +0.369 C 
ATOM     19  O   UNL     1      46.054  20.096  18.355  0.00  0.00    -0.381 OA
ATOM     20  C   UNL     1      45.518  21.309  18.983  0.00  0.00    +0.371 C 
ATOM     21  O   UNL     1      46.312  21.594  20.145  0.00  0.00    -0.207 OA
ATOM     22  O   UNL     1      46.814  20.387  20.829  0.00  0.00    -0.159 OA
ATOM     23  C   UNL     1      44.071  21.066  19.437  0.00  0.00    -0.001 C 
ATOM     24  C   UNL     1      44.109  20.880  20.967  0.00  0.00    +0.047 C 
ATOM     25  C   UNL     1      45.994  19.248  20.648  0.00  0.00    +0.015 C 
ATOM     26  C   UNL     1      44.602  19.475  21.270  0.00  0.00    -0.013 C 
ENDROOT
BRANCH   8   9
ATOM      9  O   UNL     1      49.048  17.250  18.739  0.00  0.00    -0.335 OA
BRANCH   9  10
ATOM     10  C   UNL     1      49.905  17.827  17.883  0.00  0.00    +0.455 C 
ATOM     16  O   UNL     1      49.767  17.673  16.693  0.00  0.00    -0.491 OA
BRANCH  10  11
ATOM     11  C   UNL     1      51.040  18.668  18.407  0.00  0.00    +0.126 C 
BRANCH  11  12
ATOM     12  C   UNL     1      51.765  19.335  17.236  0.00  0.00    -0.040 C 
BRANCH  12  13
ATOM     13  C   UNL     1      51.428  20.802  17.205  0.00  0.00    +0.494 C 
ATOM     14  O   UNL     1      51.019  21.356  18.211  0.00  0.00    -0.699 OA
ATOM     15  O   UNL     1      51.565  21.438  16.173  0.00  0.00    -0.699 OA
ENDBRANCH  12  13
ENDBRANCH  11  12
ENDBRANCH  10  11
ENDBRANCH   9  10
ENDBRANCH   8   9
TORSDOF 5
ENDMDL
MODEL 8
REMARK VINA RESULT:      -5.1      6.338     10.112
REMARK  Name = ZINC95486248
REMARK  7 active torsions:
REMARK  status: ('A' for Active; 'I' for Inactive)
REMARK    1  A    between atoms: C1_1  and  C2_2
REMARK    2  A    between atoms: C6_8  and  C18_33
REMARK    3  A    between atoms: C7_10  and  O5_25
REMARK    4  A    between atoms: O5_25  and  C14_26
REMARK    5  A    between atoms: C14_26  and  C15_28
REMARK    6  A    between atoms: C15_28  and  C16_29
REMARK    7  A    between atoms: C16_29  and  C17_30
REMARK                            x       y       z     vdW  Elec       q    Type
REMARK                         _______ _______ _______ _____ _____    ______ ____
ROOT
ATOM      1  C   UNL     1      51.465  21.528  16.035  0.00  0.00    +0.031 C 
ATOM      2  C   UNL     1      51.721  20.186  16.724  0.00  0.00    -0.017 C 
ATOM      3  C   UNL     1      51.678  19.053  15.688  0.00  0.00    +0.021 C 
ATOM      4  C   UNL     1      51.842  17.695  16.366  0.00  0.00    +0.043 C 
ATOM      5  C   UNL     1      50.777  17.490  17.454  0.00  0.00    +0.046 C 
ATOM      6  C   UNL     1      50.988  16.123  18.108  0.00  0.00    -0.010 C 
ATOM      7  C   UNL     1      51.404  15.107  17.044  0.00  0.00    +0.056 C 
ATOM      8  C   UNL     1      52.088  16.238  19.166  0.00  0.00    +0.338 C 
ATOM     17  O   UNL     1      52.987  17.283  18.796  0.00  0.00    -0.360 OA
ATOM     18  C   UNL     1      52.445  18.598  18.923  0.00  0.00    +0.369 C 
ATOM     19  O   UNL     1      52.573  19.012  20.285  0.00  0.00    -0.381 OA
ATOM     20  C   UNL     1      51.619  20.063  20.657  0.00  0.00    +0.371 C 
ATOM     21  O   UNL     1      50.303  19.490  20.646  0.00  0.00    -0.207 OA
ATOM     22  O   UNL     1      50.119  18.448  19.617  0.00  0.00    -0.159 OA
ATOM     23  C   UNL     1      51.659  21.196  19.622  0.00  0.00    -0.001 C 
ATOM     24  C   UNL     1      50.400  21.045  18.746  0.00  0.00    +0.047 C 
ATOM     25  C   UNL     1      50.961  18.608  18.490  0.00  0.00    +0.015 C 
ATOM     26  C   UNL     1      50.637  19.920  17.751  0.00  0.00    -0.013 C 
ENDROOT
BRANCH   8   9
ATOM      9  O   UNL     1      52.799  15.001  19.250  0.00  0.00    -0.335 OA
BRANCH   9  10
ATOM     10  C   UNL     1      53.864  14.965  20.066  0.00  0.00    +0.455 C 
ATOM     16  O   UNL     1      53.708  14.964  21.263  0.00  0.00    -0.491 OA
BRANCH  10  11
ATOM     11  C   UNL     1      55.255  14.928  19.487  0.00  0.00    +0.126 C 
BRANCH  11  12
ATOM     12  C   UNL     1      56.154  15.899  20.257  0.00  0.00    -0.040 C 
BRANCH  12  13
ATOM     13  C   UNL     1      57.339  15.154  20.811  0.00  0.00    +0.494 C 
ATOM     14  O   UNL     1      58.364  15.754  21.085  0.00  0.00    -0.699 OA
ATOM     15  O   UNL     1      57.274  13.948  20.988  0.00  0.00    -0.699 OA
ENDBRANCH  12  13
ENDBRANCH  11  12
ENDBRANCH  10  11
ENDBRANCH   9  10
ENDBRANCH   8   9
TORSDOF 5
ENDMDL
MODEL 9
REMARK VINA RESULT:      -5.0      4.293      6.549
REMARK  Name = ZINC95486248
REMARK  7 active torsions:
REMARK  status: ('A' for Active; 'I' for Inactive)
REMARK    1  A    between atoms: C1_1  and  C2_2
REMARK    2  A    between atoms: C6_8  and  C18_33
REMARK    3  A    between atoms: C7_10  and  O5_25
REMARK    4  A    between atoms: O5_25  and  C14_26
REMARK    5  A    between atoms: C14_26  and  C15_28
REMARK    6  A    between atoms: C15_28  and  C16_29
REMARK    7  A    between atoms: C16_29  and  C17_30
REMARK                            x       y       z     vdW  Elec       q    Type
REMARK                         _______ _______ _______ _____ _____    ______ ____
ROOT
ATOM      1  C   UNL     1      49.310  13.101  15.695  0.00  0.00    +0.031 C 
ATOM      2  C   UNL     1      49.507  14.383  16.505  0.00  0.00    -0.017 C 
ATOM      3  C   UNL     1      50.943  14.440  17.049  0.00  0.00    +0.021 C 
ATOM      4  C   UNL     1      51.137  15.666  17.936  0.00  0.00    +0.043 C 
ATOM      5  C   UNL     1      50.113  15.686  19.081  0.00  0.00    +0.046 C 
ATOM      6  C   UNL     1      50.341  16.936  19.933  0.00  0.00    -0.010 C 
ATOM      7  C   UNL     1      51.842  17.202  20.056  0.00  0.00    +0.056 C 
ATOM      8  C   UNL     1      49.661  18.132  19.264  0.00  0.00    +0.338 C 
ATOM     17  O   UNL     1      49.617  17.918  17.854  0.00  0.00    -0.360 OA
ATOM     18  C   UNL     1      48.700  16.904  17.440  0.00  0.00    +0.369 C 
ATOM     19  O   UNL     1      47.394  17.479  17.362  0.00  0.00    -0.381 OA
ATOM     20  C   UNL     1      46.322  16.484  17.472  0.00  0.00    +0.371 C 
ATOM     21  O   UNL     1      46.336  15.966  18.811  0.00  0.00    -0.207 OA
ATOM     22  O   UNL     1      47.686  15.885  19.401  0.00  0.00    -0.159 OA
ATOM     23  C   UNL     1      46.585  15.322  16.504  0.00  0.00    -0.001 C 
ATOM     24  C   UNL     1      47.100  14.142  17.352  0.00  0.00    +0.047 C 
ATOM     25  C   UNL     1      48.716  15.728  18.443  0.00  0.00    +0.015 C 
ATOM     26  C   UNL     1      48.560  14.393  17.691  0.00  0.00    -0.013 C 
ENDROOT
BRANCH   8   9
ATOM      9  O   UNL     1      50.402  19.321  19.547  0.00  0.00    -0.335 OA
BRANCH   9  10
ATOM     10  C   UNL     1      50.102  20.411  18.823  0.00  0.00    +0.455 C 
ATOM     16  O   UNL     1      48.959  20.796  18.757  0.00  0.00    -0.491 OA
BRANCH  10  11
ATOM     11  C   UNL     1      51.191  21.152  18.093  0.00  0.00    +0.126 C 
BRANCH  11  12
ATOM     12  C   UNL     1      52.229  20.154  17.574  0.00  0.00    -0.040 C 
BRANCH  12  13
ATOM     13  C   UNL     1      51.907  19.791  16.147  0.00  0.00    +0.494 C 
ATOM     14  O   UNL     1      51.464  20.635  15.388  0.00  0.00    -0.699 OA
ATOM     15  O   UNL     1      52.092  18.652  15.752  0.00  0.00    -0.699 OA
ENDBRANCH  12  13
ENDBRANCH  11  12
ENDBRANCH  10  11
ENDBRANCH   9  10
ENDBRANCH   8   9
TORSDOF 5
ENDMDL
