MODEL 1
REMARK VINA RESULT:      -5.7      0.000      0.000
REMARK  Name = ZINC00058188
REMARK  5 active torsions:
REMARK  status: ('A' for Active; 'I' for Inactive)
REMARK    1  A    between atoms: C1_1  and  O1_2
REMARK    2  A    between atoms: O1_2  and  C2_3
REMARK    3  A    between atoms: C9_11  and  C10_12
REMARK    4  A    between atoms: C11_14  and  C12_15
REMARK    5  A    between atoms: C12_15  and  C13_17
REMARK                            x       y       z     vdW  Elec       q    Type
REMARK                         _______ _______ _______ _____ _____    ______ ____
ROOT
ATOM      3  C   UNL     1      45.987  18.001  19.751  0.00  0.00    +0.197 A 
ATOM      4  C   UNL     1      45.798  16.632  19.554  0.00  0.00    -0.155 A 
ATOM      5  C   UNL     1      45.316  15.532  20.399  0.00  0.00    -0.035 A 
ATOM      6  C   UNL     1      45.361  14.430  19.639  0.00  0.00    +0.222 A 
ATOM      7  O   UNL     1      45.821  14.734  18.412  0.00  0.00    -0.188 OA
ATOM      8  C   UNL     1      46.098  16.049  18.313  0.00  0.00    +0.084 A 
ATOM      9  C   UNL     1      46.588  16.845  17.278  0.00  0.00    +0.041 A 
ATOM     10  C   UNL     1      46.776  18.181  17.464  0.00  0.00    +0.101 A 
ATOM     11  C   UNL     1      46.473  18.783  18.696  0.00  0.00    -0.127 A 
ENDROOT
BRANCH  11  12
ATOM     12  C   UNL     1      46.674  20.228  18.879  0.00  0.00    +0.314 C 
ATOM     13  O   UNL     1      45.659  21.088  18.639  0.00  0.00    -0.435 OA
ATOM     14  C   UNL     1      47.887  20.702  19.292  0.00  0.00    +0.071 C 
BRANCH  14  15
ATOM     15  C   UNL     1      48.988  19.832  19.385  0.00  0.00    +0.377 C 
ATOM     16  O   UNL     1      49.101  19.094  20.349  0.00  0.00    -0.395 OA
BRANCH  15  17
ATOM     17  C   UNL     1      50.006  19.809  18.312  0.00  0.00    -0.153 A 
ATOM     18  C   UNL     1      50.620  20.994  17.903  0.00  0.00    +0.051 A 
ATOM     19  C   UNL     1      51.571  20.966  16.903  0.00  0.00    +0.003 A 
ATOM     20  C   UNL     1      51.915  19.767  16.305  0.00  0.00    +0.043 A 
ATOM     21  C   UNL     1      51.309  18.589  16.705  0.00  0.00    +0.002 A 
ATOM     22  C   UNL     1      50.363  18.603  17.709  0.00  0.00    +0.076 A 
ENDBRANCH  15  17
ENDBRANCH  14  15
ENDBRANCH  11  12
BRANCH   3   2
ATOM      1  C   UNL     1      44.328  18.888  21.202  0.00  0.00    +0.239 C 
ATOM      2  O   UNL     1      45.699  18.570  20.948  0.00  0.00    -0.334 OA
ENDBRANCH   3   2
TORSDOF 4
ENDMDL
MODEL 2
REMARK VINA RESULT:      -5.5      1.365      3.202
REMARK  Name = ZINC00058188
REMARK  5 active torsions:
REMARK  status: ('A' for Active; 'I' for Inactive)
REMARK    1  A    between atoms: C1_1  and  O1_2
REMARK    2  A    between atoms: O1_2  and  C2_3
REMARK    3  A    between atoms: C9_11  and  C10_12
REMARK    4  A    between atoms: C11_14  and  C12_15
REMARK    5  A    between atoms: C12_15  and  C13_17
REMARK                            x       y       z     vdW  Elec       q    Type
REMARK                         _______ _______ _______ _____ _____    ______ ____
ROOT
ATOM      3  C   UNL     1      46.001  16.468  19.252  0.00  0.00    +0.197 A 
ATOM      4  C   UNL     1      45.070  17.256  19.933  0.00  0.00    -0.155 A 
ATOM      5  C   UNL     1      44.253  17.063  21.138  0.00  0.00    -0.035 A 
ATOM      6  C   UNL     1      43.546  18.190  21.292  0.00  0.00    +0.222 A 
ATOM      7  O   UNL     1      43.839  19.059  20.308  0.00  0.00    -0.188 OA
ATOM      8  C   UNL     1      44.754  18.540  19.464  0.00  0.00    +0.084 A 
ATOM      9  C   UNL     1      45.373  19.026  18.314  0.00  0.00    +0.041 A 
ATOM     10  C   UNL     1      46.282  18.263  17.644  0.00  0.00    +0.101 A 
ATOM     11  C   UNL     1      46.617  16.980  18.102  0.00  0.00    -0.127 A 
ENDROOT
BRANCH  11  12
ATOM     12  C   UNL     1      47.605  16.171  17.373  0.00  0.00    +0.314 C 
ATOM     13  O   UNL     1      47.193  15.201  16.526  0.00  0.00    -0.435 OA
ATOM     14  C   UNL     1      48.940  16.400  17.551  0.00  0.00    +0.071 C 
BRANCH  14  15
ATOM     15  C   UNL     1      49.374  17.293  18.547  0.00  0.00    +0.377 C 
ATOM     16  O   UNL     1      49.260  16.995  19.724  0.00  0.00    -0.395 OA
BRANCH  15  17
ATOM     17  C   UNL     1      49.970  18.593  18.167  0.00  0.00    -0.153 A 
ATOM     18  C   UNL     1      49.597  19.758  18.839  0.00  0.00    +0.051 A 
ATOM     19  C   UNL     1      50.158  20.967  18.481  0.00  0.00    +0.003 A 
ATOM     20  C   UNL     1      51.087  21.026  17.458  0.00  0.00    +0.043 A 
ATOM     21  C   UNL     1      51.460  19.875  16.787  0.00  0.00    +0.002 A 
ATOM     22  C   UNL     1      50.913  18.659  17.141  0.00  0.00    +0.076 A 
ENDBRANCH  15  17
ENDBRANCH  14  15
ENDBRANCH  11  12
BRANCH   3   2
ATOM      1  C   UNL     1      45.394  14.176  19.389  0.00  0.00    +0.239 C 
ATOM      2  O   UNL     1      46.311  15.227  19.700  0.00  0.00    -0.334 OA
ENDBRANCH   3   2
TORSDOF 4
ENDMDL
MODEL 3
REMARK VINA RESULT:      -5.5      3.402      5.895
REMARK  Name = ZINC00058188
REMARK  5 active torsions:
REMARK  status: ('A' for Active; 'I' for Inactive)
REMARK    1  A    between atoms: C1_1  and  O1_2
REMARK    2  A    between atoms: O1_2  and  C2_3
REMARK    3  A    between atoms: C9_11  and  C10_12
REMARK    4  A    between atoms: C11_14  and  C12_15
REMARK    5  A    between atoms: C12_15  and  C13_17
REMARK                            x       y       z     vdW  Elec       q    Type
REMARK                         _______ _______ _______ _____ _____    ______ ____
ROOT
ATOM      3  C   UNL     1      43.607  20.947  19.739  0.00  0.00    +0.197 A 
ATOM      4  C   UNL     1      42.255  20.996  19.394  0.00  0.00    -0.155 A 
ATOM      5  C   UNL     1      41.433  21.919  18.601  0.00  0.00    -0.035 A 
ATOM      6  C   UNL     1      40.187  21.429  18.632  0.00  0.00    +0.222 A 
ATOM      7  O   UNL     1      40.152  20.300  19.363  0.00  0.00    -0.188 OA
ATOM      8  C   UNL     1      41.375  19.998  19.843  0.00  0.00    +0.084 A 
ATOM      9  C   UNL     1      41.858  18.959  20.636  0.00  0.00    +0.041 A 
ATOM     10  C   UNL     1      43.176  18.905  20.976  0.00  0.00    +0.101 A 
ATOM     11  C   UNL     1      44.073  19.889  20.530  0.00  0.00    -0.127 A 
ENDROOT
BRANCH  11  12
ATOM     12  C   UNL     1      45.494  19.814  20.900  0.00  0.00    +0.314 C 
ATOM     13  O   UNL     1      45.968  20.563  21.920  0.00  0.00    -0.435 OA
ATOM     14  C   UNL     1      46.336  18.987  20.212  0.00  0.00    +0.071 C 
BRANCH  14  15
ATOM     15  C   UNL     1      45.885  18.332  19.051  0.00  0.00    +0.377 C 
ATOM     16  O   UNL     1      45.563  18.981  18.071  0.00  0.00    -0.395 OA
BRANCH  15  17
ATOM     17  C   UNL     1      45.803  16.854  19.020  0.00  0.00    -0.153 A 
ATOM     18  C   UNL     1      45.199  16.164  20.072  0.00  0.00    +0.051 A 
ATOM     19  C   UNL     1      45.124  14.786  20.035  0.00  0.00    +0.003 A 
ATOM     20  C   UNL     1      45.647  14.090  18.961  0.00  0.00    +0.043 A 
ATOM     21  C   UNL     1      46.248  14.769  17.915  0.00  0.00    +0.002 A 
ATOM     22  C   UNL     1      46.322  16.147  17.936  0.00  0.00    +0.076 A 
ENDBRANCH  15  17
ENDBRANCH  14  15
ENDBRANCH  11  12
BRANCH   3   2
ATOM      1  C   UNL     1      44.439  23.156  20.002  0.00  0.00    +0.239 C 
ATOM      2  O   UNL     1      44.462  21.907  19.308  0.00  0.00    -0.334 OA
ENDBRANCH   3   2
TORSDOF 4
ENDMDL
MODEL 4
REMARK VINA RESULT:      -5.4      1.898      3.666
REMARK  Name = ZINC00058188
REMARK  5 active torsions:
REMARK  status: ('A' for Active; 'I' for Inactive)
REMARK    1  A    between atoms: C1_1  and  O1_2
REMARK    2  A    between atoms: O1_2  and  C2_3
REMARK    3  A    between atoms: C9_11  and  C10_12
REMARK    4  A    between atoms: C11_14  and  C12_15
REMARK    5  A    between atoms: C12_15  and  C13_17
REMARK                            x       y       z     vdW  Elec       q    Type
REMARK                         _______ _______ _______ _____ _____    ______ ____
ROOT
ATOM      3  C   UNL     1      47.754  15.596  18.760  0.00  0.00    +0.197 A 
ATOM      4  C   UNL     1      46.590  16.200  19.241  0.00  0.00    -0.155 A 
ATOM      5  C   UNL     1      45.706  15.953  20.388  0.00  0.00    -0.035 A 
ATOM      6  C   UNL     1      44.740  16.877  20.319  0.00  0.00    +0.222 A 
ATOM      7  O   UNL     1      44.932  17.669  19.249  0.00  0.00    -0.188 OA
ATOM      8  C   UNL     1      46.035  17.300  18.569  0.00  0.00    +0.084 A 
ATOM      9  C   UNL     1      46.652  17.786  17.417  0.00  0.00    +0.041 A 
ATOM     10  C   UNL     1      47.788  17.202  16.942  0.00  0.00    +0.101 A 
ATOM     11  C   UNL     1      48.361  16.106  17.606  0.00  0.00    -0.127 A 
ENDROOT
BRANCH  11  12
ATOM     12  C   UNL     1      49.591  15.490  17.085  0.00  0.00    +0.314 C 
ATOM     13  O   UNL     1      49.527  14.326  16.400  0.00  0.00    -0.435 OA
ATOM     14  C   UNL     1      50.799  16.093  17.295  0.00  0.00    +0.071 C 
BRANCH  14  15
ATOM     15  C   UNL     1      50.888  17.212  18.143  0.00  0.00    +0.377 C 
ATOM     16  O   UNL     1      50.788  17.071  19.349  0.00  0.00    -0.395 OA
BRANCH  15  17
ATOM     17  C   UNL     1      51.104  18.559  17.569  0.00  0.00    -0.153 A 
ATOM     18  C   UNL     1      51.726  18.701  16.328  0.00  0.00    +0.051 A 
ATOM     19  C   UNL     1      51.923  19.960  15.799  0.00  0.00    +0.003 A 
ATOM     20  C   UNL     1      51.508  21.080  16.496  0.00  0.00    +0.043 A 
ATOM     21  C   UNL     1      50.891  20.946  17.727  0.00  0.00    +0.002 A 
ATOM     22  C   UNL     1      50.681  19.693  18.264  0.00  0.00    +0.076 A 
ENDBRANCH  15  17
ENDBRANCH  14  15
ENDBRANCH  11  12
BRANCH   3   2
ATOM      1  C   UNL     1      47.686  13.259  19.182  0.00  0.00    +0.239 C 
ATOM      2  O   UNL     1      48.294  14.533  19.406  0.00  0.00    -0.334 OA
ENDBRANCH   3   2
TORSDOF 4
ENDMDL
MODEL 5
REMARK VINA RESULT:      -5.4      2.119      6.237
REMARK  Name = ZINC00058188
REMARK  5 active torsions:
REMARK  status: ('A' for Active; 'I' for Inactive)
REMARK    1  A    between atoms: C1_1  and  O1_2
REMARK    2  A    between atoms: O1_2  and  C2_3
REMARK    3  A    between atoms: C9_11  and  C10_12
REMARK    4  A    between atoms: C11_14  and  C12_15
REMARK    5  A    between atoms: C12_15  and  C13_17
REMARK                            x       y       z     vdW  Elec       q    Type
REMARK                         _______ _______ _______ _____ _____    ______ ____
ROOT
ATOM      3  C   UNL     1      49.912  18.181  17.871  0.00  0.00    +0.197 A 
ATOM      4  C   UNL     1      50.712  19.166  17.286  0.00  0.00    -0.155 A 
ATOM      5  C   UNL     1      51.592  19.207  16.111  0.00  0.00    -0.035 A 
ATOM      6  C   UNL     1      52.092  20.448  16.064  0.00  0.00    +0.222 A 
ATOM      7  O   UNL     1      51.615  21.179  17.087  0.00  0.00    -0.188 OA
ATOM      8  C   UNL     1      50.779  20.449  17.852  0.00  0.00    +0.084 A 
ATOM      9  C   UNL     1      50.043  20.735  19.001  0.00  0.00    +0.041 A 
ATOM     10  C   UNL     1      49.262  19.779  19.577  0.00  0.00    +0.101 A 
ATOM     11  C   UNL     1      49.176  18.493  19.021  0.00  0.00    -0.127 A 
ENDROOT
BRANCH  11  12
ATOM     12  C   UNL     1      48.322  17.473  19.649  0.00  0.00    +0.314 C 
ATOM     13  O   UNL     1      48.864  16.558  20.483  0.00  0.00    -0.435 OA
ATOM     14  C   UNL     1      46.981  17.451  19.390  0.00  0.00    +0.071 C 
BRANCH  14  15
ATOM     15  C   UNL     1      46.442  18.295  18.401  0.00  0.00    +0.377 C 
ATOM     16  O   UNL     1      46.649  18.062  17.223  0.00  0.00    -0.395 OA
BRANCH  15  17
ATOM     17  C   UNL     1      45.623  19.464  18.792  0.00  0.00    -0.153 A 
ATOM     18  C   UNL     1      44.318  19.283  19.252  0.00  0.00    +0.051 A 
ATOM     19  C   UNL     1      43.560  20.377  19.616  0.00  0.00    +0.003 A 
ATOM     20  C   UNL     1      44.091  21.651  19.526  0.00  0.00    +0.043 A 
ATOM     21  C   UNL     1      45.385  21.837  19.071  0.00  0.00    +0.002 A 
ATOM     22  C   UNL     1      46.155  20.751  18.711  0.00  0.00    +0.076 A 
ENDBRANCH  15  17
ENDBRANCH  14  15
ENDBRANCH  11  12
BRANCH   3   2
ATOM      1  C   UNL     1      50.939  16.058  17.585  0.00  0.00    +0.239 C 
ATOM      2  O   UNL     1      49.844  16.940  17.329  0.00  0.00    -0.334 OA
ENDBRANCH   3   2
TORSDOF 4
ENDMDL
MODEL 6
REMARK VINA RESULT:      -5.3      1.659      3.752
REMARK  Name = ZINC00058188
REMARK  5 active torsions:
REMARK  status: ('A' for Active; 'I' for Inactive)
REMARK    1  A    between atoms: C1_1  and  O1_2
REMARK    2  A    between atoms: O1_2  and  C2_3
REMARK    3  A    between atoms: C9_11  and  C10_12
REMARK    4  A    between atoms: C11_14  and  C12_15
REMARK    5  A    between atoms: C12_15  and  C13_17
REMARK                            x       y       z     vdW  Elec       q    Type
REMARK                         _______ _______ _______ _____ _____    ______ ____
ROOT
ATOM      3  C   UNL     1      45.821  19.339  20.638  0.00  0.00    +0.197 A 
ATOM      4  C   UNL     1      45.442  20.623  21.035  0.00  0.00    -0.155 A 
ATOM      5  C   UNL     1      44.954  21.204  22.293  0.00  0.00    -0.035 A 
ATOM      6  C   UNL     1      44.759  22.507  22.050  0.00  0.00    +0.222 A 
ATOM      7  O   UNL     1      45.073  22.792  20.773  0.00  0.00    -0.188 OA
ATOM      8  C   UNL     1      45.490  21.688  20.122  0.00  0.00    +0.084 A 
ATOM      9  C   UNL     1      45.919  21.457  18.816  0.00  0.00    +0.041 A 
ATOM     10  C   UNL     1      46.289  20.206  18.422  0.00  0.00    +0.101 A 
ATOM     11  C   UNL     1      46.255  19.131  19.323  0.00  0.00    -0.127 A 
ENDROOT
BRANCH  11  12
ATOM     12  C   UNL     1      46.665  17.788  18.885  0.00  0.00    +0.314 C 
ATOM     13  O   UNL     1      45.734  16.892  18.489  0.00  0.00    -0.435 OA
ATOM     14  C   UNL     1      47.988  17.446  18.879  0.00  0.00    +0.071 C 
BRANCH  14  15
ATOM     15  C   UNL     1      48.941  18.314  19.441  0.00  0.00    +0.377 C 
ATOM     16  O   UNL     1      49.049  18.398  20.653  0.00  0.00    -0.395 OA
BRANCH  15  17
ATOM     17  C   UNL     1      49.814  19.125  18.562  0.00  0.00    -0.153 A 
ATOM     18  C   UNL     1      49.975  20.490  18.801  0.00  0.00    +0.051 A 
ATOM     19  C   UNL     1      50.791  21.239  17.979  0.00  0.00    +0.003 A 
ATOM     20  C   UNL     1      51.449  20.640  16.919  0.00  0.00    +0.043 A 
ATOM     21  C   UNL     1      51.293  19.287  16.678  0.00  0.00    +0.002 A 
ATOM     22  C   UNL     1      50.485  18.525  17.496  0.00  0.00    +0.076 A 
ENDBRANCH  15  17
ENDBRANCH  14  15
ENDBRANCH  11  12
BRANCH   3   2
ATOM      1  C   UNL     1      44.502  17.698  21.738  0.00  0.00    +0.239 C 
ATOM      2  O   UNL     1      45.776  18.307  21.516  0.00  0.00    -0.334 OA
ENDBRANCH   3   2
TORSDOF 4
ENDMDL
MODEL 7
REMARK VINA RESULT:      -5.2      2.180      3.062
REMARK  Name = ZINC00058188
REMARK  5 active torsions:
REMARK  status: ('A' for Active; 'I' for Inactive)
REMARK    1  A    between atoms: C1_1  and  O1_2
REMARK    2  A    between atoms: O1_2  and  C2_3
REMARK    3  A    between atoms: C9_11  and  C10_12
REMARK    4  A    between atoms: C11_14  and  C12_15
REMARK    5  A    between atoms: C12_15  and  C13_17
REMARK                            x       y       z     vdW  Elec       q    Type
REMARK                         _______ _______ _______ _____ _____    ______ ____
ROOT
ATOM      3  C   UNL     1      46.475  19.353  20.692  0.00  0.00    +0.197 A 
ATOM      4  C   UNL     1      45.297  19.737  20.046  0.00  0.00    -0.155 A 
ATOM      5  C   UNL     1      44.092  20.465  20.462  0.00  0.00    -0.035 A 
ATOM      6  C   UNL     1      43.300  20.522  19.383  0.00  0.00    +0.222 A 
ATOM      7  O   UNL     1      43.889  19.902  18.344  0.00  0.00    -0.188 OA
ATOM      8  C   UNL     1      45.095  19.414  18.695  0.00  0.00    +0.084 A 
ATOM      9  C   UNL     1      46.076  18.707  18.002  0.00  0.00    +0.041 A 
ATOM     10  C   UNL     1      47.227  18.329  18.625  0.00  0.00    +0.101 A 
ATOM     11  C   UNL     1      47.450  18.650  19.974  0.00  0.00    -0.127 A 
ENDROOT
BRANCH  11  12
ATOM     12  C   UNL     1      48.701  18.242  20.631  0.00  0.00    +0.314 C 
ATOM     13  O   UNL     1      48.688  17.255  21.555  0.00  0.00    -0.435 OA
ATOM     14  C   UNL     1      49.875  18.861  20.310  0.00  0.00    +0.071 C 
BRANCH  14  15
ATOM     15  C   UNL     1      49.867  19.993  19.474  0.00  0.00    +0.377 C 
ATOM     16  O   UNL     1      49.303  21.012  19.833  0.00  0.00    -0.395 OA
BRANCH  15  17
ATOM     17  C   UNL     1      50.546  19.946  18.159  0.00  0.00    -0.153 A 
ATOM     18  C   UNL     1      51.032  21.119  17.580  0.00  0.00    +0.051 A 
ATOM     19  C   UNL     1      51.665  21.069  16.355  0.00  0.00    +0.003 A 
ATOM     20  C   UNL     1      51.818  19.860  15.701  0.00  0.00    +0.043 A 
ATOM     21  C   UNL     1      51.337  18.693  16.270  0.00  0.00    +0.002 A 
ATOM     22  C   UNL     1      50.709  18.729  17.497  0.00  0.00    +0.076 A 
ENDBRANCH  15  17
ENDBRANCH  14  15
ENDBRANCH  11  12
BRANCH   3   2
ATOM      1  C   UNL     1      47.026  21.015  22.297  0.00  0.00    +0.239 C 
ATOM      2  O   UNL     1      46.675  19.662  21.997  0.00  0.00    -0.334 OA
ENDBRANCH   3   2
TORSDOF 4
ENDMDL
MODEL 8
REMARK VINA RESULT:      -5.2      2.928      5.075
REMARK  Name = ZINC00058188
REMARK  5 active torsions:
REMARK  status: ('A' for Active; 'I' for Inactive)
REMARK    1  A    between atoms: C1_1  and  O1_2
REMARK    2  A    between atoms: O1_2  and  C2_3
REMARK    3  A    between atoms: C9_11  and  C10_12
REMARK    4  A    between atoms: C11_14  and  C12_15
REMARK    5  A    between atoms: C12_15  and  C13_17
REMARK                            x       y       z     vdW  Elec       q    Type
REMARK                         _______ _______ _______ _____ _____    ______ ____
ROOT
ATOM      3  C   UNL     1      43.393  20.443  20.148  0.00  0.00    +0.197 A 
ATOM      4  C   UNL     1      42.227  20.672  19.414  0.00  0.00    -0.155 A 
ATOM      5  C   UNL     1      41.122  19.821  18.955  0.00  0.00    -0.035 A 
ATOM      6  C   UNL     1      40.285  20.625  18.287  0.00  0.00    +0.222 A 
ATOM      7  O   UNL     1      40.758  21.885  18.284  0.00  0.00    -0.188 OA
ATOM      8  C   UNL     1      41.926  21.963  18.952  0.00  0.00    +0.084 A 
ATOM      9  C   UNL     1      42.798  23.015  19.228  0.00  0.00    +0.041 A 
ATOM     10  C   UNL     1      43.937  22.799  19.943  0.00  0.00    +0.101 A 
ATOM     11  C   UNL     1      44.251  21.516  20.420  0.00  0.00    -0.127 A 
ENDROOT
BRANCH  11  12
ATOM     12  C   UNL     1      45.481  21.299  21.197  0.00  0.00    +0.314 C 
ATOM     13  O   UNL     1      45.523  21.637  22.505  0.00  0.00    -0.435 OA
ATOM     14  C   UNL     1      46.581  20.757  20.596  0.00  0.00    +0.071 C 
BRANCH  14  15
ATOM     15  C   UNL     1      46.595  20.557  19.204  0.00  0.00    +0.377 C 
ATOM     16  O   UNL     1      46.373  21.490  18.452  0.00  0.00    -0.395 OA
BRANCH  15  17
ATOM     17  C   UNL     1      46.882  19.213  18.652  0.00  0.00    -0.153 A 
ATOM     18  C   UNL     1      48.160  18.666  18.767  0.00  0.00    +0.051 A 
ATOM     19  C   UNL     1      48.420  17.413  18.253  0.00  0.00    +0.003 A 
ATOM     20  C   UNL     1      47.417  16.699  17.622  0.00  0.00    +0.043 A 
ATOM     21  C   UNL     1      46.147  17.236  17.504  0.00  0.00    +0.002 A 
ATOM     22  C   UNL     1      45.872  18.485  18.021  0.00  0.00    +0.076 A 
ENDBRANCH  15  17
ENDBRANCH  14  15
ENDBRANCH  11  12
BRANCH   3   2
ATOM      1  C   UNL     1      43.048  18.774  21.802  0.00  0.00    +0.239 C 
ATOM      2  O   UNL     1      43.689  19.199  20.597  0.00  0.00    -0.334 OA
ENDBRANCH   3   2
TORSDOF 4
ENDMDL
MODEL 9
REMARK VINA RESULT:      -4.9      2.933      5.987
REMARK  Name = ZINC00058188
REMARK  5 active torsions:
REMARK  status: ('A' for Active; 'I' for Inactive)
REMARK    1  A    between atoms: C1_1  and  O1_2
REMARK    2  A    between atoms: O1_2  and  C2_3
REMARK    3  A    between atoms: C9_11  and  C10_12
REMARK    4  A    between atoms: C11_14  and  C12_15
REMARK    5  A    between atoms: C12_15  and  C13_17
REMARK                            x       y       z     vdW  Elec       q    Type
REMARK                         _______ _______ _______ _____ _____    ______ ____
ROOT
ATOM      3  C   UNL     1      51.162  18.773  19.297  0.00  0.00    +0.197 A 
ATOM      4  C   UNL     1      51.386  18.790  17.918  0.00  0.00    -0.155 A 
ATOM      5  C   UNL     1      51.807  17.782  16.937  0.00  0.00    -0.035 A 
ATOM      6  C   UNL     1      51.843  18.407  15.753  0.00  0.00    +0.222 A 
ATOM      7  O   UNL     1      51.489  19.697  15.900  0.00  0.00    -0.188 OA
ATOM      8  C   UNL     1      51.204  19.975  17.188  0.00  0.00    +0.084 A 
ATOM      9  C   UNL     1      50.799  21.135  17.846  0.00  0.00    +0.041 A 
ATOM     10  C   UNL     1      50.579  21.126  19.190  0.00  0.00    +0.101 A 
ATOM     11  C   UNL     1      50.748  19.949  19.936  0.00  0.00    -0.127 A 
ENDROOT
BRANCH  11  12
ATOM     12  C   UNL     1      50.500  19.952  21.386  0.00  0.00    +0.314 C 
ATOM     13  O   UNL     1      51.513  20.202  22.245  0.00  0.00    -0.435 OA
ATOM     14  C   UNL     1      49.245  19.702  21.864  0.00  0.00    +0.071 C 
BRANCH  14  15
ATOM     15  C   UNL     1      48.228  19.283  20.987  0.00  0.00    +0.377 C 
ATOM     16  O   UNL     1      48.133  18.106  20.683  0.00  0.00    -0.395 OA
BRANCH  15  17
ATOM     17  C   UNL     1      47.273  20.270  20.435  0.00  0.00    -0.153 A 
ATOM     18  C   UNL     1      46.805  20.137  19.127  0.00  0.00    +0.051 A 
ATOM     19  C   UNL     1      45.914  21.059  18.619  0.00  0.00    +0.003 A 
ATOM     20  C   UNL     1      45.485  22.115  19.402  0.00  0.00    +0.043 A 
ATOM     21  C   UNL     1      45.945  22.253  20.700  0.00  0.00    +0.002 A 
ATOM     22  C   UNL     1      46.831  21.333  21.222  0.00  0.00    +0.076 A 
ENDBRANCH  15  17
ENDBRANCH  14  15
ENDBRANCH  11  12
BRANCH   3   2
ATOM      1  C   UNL     1      52.664  17.331  20.439  0.00  0.00    +0.239 C 
ATOM      2  O   UNL     1      51.335  17.632  20.008  0.00  0.00    -0.334 OA
ENDBRANCH   3   2
TORSDOF 4
ENDMDL
