MODEL 1
REMARK VINA RESULT:      -6.8      0.000      0.000
REMARK  Name = ZINC85948413
REMARK  12 active torsions:
REMARK  status: ('A' for Active; 'I' for Inactive)
REMARK    1  A    between atoms: C1_1  and  C2_2
REMARK    2  A    between atoms: C3_4  and  O11_38
REMARK    3  A    between atoms: C4_6  and  O10_37
REMARK    4  A    between atoms: C5_8  and  O9_36
REMARK    5  A    between atoms: C6_10  and  O2_13
REMARK    6  A    between atoms: O2_13  and  C7_14
REMARK    7  A    between atoms: C10_18  and  O8_35
REMARK    8  A    between atoms: C12_20  and  O7_34
REMARK    9  A    between atoms: C15_24  and  C16_25
REMARK   10  A    between atoms: C19_28  and  O6_33
REMARK   11  A    between atoms: C20_29  and  O5_31
REMARK   12  A    between atoms: O5_31  and  C22_32
REMARK                            x       y       z     vdW  Elec       q    Type
REMARK                         _______ _______ _______ _____ _____    ______ ____
ROOT
ATOM     14  C   UNL     1      44.851  19.735  20.403  0.00  0.00    -0.085 A 
ATOM     15  C   UNL     1      44.403  21.030  20.037  0.00  0.00    +0.411 A 
ATOM     16  C   UNL     1      43.042  21.146  19.488  0.00  0.00    -0.262 A 
ATOM     17  C   UNL     1      42.517  22.385  19.099  0.00  0.00    +0.222 A 
ATOM     20  C   UNL     1      41.234  22.452  18.589  0.00  0.00    -0.051 A 
ATOM     21  C   UNL     1      40.471  21.296  18.462  0.00  0.00    +0.197 A 
ATOM     24  C   UNL     1      40.984  20.066  18.844  0.00  0.00    -0.025 A 
ATOM     25  C   UNL     1      42.268  19.978  19.359  0.00  0.00    +0.180 A 
ATOM     26  O   UNL     1      42.781  18.788  19.736  0.00  0.00    -0.203 OA
ATOM     27  O   UNL     1      45.117  22.011  20.171  0.00  0.00    -0.444 OA
ATOM     28  C   UNL     1      44.024  18.666  20.232  0.00  0.00    +0.202 A 
ENDROOT
BRANCH  28  29
ATOM     29  C   UNL     1      44.508  17.326  20.612  0.00  0.00    -0.033 A 
ATOM     30  C   UNL     1      44.390  16.888  21.934  0.00  0.00    +0.061 A 
ATOM     31  C   UNL     1      44.843  15.635  22.288  0.00  0.00    +0.038 A 
ATOM     32  C   UNL     1      45.416  14.806  21.334  0.00  0.00    +0.107 A 
ATOM     35  C   UNL     1      45.537  15.236  20.013  0.00  0.00    +0.100 A 
ATOM     38  C   UNL     1      45.079  16.488  19.650  0.00  0.00    -0.013 A 
BRANCH  32  33
ATOM     33  O   UNL     1      45.861  13.572  21.687  0.00  0.00    -0.483 OA
ATOM     34  H   UNL     1      45.872  12.934  20.960  0.00  0.00    +0.392 HD
ENDBRANCH  32  33
BRANCH  35  36
ATOM     36  O   UNL     1      46.098  14.420  19.081  0.00  0.00    -0.304 OA
ATOM     37  C   UNL     1      46.547  15.032  17.870  0.00  0.00    +0.241 C 
ENDBRANCH  35  36
ENDBRANCH  28  29
BRANCH  17  18
ATOM     18  O   UNL     1      43.262  23.513  19.225  0.00  0.00    -0.471 OA
ATOM     19  H   UNL     1      43.708  23.596  20.080  0.00  0.00    +0.403 HD
ENDBRANCH  17  18
BRANCH  21  22
ATOM     22  O   UNL     1      39.213  21.373  17.959  0.00  0.00    -0.486 OA
ATOM     23  H   UNL     1      38.521  21.401  18.635  0.00  0.00    +0.405 HD
ENDBRANCH  21  22
BRANCH  14  13
ATOM     13  O   UNL     1      46.099  19.561  20.917  0.00  0.00    -0.269 OA
BRANCH  13  12
ATOM      1  C   UNL     1      49.556  16.411  20.122  0.00  0.00    +0.071 C 
ATOM      2  C   UNL     1      48.899  17.675  19.563  0.00  0.00    +0.138 C 
ATOM      3  C   UNL     1      49.942  18.791  19.461  0.00  0.00    +0.172 C 
ATOM      6  C   UNL     1      49.264  20.069  18.959  0.00  0.00    +0.202 C 
ATOM      9  C   UNL     1      48.117  20.431  19.907  0.00  0.00    +0.148 C 
ATOM     12  C   UNL     1      47.143  19.252  19.991  0.00  0.00    +0.296 C 
ATOM     39  O   UNL     1      47.844  18.088  20.434  0.00  0.00    -0.381 OA
BRANCH   3   4
ATOM      4  O   UNL     1      50.969  18.403  18.547  0.00  0.00    -0.549 OA
ATOM      5  H   UNL     1      51.233  19.101  17.931  0.00  0.00    +0.380 HD
ENDBRANCH   3   4
BRANCH   6   7
ATOM      7  O   UNL     1      50.216  21.134  18.929  0.00  0.00    -0.535 OA
ATOM      8  H   UNL     1      50.802  21.117  18.158  0.00  0.00    +0.380 HD
ENDBRANCH   6   7
BRANCH   9  10
ATOM     10  O   UNL     1      48.640  20.713  21.205  0.00  0.00    -0.533 OA
ATOM     11  H   UNL     1      48.732  19.934  21.770  0.00  0.00    +0.383 HD
ENDBRANCH   9  10
ENDBRANCH  13  12
ENDBRANCH  14  13
TORSDOF 10
ENDMDL
MODEL 2
REMARK VINA RESULT:      -6.6      1.252      1.938
REMARK  Name = ZINC85948413
REMARK  12 active torsions:
REMARK  status: ('A' for Active; 'I' for Inactive)
REMARK    1  A    between atoms: C1_1  and  C2_2
REMARK    2  A    between atoms: C3_4  and  O11_38
REMARK    3  A    between atoms: C4_6  and  O10_37
REMARK    4  A    between atoms: C5_8  and  O9_36
REMARK    5  A    between atoms: C6_10  and  O2_13
REMARK    6  A    between atoms: O2_13  and  C7_14
REMARK    7  A    between atoms: C10_18  and  O8_35
REMARK    8  A    between atoms: C12_20  and  O7_34
REMARK    9  A    between atoms: C15_24  and  C16_25
REMARK   10  A    between atoms: C19_28  and  O6_33
REMARK   11  A    between atoms: C20_29  and  O5_31
REMARK   12  A    between atoms: O5_31  and  C22_32
REMARK                            x       y       z     vdW  Elec       q    Type
REMARK                         _______ _______ _______ _____ _____    ______ ____
ROOT
ATOM     14  C   UNL     1      45.792  19.747  19.790  0.00  0.00    -0.085 A 
ATOM     15  C   UNL     1      45.403  21.110  19.851  0.00  0.00    +0.411 A 
ATOM     16  C   UNL     1      44.025  21.440  19.451  0.00  0.00    -0.262 A 
ATOM     17  C   UNL     1      43.556  22.760  19.479  0.00  0.00    +0.222 A 
ATOM     20  C   UNL     1      42.255  23.029  19.095  0.00  0.00    -0.051 A 
ATOM     21  C   UNL     1      41.420  21.995  18.684  0.00  0.00    +0.197 A 
ATOM     24  C   UNL     1      41.877  20.687  18.653  0.00  0.00    -0.025 A 
ATOM     25  C   UNL     1      43.178  20.397  19.034  0.00  0.00    +0.180 A 
ATOM     26  O   UNL     1      43.639  19.129  19.010  0.00  0.00    -0.203 OA
ATOM     27  O   UNL     1      46.179  21.976  20.220  0.00  0.00    -0.444 OA
ATOM     28  C   UNL     1      44.895  18.813  19.366  0.00  0.00    +0.202 A 
ENDROOT
BRANCH  28  29
ATOM     29  C   UNL     1      45.317  17.401  19.303  0.00  0.00    -0.033 A 
ATOM     30  C   UNL     1      45.909  16.899  18.140  0.00  0.00    +0.061 A 
ATOM     31  C   UNL     1      46.302  15.579  18.083  0.00  0.00    +0.038 A 
ATOM     32  C   UNL     1      46.113  14.747  19.177  0.00  0.00    +0.107 A 
ATOM     35  C   UNL     1      45.524  15.241  20.340  0.00  0.00    +0.100 A 
ATOM     38  C   UNL     1      45.132  16.564  20.407  0.00  0.00    -0.013 A 
BRANCH  32  33
ATOM     33  O   UNL     1      46.503  13.446  19.116  0.00  0.00    -0.483 OA
ATOM     34  H   UNL     1      47.066  13.240  18.358  0.00  0.00    +0.392 HD
ENDBRANCH  32  33
BRANCH  35  36
ATOM     36  O   UNL     1      45.341  14.422  21.410  0.00  0.00    -0.304 OA
ATOM     37  C   UNL     1      46.250  14.571  22.503  0.00  0.00    +0.241 C 
ENDBRANCH  35  36
ENDBRANCH  28  29
BRANCH  17  18
ATOM     18  O   UNL     1      44.372  23.767  19.881  0.00  0.00    -0.471 OA
ATOM     19  H   UNL     1      45.000  23.511  20.572  0.00  0.00    +0.403 HD
ENDBRANCH  17  18
BRANCH  21  22
ATOM     22  O   UNL     1      40.144  22.271  18.310  0.00  0.00    -0.486 OA
ATOM     23  H   UNL     1      39.733  21.577  17.777  0.00  0.00    +0.405 HD
ENDBRANCH  21  22
BRANCH  14  13
ATOM     13  O   UNL     1      47.051  19.377  20.147  0.00  0.00    -0.269 OA
BRANCH  13  12
ATOM      1  C   UNL     1      50.300  16.879  17.757  0.00  0.00    +0.071 C 
ATOM      2  C   UNL     1      49.726  18.286  17.936  0.00  0.00    +0.138 C 
ATOM      3  C   UNL     1      50.838  19.240  18.379  0.00  0.00    +0.172 C 
ATOM      6  C   UNL     1      50.243  20.631  18.615  0.00  0.00    +0.202 C 
ATOM      9  C   UNL     1      49.121  20.526  19.652  0.00  0.00    +0.148 C 
ATOM     12  C   UNL     1      48.074  19.522  19.158  0.00  0.00    +0.296 C 
ATOM     39  O   UNL     1      48.699  18.258  18.929  0.00  0.00    -0.381 OA
BRANCH   3   4
ATOM      4  O   UNL     1      51.838  19.313  17.362  0.00  0.00    -0.549 OA
ATOM      5  H   UNL     1      51.908  20.180  16.940  0.00  0.00    +0.380 HD
ENDBRANCH   3   4
BRANCH   6   7
ATOM      7  O   UNL     1      51.261  21.510  19.097  0.00  0.00    -0.535 OA
ATOM      8  H   UNL     1      51.918  21.756  18.430  0.00  0.00    +0.380 HD
ENDBRANCH   6   7
BRANCH   9  10
ATOM     10  O   UNL     1      49.661  20.081  20.897  0.00  0.00    -0.533 OA
ATOM     11  H   UNL     1      49.446  19.163  21.113  0.00  0.00    +0.383 HD
ENDBRANCH   9  10
ENDBRANCH  13  12
ENDBRANCH  14  13
TORSDOF 10
ENDMDL
MODEL 3
REMARK VINA RESULT:      -6.5      2.312      5.568
REMARK  Name = ZINC85948413
REMARK  12 active torsions:
REMARK  status: ('A' for Active; 'I' for Inactive)
REMARK    1  A    between atoms: C1_1  and  C2_2
REMARK    2  A    between atoms: C3_4  and  O11_38
REMARK    3  A    between atoms: C4_6  and  O10_37
REMARK    4  A    between atoms: C5_8  and  O9_36
REMARK    5  A    between atoms: C6_10  and  O2_13
REMARK    6  A    between atoms: O2_13  and  C7_14
REMARK    7  A    between atoms: C10_18  and  O8_35
REMARK    8  A    between atoms: C12_20  and  O7_34
REMARK    9  A    between atoms: C15_24  and  C16_25
REMARK   10  A    between atoms: C19_28  and  O6_33
REMARK   11  A    between atoms: C20_29  and  O5_31
REMARK   12  A    between atoms: O5_31  and  C22_32
REMARK                            x       y       z     vdW  Elec       q    Type
REMARK                         _______ _______ _______ _____ _____    ______ ____
ROOT
ATOM     14  C   UNL     1      47.675  18.894  19.792  0.00  0.00    -0.085 A 
ATOM     15  C   UNL     1      46.310  18.529  19.918  0.00  0.00    +0.411 A 
ATOM     16  C   UNL     1      45.307  19.598  19.788  0.00  0.00    -0.262 A 
ATOM     17  C   UNL     1      43.937  19.328  19.899  0.00  0.00    +0.222 A 
ATOM     20  C   UNL     1      43.026  20.360  19.770  0.00  0.00    -0.051 A 
ATOM     21  C   UNL     1      43.469  21.657  19.532  0.00  0.00    +0.197 A 
ATOM     24  C   UNL     1      44.823  21.932  19.421  0.00  0.00    -0.025 A 
ATOM     25  C   UNL     1      45.751  20.910  19.547  0.00  0.00    +0.180 A 
ATOM     26  O   UNL     1      47.073  21.162  19.441  0.00  0.00    -0.203 OA
ATOM     27  O   UNL     1      45.979  17.373  20.128  0.00  0.00    -0.444 OA
ATOM     28  C   UNL     1      48.001  20.197  19.564  0.00  0.00    +0.202 A 
ENDROOT
BRANCH  28  29
ATOM     29  C   UNL     1      49.425  20.562  19.441  0.00  0.00    -0.033 A 
ATOM     30  C   UNL     1      50.204  20.737  20.588  0.00  0.00    +0.061 A 
ATOM     31  C   UNL     1      51.534  21.078  20.472  0.00  0.00    +0.038 A 
ATOM     32  C   UNL     1      52.103  21.249  19.217  0.00  0.00    +0.107 A 
ATOM     35  C   UNL     1      51.331  21.077  18.069  0.00  0.00    +0.100 A 
ATOM     38  C   UNL     1      49.999  20.729  18.178  0.00  0.00    -0.013 A 
BRANCH  32  33
ATOM     33  O   UNL     1      53.415  21.585  19.107  0.00  0.00    -0.483 OA
ATOM     34  H   UNL     1      53.854  21.739  19.954  0.00  0.00    +0.392 HD
ENDBRANCH  32  33
BRANCH  35  36
ATOM     36  O   UNL     1      51.893  21.244  16.842  0.00  0.00    -0.304 OA
ATOM     37  C   UNL     1      52.137  20.064  16.074  0.00  0.00    +0.241 C 
ENDBRANCH  35  36
ENDBRANCH  28  29
BRANCH  17  18
ATOM     18  O   UNL     1      43.507  18.061  20.130  0.00  0.00    -0.471 OA
ATOM     19  H   UNL     1      42.543  17.971  20.150  0.00  0.00    +0.403 HD
ENDBRANCH  17  18
BRANCH  21  22
ATOM     22  O   UNL     1      42.565  22.662  19.407  0.00  0.00    -0.486 OA
ATOM     23  H   UNL     1      41.824  22.453  18.823  0.00  0.00    +0.405 HD
ENDBRANCH  21  22
BRANCH  14  13
ATOM     13  O   UNL     1      48.650  17.952  19.902  0.00  0.00    -0.269 OA
BRANCH  13  12
ATOM      1  C   UNL     1      48.464  13.631  17.954  0.00  0.00    +0.071 C 
ATOM      2  C   UNL     1      48.923  15.069  17.702  0.00  0.00    +0.138 C 
ATOM      3  C   UNL     1      50.431  15.085  17.434  0.00  0.00    +0.172 C 
ATOM      6  C   UNL     1      50.892  16.533  17.244  0.00  0.00    +0.202 C 
ATOM      9  C   UNL     1      50.514  17.345  18.486  0.00  0.00    +0.148 C 
ATOM     12  C   UNL     1      49.003  17.242  18.712  0.00  0.00    +0.296 C 
ATOM     39  O   UNL     1      48.636  15.869  18.851  0.00  0.00    -0.381 OA
BRANCH   3   4
ATOM      4  O   UNL     1      50.714  14.333  16.253  0.00  0.00    -0.549 OA
ATOM      5  H   UNL     1      50.472  13.399  16.314  0.00  0.00    +0.380 HD
ENDBRANCH   3   4
BRANCH   6   7
ATOM      7  O   UNL     1      52.309  16.563  17.064  0.00  0.00    -0.535 OA
ATOM      8  H   UNL     1      52.676  17.454  16.972  0.00  0.00    +0.380 HD
ENDBRANCH   6   7
BRANCH   9  10
ATOM     10  O   UNL     1      51.205  16.828  19.623  0.00  0.00    -0.533 OA
ATOM     11  H   UNL     1      50.646  16.713  20.404  0.00  0.00    +0.383 HD
ENDBRANCH   9  10
ENDBRANCH  13  12
ENDBRANCH  14  13
TORSDOF 10
ENDMDL
MODEL 4
REMARK VINA RESULT:      -6.2      4.475      8.118
REMARK  Name = ZINC85948413
REMARK  12 active torsions:
REMARK  status: ('A' for Active; 'I' for Inactive)
REMARK    1  A    between atoms: C1_1  and  C2_2
REMARK    2  A    between atoms: C3_4  and  O11_38
REMARK    3  A    between atoms: C4_6  and  O10_37
REMARK    4  A    between atoms: C5_8  and  O9_36
REMARK    5  A    between atoms: C6_10  and  O2_13
REMARK    6  A    between atoms: O2_13  and  C7_14
REMARK    7  A    between atoms: C10_18  and  O8_35
REMARK    8  A    between atoms: C12_20  and  O7_34
REMARK    9  A    between atoms: C15_24  and  C16_25
REMARK   10  A    between atoms: C19_28  and  O6_33
REMARK   11  A    between atoms: C20_29  and  O5_31
REMARK   12  A    between atoms: O5_31  and  C22_32
REMARK                            x       y       z     vdW  Elec       q    Type
REMARK                         _______ _______ _______ _____ _____    ______ ____
ROOT
ATOM     14  C   UNL     1      50.060  16.258  18.390  0.00  0.00    -0.085 A 
ATOM     15  C   UNL     1      49.815  17.608  18.751  0.00  0.00    +0.411 A 
ATOM     16  C   UNL     1      50.501  18.652  17.973  0.00  0.00    -0.262 A 
ATOM     17  C   UNL     1      50.318  20.011  18.261  0.00  0.00    +0.222 A 
ATOM     20  C   UNL     1      50.981  20.962  17.507  0.00  0.00    -0.051 A 
ATOM     21  C   UNL     1      51.823  20.570  16.471  0.00  0.00    +0.197 A 
ATOM     24  C   UNL     1      52.009  19.228  16.182  0.00  0.00    -0.025 A 
ATOM     25  C   UNL     1      51.353  18.259  16.926  0.00  0.00    +0.180 A 
ATOM     26  O   UNL     1      51.523  16.948  16.656  0.00  0.00    -0.203 OA
ATOM     27  O   UNL     1      49.064  17.893  19.671  0.00  0.00    -0.444 OA
ATOM     28  C   UNL     1      50.909  15.983  17.361  0.00  0.00    +0.202 A 
ENDROOT
BRANCH  28  29
ATOM     29  C   UNL     1      51.157  14.574  17.003  0.00  0.00    -0.033 A 
ATOM     30  C   UNL     1      51.866  13.744  17.876  0.00  0.00    +0.061 A 
ATOM     31  C   UNL     1      52.098  12.428  17.539  0.00  0.00    +0.038 A 
ATOM     32  C   UNL     1      51.629  11.924  16.334  0.00  0.00    +0.107 A 
ATOM     35  C   UNL     1      50.922  12.746  15.458  0.00  0.00    +0.100 A 
ATOM     38  C   UNL     1      50.680  14.065  15.792  0.00  0.00    -0.013 A 
BRANCH  32  33
ATOM     33  O   UNL     1      51.860  10.625  16.006  0.00  0.00    -0.483 OA
ATOM     34  H   UNL     1      52.770  10.444  15.733  0.00  0.00    +0.392 HD
ENDBRANCH  32  33
BRANCH  35  36
ATOM     36  O   UNL     1      50.463  12.247  14.279  0.00  0.00    -0.304 OA
ATOM     37  C   UNL     1      50.962  12.849  13.083  0.00  0.00    +0.241 C 
ENDBRANCH  35  36
ENDBRANCH  28  29
BRANCH  17  18
ATOM     18  O   UNL     1      49.495  20.392  19.271  0.00  0.00    -0.471 OA
ATOM     19  H   UNL     1      48.745  19.796  19.412  0.00  0.00    +0.403 HD
ENDBRANCH  17  18
BRANCH  21  22
ATOM     22  O   UNL     1      52.468  21.513  15.737  0.00  0.00    -0.486 OA
ATOM     23  H   UNL     1      51.877  22.113  15.263  0.00  0.00    +0.405 HD
ENDBRANCH  21  22
BRANCH  14  13
ATOM     13  O   UNL     1      49.455  15.246  19.070  0.00  0.00    -0.269 OA
BRANCH  13  12
ATOM      1  C   UNL     1      44.975  15.192  20.630  0.00  0.00    +0.071 C 
ATOM      2  C   UNL     1      45.857  14.853  19.426  0.00  0.00    +0.138 C 
ATOM      3  C   UNL     1      45.721  13.365  19.095  0.00  0.00    +0.172 C 
ATOM      6  C   UNL     1      46.652  13.023  17.928  0.00  0.00    +0.202 C 
ATOM      9  C   UNL     1      48.087  13.406  18.304  0.00  0.00    +0.148 C 
ATOM     12  C   UNL     1      48.131  14.894  18.664  0.00  0.00    +0.296 C 
ATOM     39  O   UNL     1      47.220  15.150  19.735  0.00  0.00    -0.381 OA
BRANCH   3   4
ATOM      4  O   UNL     1      44.370  13.078  18.730  0.00  0.00    -0.549 OA
ATOM      5  H   UNL     1      44.061  13.563  17.952  0.00  0.00    +0.380 HD
ENDBRANCH   3   4
BRANCH   6   7
ATOM      7  O   UNL     1      46.585  11.621  17.659  0.00  0.00    -0.535 OA
ATOM      8  H   UNL     1      46.686  11.064  18.444  0.00  0.00    +0.380 HD
ENDBRANCH   6   7
BRANCH   9  10
ATOM     10  O   UNL     1      48.511  12.629  19.424  0.00  0.00    -0.533 OA
ATOM     11  H   UNL     1      49.023  13.126  20.076  0.00  0.00    +0.383 HD
ENDBRANCH   9  10
ENDBRANCH  13  12
ENDBRANCH  14  13
TORSDOF 10
ENDMDL
MODEL 5
REMARK VINA RESULT:      -6.1      2.378      7.139
REMARK  Name = ZINC85948413
REMARK  12 active torsions:
REMARK  status: ('A' for Active; 'I' for Inactive)
REMARK    1  A    between atoms: C1_1  and  C2_2
REMARK    2  A    between atoms: C3_4  and  O11_38
REMARK    3  A    between atoms: C4_6  and  O10_37
REMARK    4  A    between atoms: C5_8  and  O9_36
REMARK    5  A    between atoms: C6_10  and  O2_13
REMARK    6  A    between atoms: O2_13  and  C7_14
REMARK    7  A    between atoms: C10_18  and  O8_35
REMARK    8  A    between atoms: C12_20  and  O7_34
REMARK    9  A    between atoms: C15_24  and  C16_25
REMARK   10  A    between atoms: C19_28  and  O6_33
REMARK   11  A    between atoms: C20_29  and  O5_31
REMARK   12  A    between atoms: O5_31  and  C22_32
REMARK                            x       y       z     vdW  Elec       q    Type
REMARK                         _______ _______ _______ _____ _____    ______ ____
ROOT
ATOM     14  C   UNL     1      48.258  18.022  18.035  0.00  0.00    -0.085 A 
ATOM     15  C   UNL     1      49.625  17.998  17.657  0.00  0.00    +0.411 A 
ATOM     16  C   UNL     1      50.491  19.067  18.179  0.00  0.00    -0.262 A 
ATOM     17  C   UNL     1      51.854  19.122  17.857  0.00  0.00    +0.222 A 
ATOM     20  C   UNL     1      52.634  20.142  18.368  0.00  0.00    -0.051 A 
ATOM     21  C   UNL     1      52.069  21.107  19.195  0.00  0.00    +0.197 A 
ATOM     24  C   UNL     1      50.722  21.060  19.518  0.00  0.00    -0.025 A 
ATOM     25  C   UNL     1      49.923  20.044  19.016  0.00  0.00    +0.180 A 
ATOM     26  O   UNL     1      48.609  19.984  19.321  0.00  0.00    -0.203 OA
ATOM     27  O   UNL     1      50.066  17.125  16.927  0.00  0.00    -0.444 OA
ATOM     28  C   UNL     1      47.804  19.018  18.847  0.00  0.00    +0.202 A 
ENDROOT
BRANCH  28  29
ATOM     29  C   UNL     1      46.379  19.032  19.226  0.00  0.00    -0.033 A 
ATOM     30  C   UNL     1      45.444  19.672  18.408  0.00  0.00    +0.061 A 
ATOM     31  C   UNL     1      44.113  19.685  18.764  0.00  0.00    +0.038 A 
ATOM     32  C   UNL     1      43.697  19.063  19.933  0.00  0.00    +0.107 A 
ATOM     35  C   UNL     1      44.624  18.423  20.754  0.00  0.00    +0.100 A 
ATOM     38  C   UNL     1      45.960  18.401  20.400  0.00  0.00    -0.013 A 
BRANCH  32  33
ATOM     33  O   UNL     1      42.383  19.078  20.279  0.00  0.00    -0.483 OA
ATOM     34  H   UNL     1      41.937  19.915  20.093  0.00  0.00    +0.392 HD
ENDBRANCH  32  33
BRANCH  35  36
ATOM     36  O   UNL     1      44.213  17.813  21.898  0.00  0.00    -0.304 OA
ATOM     37  C   UNL     1      44.139  16.386  21.882  0.00  0.00    +0.241 C 
ENDBRANCH  35  36
ENDBRANCH  28  29
BRANCH  17  18
ATOM     18  O   UNL     1      52.404  18.179  17.050  0.00  0.00    -0.471 OA
ATOM     19  H   UNL     1      51.755  17.648  16.567  0.00  0.00    +0.403 HD
ENDBRANCH  17  18
BRANCH  21  22
ATOM     22  O   UNL     1      52.845  22.104  19.691  0.00  0.00    -0.486 OA
ATOM     23  H   UNL     1      53.519  21.803  20.316  0.00  0.00    +0.405 HD
ENDBRANCH  21  22
BRANCH  14  13
ATOM     13  O   UNL     1      47.405  17.062  17.586  0.00  0.00    -0.269 OA
BRANCH  13  12
ATOM      1  C   UNL     1      47.546  12.748  15.617  0.00  0.00    +0.071 C 
ATOM      2  C   UNL     1      47.826  13.512  16.913  0.00  0.00    +0.138 C 
ATOM      3  C   UNL     1      46.976  12.928  18.045  0.00  0.00    +0.172 C 
ATOM      6  C   UNL     1      47.217  13.737  19.323  0.00  0.00    +0.202 C 
ATOM      9  C   UNL     1      46.890  15.209  19.052  0.00  0.00    +0.148 C 
ATOM     12  C   UNL     1      47.744  15.705  17.881  0.00  0.00    +0.296 C 
ATOM     39  O   UNL     1      47.496  14.891  16.734  0.00  0.00    -0.381 OA
BRANCH   3   4
ATOM      4  O   UNL     1      47.345  11.565  18.264  0.00  0.00    -0.549 OA
ATOM      5  H   UNL     1      47.035  11.204  19.106  0.00  0.00    +0.380 HD
ENDBRANCH   3   4
BRANCH   6   7
ATOM      7  O   UNL     1      46.375  13.243  20.366  0.00  0.00    -0.535 OA
ATOM      8  H   UNL     1      46.532  12.315  20.592  0.00  0.00    +0.380 HD
ENDBRANCH   6   7
BRANCH   9  10
ATOM     10  O   UNL     1      45.507  15.338  18.724  0.00  0.00    -0.533 OA
ATOM     11  H   UNL     1      45.307  15.183  17.790  0.00  0.00    +0.383 HD
ENDBRANCH   9  10
ENDBRANCH  13  12
ENDBRANCH  14  13
TORSDOF 10
ENDMDL
MODEL 6
REMARK VINA RESULT:      -5.8      2.629      6.581
REMARK  Name = ZINC85948413
REMARK  12 active torsions:
REMARK  status: ('A' for Active; 'I' for Inactive)
REMARK    1  A    between atoms: C1_1  and  C2_2
REMARK    2  A    between atoms: C3_4  and  O11_38
REMARK    3  A    between atoms: C4_6  and  O10_37
REMARK    4  A    between atoms: C5_8  and  O9_36
REMARK    5  A    between atoms: C6_10  and  O2_13
REMARK    6  A    between atoms: O2_13  and  C7_14
REMARK    7  A    between atoms: C10_18  and  O8_35
REMARK    8  A    between atoms: C12_20  and  O7_34
REMARK    9  A    between atoms: C15_24  and  C16_25
REMARK   10  A    between atoms: C19_28  and  O6_33
REMARK   11  A    between atoms: C20_29  and  O5_31
REMARK   12  A    between atoms: O5_31  and  C22_32
REMARK                            x       y       z     vdW  Elec       q    Type
REMARK                         _______ _______ _______ _____ _____    ______ ____
ROOT
ATOM     14  C   UNL     1      48.496  17.514  19.023  0.00  0.00    -0.085 A 
ATOM     15  C   UNL     1      49.351  16.489  18.543  0.00  0.00    +0.411 A 
ATOM     16  C   UNL     1      48.767  15.490  17.635  0.00  0.00    -0.262 A 
ATOM     17  C   UNL     1      49.538  14.442  17.113  0.00  0.00    +0.222 A 
ATOM     20  C   UNL     1      48.953  13.523  16.263  0.00  0.00    -0.051 A 
ATOM     21  C   UNL     1      47.607  13.638  15.929  0.00  0.00    +0.197 A 
ATOM     24  C   UNL     1      46.838  14.671  16.441  0.00  0.00    -0.025 A 
ATOM     25  C   UNL     1      47.407  15.603  17.295  0.00  0.00    +0.180 A 
ATOM     26  O   UNL     1      46.672  16.615  17.803  0.00  0.00    -0.203 OA
ATOM     27  O   UNL     1      50.526  16.438  18.870  0.00  0.00    -0.444 OA
ATOM     28  C   UNL     1      47.189  17.532  18.638  0.00  0.00    +0.202 A 
ENDROOT
BRANCH  28  29
ATOM     29  C   UNL     1      46.312  18.600  19.151  0.00  0.00    -0.033 A 
ATOM     30  C   UNL     1      46.189  19.803  18.449  0.00  0.00    +0.061 A 
ATOM     31  C   UNL     1      45.369  20.800  18.930  0.00  0.00    +0.038 A 
ATOM     32  C   UNL     1      44.663  20.614  20.110  0.00  0.00    +0.107 A 
ATOM     35  C   UNL     1      44.780  19.418  20.815  0.00  0.00    +0.100 A 
ATOM     38  C   UNL     1      45.596  18.411  20.336  0.00  0.00    -0.013 A 
BRANCH  32  33
ATOM     33  O   UNL     1      43.855  21.601  20.580  0.00  0.00    -0.483 OA
ATOM     34  H   UNL     1      43.486  22.169  19.891  0.00  0.00    +0.392 HD
ENDBRANCH  32  33
BRANCH  35  36
ATOM     36  O   UNL     1      44.086  19.239  21.971  0.00  0.00    -0.304 OA
ATOM     37  C   UNL     1      42.921  18.413  21.907  0.00  0.00    +0.241 C 
ENDBRANCH  35  36
ENDBRANCH  28  29
BRANCH  17  18
ATOM     18  O   UNL     1      50.851  14.332  17.439  0.00  0.00    -0.471 OA
ATOM     19  H   UNL     1      51.327  13.660  16.931  0.00  0.00    +0.403 HD
ENDBRANCH  17  18
BRANCH  21  22
ATOM     22  O   UNL     1      47.042  12.730  15.093  0.00  0.00    -0.486 OA
ATOM     23  H   UNL     1      46.118  12.531  15.295  0.00  0.00    +0.405 HD
ENDBRANCH  21  22
BRANCH  14  13
ATOM     13  O   UNL     1      48.975  18.469  19.866  0.00  0.00    -0.269 OA
BRANCH  13  12
ATOM      1  C   UNL     1      52.526  20.894  21.871  0.00  0.00    +0.071 C 
ATOM      2  C   UNL     1      52.092  20.206  20.575  0.00  0.00    +0.138 C 
ATOM      3  C   UNL     1      52.091  21.223  19.431  0.00  0.00    +0.172 C 
ATOM      6  C   UNL     1      51.598  20.540  18.152  0.00  0.00    +0.202 C 
ATOM      9  C   UNL     1      50.207  19.951  18.405  0.00  0.00    +0.148 C 
ATOM     12  C   UNL     1      50.281  18.981  19.589  0.00  0.00    +0.296 C 
ATOM     39  O   UNL     1      50.776  19.672  20.737  0.00  0.00    -0.381 OA
BRANCH   3   4
ATOM      4  O   UNL     1      53.417  21.715  19.230  0.00  0.00    -0.549 OA
ATOM      5  H   UNL     1      53.569  22.598  19.597  0.00  0.00    +0.380 HD
ENDBRANCH   3   4
BRANCH   6   7
ATOM      7  O   UNL     1      51.527  21.501  17.096  0.00  0.00    -0.535 OA
ATOM      8  H   UNL     1      50.713  21.453  16.574  0.00  0.00    +0.380 HD
ENDBRANCH   6   7
BRANCH   9  10
ATOM     10  O   UNL     1      49.289  21.002  18.704  0.00  0.00    -0.533 OA
ATOM     11  H   UNL     1      49.690  21.882  18.719  0.00  0.00    +0.383 HD
ENDBRANCH   9  10
ENDBRANCH  13  12
ENDBRANCH  14  13
TORSDOF 10
ENDMDL
MODEL 7
REMARK VINA RESULT:      -5.7      2.384      5.615
REMARK  Name = ZINC85948413
REMARK  12 active torsions:
REMARK  status: ('A' for Active; 'I' for Inactive)
REMARK    1  A    between atoms: C1_1  and  C2_2
REMARK    2  A    between atoms: C3_4  and  O11_38
REMARK    3  A    between atoms: C4_6  and  O10_37
REMARK    4  A    between atoms: C5_8  and  O9_36
REMARK    5  A    between atoms: C6_10  and  O2_13
REMARK    6  A    between atoms: O2_13  and  C7_14
REMARK    7  A    between atoms: C10_18  and  O8_35
REMARK    8  A    between atoms: C12_20  and  O7_34
REMARK    9  A    between atoms: C15_24  and  C16_25
REMARK   10  A    between atoms: C19_28  and  O6_33
REMARK   11  A    between atoms: C20_29  and  O5_31
REMARK   12  A    between atoms: O5_31  and  C22_32
REMARK                            x       y       z     vdW  Elec       q    Type
REMARK                         _______ _______ _______ _____ _____    ______ ____
ROOT
ATOM     14  C   UNL     1      47.125  19.002  18.397  0.00  0.00    -0.085 A 
ATOM     15  C   UNL     1      45.807  19.521  18.481  0.00  0.00    +0.411 A 
ATOM     16  C   UNL     1      45.595  20.695  19.343  0.00  0.00    -0.262 A 
ATOM     17  C   UNL     1      44.326  21.272  19.486  0.00  0.00    +0.222 A 
ATOM     20  C   UNL     1      44.168  22.374  20.306  0.00  0.00    -0.051 A 
ATOM     21  C   UNL     1      45.261  22.904  20.984  0.00  0.00    +0.197 A 
ATOM     24  C   UNL     1      46.519  22.338  20.848  0.00  0.00    -0.025 A 
ATOM     25  C   UNL     1      46.698  21.233  20.030  0.00  0.00    +0.180 A 
ATOM     26  O   UNL     1      47.916  20.670  19.887  0.00  0.00    -0.203 OA
ATOM     27  O   UNL     1      44.885  19.014  17.863  0.00  0.00    -0.444 OA
ATOM     28  C   UNL     1      48.125  19.595  19.108  0.00  0.00    +0.202 A 
ENDROOT
BRANCH  28  29
ATOM     29  C   UNL     1      49.488  19.040  19.015  0.00  0.00    -0.033 A 
ATOM     30  C   UNL     1      50.399  19.572  18.098  0.00  0.00    +0.061 A 
ATOM     31  C   UNL     1      51.673  19.051  18.012  0.00  0.00    +0.038 A 
ATOM     32  C   UNL     1      52.053  18.000  18.834  0.00  0.00    +0.107 A 
ATOM     35  C   UNL     1      51.150  17.464  19.751  0.00  0.00    +0.100 A 
ATOM     38  C   UNL     1      49.873  17.985  19.847  0.00  0.00    -0.013 A 
BRANCH  32  33
ATOM     33  O   UNL     1      53.310  17.490  18.746  0.00  0.00    -0.483 OA
ATOM     34  H   UNL     1      53.755  17.390  19.598  0.00  0.00    +0.392 HD
ENDBRANCH  32  33
BRANCH  35  36
ATOM     36  O   UNL     1      51.527  16.435  20.555  0.00  0.00    -0.304 OA
ATOM     37  C   UNL     1      50.763  15.230  20.467  0.00  0.00    +0.241 C 
ENDBRANCH  35  36
ENDBRANCH  28  29
BRANCH  17  18
ATOM     18  O   UNL     1      43.261  20.755  18.823  0.00  0.00    -0.471 OA
ATOM     19  H   UNL     1      42.433  21.231  18.977  0.00  0.00    +0.403 HD
ENDBRANCH  17  18
BRANCH  21  22
ATOM     22  O   UNL     1      45.094  23.987  21.786  0.00  0.00    -0.486 OA
ATOM     23  H   UNL     1      45.686  24.723  21.580  0.00  0.00    +0.405 HD
ENDBRANCH  21  22
BRANCH  14  13
ATOM     13  O   UNL     1      47.388  17.919  17.617  0.00  0.00    -0.269 OA
BRANCH  13  12
ATOM      1  C   UNL     1      47.134  14.544  20.940  0.00  0.00    +0.071 C 
ATOM      2  C   UNL     1      46.547  14.987  19.598  0.00  0.00    +0.138 C 
ATOM      3  C   UNL     1      46.774  13.891  18.554  0.00  0.00    +0.172 C 
ATOM      6  C   UNL     1      46.238  14.368  17.201  0.00  0.00    +0.202 C 
ATOM      9  C   UNL     1      46.931  15.681  16.824  0.00  0.00    +0.148 C 
ATOM     12  C   UNL     1      46.697  16.709  17.935  0.00  0.00    +0.296 C 
ATOM     39  O   UNL     1      47.190  16.190  19.172  0.00  0.00    -0.381 OA
BRANCH   3   4
ATOM      4  O   UNL     1      46.084  12.704  18.950  0.00  0.00    -0.549 OA
ATOM      5  H   UNL     1      45.455  12.376  18.293  0.00  0.00    +0.380 HD
ENDBRANCH   3   4
BRANCH   6   7
ATOM      7  O   UNL     1      46.509  13.380  16.205  0.00  0.00    -0.535 OA
ATOM      8  H   UNL     1      46.120  12.514  16.394  0.00  0.00    +0.380 HD
ENDBRANCH   6   7
BRANCH   9  10
ATOM     10  O   UNL     1      48.331  15.455  16.667  0.00  0.00    -0.533 OA
ATOM     11  H   UNL     1      48.871  15.820  17.382  0.00  0.00    +0.383 HD
ENDBRANCH   9  10
ENDBRANCH  13  12
ENDBRANCH  14  13
TORSDOF 10
ENDMDL
MODEL 8
REMARK VINA RESULT:      -5.7      2.144      7.237
REMARK  Name = ZINC85948413
REMARK  12 active torsions:
REMARK  status: ('A' for Active; 'I' for Inactive)
REMARK    1  A    between atoms: C1_1  and  C2_2
REMARK    2  A    between atoms: C3_4  and  O11_38
REMARK    3  A    between atoms: C4_6  and  O10_37
REMARK    4  A    between atoms: C5_8  and  O9_36
REMARK    5  A    between atoms: C6_10  and  O2_13
REMARK    6  A    between atoms: O2_13  and  C7_14
REMARK    7  A    between atoms: C10_18  and  O8_35
REMARK    8  A    between atoms: C12_20  and  O7_34
REMARK    9  A    between atoms: C15_24  and  C16_25
REMARK   10  A    between atoms: C19_28  and  O6_33
REMARK   11  A    between atoms: C20_29  and  O5_31
REMARK   12  A    between atoms: O5_31  and  C22_32
REMARK                            x       y       z     vdW  Elec       q    Type
REMARK                         _______ _______ _______ _____ _____    ______ ____
ROOT
ATOM     14  C   UNL     1      46.925  16.627  19.969  0.00  0.00    -0.085 A 
ATOM     15  C   UNL     1      46.083  15.539  19.624  0.00  0.00    +0.411 A 
ATOM     16  C   UNL     1      46.557  14.621  18.576  0.00  0.00    -0.262 A 
ATOM     17  C   UNL     1      45.790  13.520  18.172  0.00  0.00    +0.222 A 
ATOM     20  C   UNL     1      46.271  12.681  17.184  0.00  0.00    -0.051 A 
ATOM     21  C   UNL     1      47.507  12.930  16.596  0.00  0.00    +0.197 A 
ATOM     24  C   UNL     1      48.271  14.017  16.990  0.00  0.00    -0.025 A 
ATOM     25  C   UNL     1      47.806  14.870  17.980  0.00  0.00    +0.180 A 
ATOM     26  O   UNL     1      48.539  15.932  18.375  0.00  0.00    -0.203 OA
ATOM     27  O   UNL     1      45.007  15.370  20.175  0.00  0.00    -0.444 OA
ATOM     28  C   UNL     1      48.116  16.783  19.326  0.00  0.00    +0.202 A 
ENDROOT
BRANCH  28  29
ATOM     29  C   UNL     1      48.977  17.923  19.691  0.00  0.00    -0.033 A 
ATOM     30  C   UNL     1      49.662  17.921  20.910  0.00  0.00    +0.061 A 
ATOM     31  C   UNL     1      50.466  18.987  21.250  0.00  0.00    +0.038 A 
ATOM     32  C   UNL     1      50.598  20.064  20.385  0.00  0.00    +0.107 A 
ATOM     35  C   UNL     1      49.919  20.073  19.168  0.00  0.00    +0.100 A 
ATOM     38  C   UNL     1      49.116  19.005  18.818  0.00  0.00    -0.013 A 
BRANCH  32  33
ATOM     33  O   UNL     1      51.392  21.113  20.725  0.00  0.00    -0.483 OA
ATOM     34  H   UNL     1      51.374  21.333  21.666  0.00  0.00    +0.392 HD
ENDBRANCH  32  33
BRANCH  35  36
ATOM     36  O   UNL     1      50.052  21.130  18.323  0.00  0.00    -0.304 OA
ATOM     37  C   UNL     1      51.116  21.068  17.370  0.00  0.00    +0.241 C 
ENDBRANCH  35  36
ENDBRANCH  28  29
BRANCH  17  18
ATOM     18  O   UNL     1      44.585  13.278  18.748  0.00  0.00    -0.471 OA
ATOM     19  H   UNL     1      43.832  13.414  18.155  0.00  0.00    +0.403 HD
ENDBRANCH  17  18
BRANCH  21  22
ATOM     22  O   UNL     1      47.969  12.098  15.627  0.00  0.00    -0.486 OA
ATOM     23  H   UNL     1      48.061  12.518  14.761  0.00  0.00    +0.405 HD
ENDBRANCH  21  22
BRANCH  14  13
ATOM     13  O   UNL     1      46.545  17.512  20.930  0.00  0.00    -0.269 OA
BRANCH  13  12
ATOM      1  C   UNL     1      46.693  22.243  21.249  0.00  0.00    +0.071 C 
ATOM      2  C   UNL     1      45.907  21.081  20.638  0.00  0.00    +0.138 C 
ATOM      3  C   UNL     1      44.458  21.129  21.129  0.00  0.00    +0.172 C 
ATOM      6  C   UNL     1      43.695  19.929  20.560  0.00  0.00    +0.202 C 
ATOM      9  C   UNL     1      44.406  18.640  20.980  0.00  0.00    +0.148 C 
ATOM     12  C   UNL     1      45.858  18.687  20.494  0.00  0.00    +0.296 C 
ATOM     39  O   UNL     1      46.502  19.843  21.033  0.00  0.00    -0.381 OA
BRANCH   3   4
ATOM      4  O   UNL     1      43.844  22.341  20.685  0.00  0.00    -0.549 OA
ATOM      5  H   UNL     1      43.423  22.850  21.391  0.00  0.00    +0.380 HD
ENDBRANCH   3   4
BRANCH   6   7
ATOM      7  O   UNL     1      42.360  19.928  21.070  0.00  0.00    -0.535 OA
ATOM      8  H   UNL     1      42.225  20.524  21.822  0.00  0.00    +0.380 HD
ENDBRANCH   6   7
BRANCH   9  10
ATOM     10  O   UNL     1      44.381  18.521  22.402  0.00  0.00    -0.533 OA
ATOM     11  H   UNL     1      43.679  19.033  22.828  0.00  0.00    +0.383 HD
ENDBRANCH   9  10
ENDBRANCH  13  12
ENDBRANCH  14  13
TORSDOF 10
ENDMDL
MODEL 9
REMARK VINA RESULT:      -5.7      1.918      2.582
REMARK  Name = ZINC85948413
REMARK  12 active torsions:
REMARK  status: ('A' for Active; 'I' for Inactive)
REMARK    1  A    between atoms: C1_1  and  C2_2
REMARK    2  A    between atoms: C3_4  and  O11_38
REMARK    3  A    between atoms: C4_6  and  O10_37
REMARK    4  A    between atoms: C5_8  and  O9_36
REMARK    5  A    between atoms: C6_10  and  O2_13
REMARK    6  A    between atoms: O2_13  and  C7_14
REMARK    7  A    between atoms: C10_18  and  O8_35
REMARK    8  A    between atoms: C12_20  and  O7_34
REMARK    9  A    between atoms: C15_24  and  C16_25
REMARK   10  A    between atoms: C19_28  and  O6_33
REMARK   11  A    between atoms: C20_29  and  O5_31
REMARK   12  A    between atoms: O5_31  and  C22_32
REMARK                            x       y       z     vdW  Elec       q    Type
REMARK                         _______ _______ _______ _____ _____    ______ ____
ROOT
ATOM     14  C   UNL     1      47.123  19.016  19.836  0.00  0.00    -0.085 A 
ATOM     15  C   UNL     1      46.572  20.322  19.796  0.00  0.00    +0.411 A 
ATOM     16  C   UNL     1      45.107  20.438  19.715  0.00  0.00    -0.262 A 
ATOM     17  C   UNL     1      44.478  21.689  19.670  0.00  0.00    +0.222 A 
ATOM     20  C   UNL     1      43.099  21.756  19.594  0.00  0.00    -0.051 A 
ATOM     21  C   UNL     1      42.344  20.587  19.562  0.00  0.00    +0.197 A 
ATOM     24  C   UNL     1      42.960  19.347  19.605  0.00  0.00    -0.025 A 
ATOM     25  C   UNL     1      44.341  19.259  19.682  0.00  0.00    +0.180 A 
ATOM     26  O   UNL     1      44.956  18.058  19.725  0.00  0.00    -0.203 OA
ATOM     27  O   UNL     1      47.285  21.313  19.828  0.00  0.00    -0.444 OA
ATOM     28  C   UNL     1      46.293  17.937  19.793  0.00  0.00    +0.202 A 
ENDROOT
BRANCH  28  29
ATOM     29  C   UNL     1      46.881  16.585  19.829  0.00  0.00    -0.033 A 
ATOM     30  C   UNL     1      47.284  16.030  21.047  0.00  0.00    +0.061 A 
ATOM     31  C   UNL     1      47.834  14.766  21.079  0.00  0.00    +0.038 A 
ATOM     32  C   UNL     1      47.990  14.043  19.904  0.00  0.00    +0.107 A 
ATOM     35  C   UNL     1      47.590  14.591  18.686  0.00  0.00    +0.100 A 
ATOM     38  C   UNL     1      47.032  15.855  18.647  0.00  0.00    -0.013 A 
BRANCH  32  33
ATOM     33  O   UNL     1      48.532  12.798  19.941  0.00  0.00    -0.483 OA
ATOM     34  H   UNL     1      49.355  12.742  20.446  0.00  0.00    +0.392 HD
ENDBRANCH  32  33
BRANCH  35  36
ATOM     36  O   UNL     1      47.742  13.879  17.538  0.00  0.00    -0.304 OA
ATOM     37  C   UNL     1      47.008  14.325  16.396  0.00  0.00    +0.241 C 
ENDBRANCH  35  36
ENDBRANCH  28  29
BRANCH  17  18
ATOM     18  O   UNL     1      45.216  22.827  19.703  0.00  0.00    -0.471 OA
ATOM     19  H   UNL     1      45.973  22.787  20.305  0.00  0.00    +0.403 HD
ENDBRANCH  17  18
BRANCH  21  22
ATOM     22  O   UNL     1      40.991  20.665  19.488  0.00  0.00    -0.486 OA
ATOM     23  H   UNL     1      40.610  20.185  18.740  0.00  0.00    +0.405 HD
ENDBRANCH  21  22
BRANCH  14  13
ATOM     13  O   UNL     1      48.471  18.841  19.912  0.00  0.00    -0.269 OA
BRANCH  13  12
ATOM      1  C   UNL     1      51.289  16.490  16.906  0.00  0.00    +0.071 C 
ATOM      2  C   UNL     1      50.643  17.853  17.167  0.00  0.00    +0.138 C 
ATOM      3  C   UNL     1      51.734  18.919  17.299  0.00  0.00    +0.172 C 
ATOM      6  C   UNL     1      51.082  20.267  17.621  0.00  0.00    +0.202 C 
ATOM      9  C   UNL     1      50.249  20.128  18.898  0.00  0.00    +0.148 C 
ATOM     12  C   UNL     1      49.215  19.015  18.704  0.00  0.00    +0.296 C 
ATOM     39  O   UNL     1      49.885  17.796  18.377  0.00  0.00    -0.381 OA
BRANCH   3   4
ATOM      4  O   UNL     1      52.456  19.017  16.070  0.00  0.00    -0.549 OA
ATOM      5  H   UNL     1      53.418  18.995  16.176  0.00  0.00    +0.380 HD
ENDBRANCH   3   4
BRANCH   6   7
ATOM      7  O   UNL     1      52.098  21.253  17.815  0.00  0.00    -0.535 OA
ATOM      8  H   UNL     1      52.129  21.615  18.713  0.00  0.00    +0.380 HD
ENDBRANCH   6   7
BRANCH   9  10
ATOM     10  O   UNL     1      51.105  19.800  19.993  0.00  0.00    -0.533 OA
ATOM     11  H   UNL     1      50.867  18.980  20.447  0.00  0.00    +0.383 HD
ENDBRANCH   9  10
ENDBRANCH  13  12
ENDBRANCH  14  13
TORSDOF 10
ENDMDL
