MODEL 1
REMARK VINA RESULT:      -6.0      0.000      0.000
REMARK  Name = ZINC95486317
REMARK  9 active torsions:
REMARK  status: ('A' for Active; 'I' for Inactive)
REMARK    1  A    between atoms: C1_1  and  C2_2
REMARK    2  A    between atoms: C7_8  and  C12_16
REMARK    3  A    between atoms: C8_9  and  O1_15
REMARK    4  A    between atoms: C10_11  and  C11_14
REMARK    5  A    between atoms: C17_21  and  O4_29
REMARK    6  A    between atoms: C19_23  and  O3_27
REMARK    7  A    between atoms: C21_25  and  O2_26
REMARK    8  A    between atoms: O3_27  and  C22_28
REMARK    9  A    between atoms: O4_29  and  C23_30
REMARK                            x       y       z     vdW  Elec       q    Type
REMARK                         _______ _______ _______ _____ _____    ______ ____
ROOT
ATOM      1  C   UNL     1      51.276  10.307  13.602  0.00  0.00    +0.094 C 
ATOM      2  C   UNL     1      50.392  11.456  14.091  0.00  0.00    +0.167 C 
ATOM      3  C   UNL     1      50.938  11.998  15.412  0.00  0.00    +0.132 C 
ATOM      4  C   UNL     1      49.954  12.970  16.012  0.00  0.00    -0.076 A 
ATOM      5  C   UNL     1      50.394  13.825  17.013  0.00  0.00    +0.029 A 
ATOM      6  C   UNL     1      49.530  14.729  17.593  0.00  0.00    +0.081 A 
ATOM      7  C   UNL     1      48.202  14.785  17.173  0.00  0.00    -0.022 A 
ATOM     24  C   UNL     1      47.762  13.923  16.165  0.00  0.00    +0.143 A 
ATOM     27  C   UNL     1      48.643  13.018  15.586  0.00  0.00    -0.155 A 
ATOM     28  C   UNL     1      48.129  12.114  14.497  0.00  0.00    +0.236 C 
ATOM     29  C   UNL     1      48.046  12.898  13.186  0.00  0.00    +0.093 C 
ATOM     30  N   UNL     1      49.022  10.967  14.311  0.00  0.00    -0.501 N 
ATOM     31  H   UNL     1      48.999  10.387  15.137  0.00  0.00    +0.430 HD
ATOM     32  H   UNL     1      48.723  10.429  13.512  0.00  0.00    +0.431 HD
ENDROOT
BRANCH   7   8
ATOM      8  C   UNL     1      47.265  15.749  17.791  0.00  0.00    -0.142 A 
ATOM      9  C   UNL     1      46.532  15.390  18.947  0.00  0.00    +0.059 A 
ATOM     10  C   UNL     1      46.676  14.121  19.529  0.00  0.00    -0.045 A 
ATOM     11  C   UNL     1      45.960  13.799  20.644  0.00  0.00    +0.085 A 
ATOM     12  C   UNL     1      45.081  14.712  21.219  0.00  0.00    -0.107 A 
ATOM     13  C   UNL     1      44.913  15.966  20.675  0.00  0.00    +0.180 A 
ATOM     16  C   UNL     1      45.641  16.326  19.525  0.00  0.00    -0.109 A 
ATOM     17  C   UNL     1      45.496  17.601  18.942  0.00  0.00    +0.206 A 
ATOM     20  C   UNL     1      46.220  17.929  17.817  0.00  0.00    -0.132 A 
ATOM     21  C   UNL     1      47.103  17.016  17.243  0.00  0.00    +0.190 A 
BRANCH  13  14
ATOM     14  O   UNL     1      44.052  16.849  21.245  0.00  0.00    -0.289 OA
ATOM     15  C   UNL     1      43.488  16.483  22.505  0.00  0.00    +0.247 C 
ENDBRANCH  13  14
BRANCH  17  18
ATOM     18  O   UNL     1      44.643  18.505  19.488  0.00  0.00    -0.283 OA
ATOM     19  C   UNL     1      44.396  19.698  18.742  0.00  0.00    +0.249 C 
ENDBRANCH  17  18
BRANCH  21  22
ATOM     22  O   UNL     1      47.809  17.366  16.137  0.00  0.00    -0.490 OA
ATOM     23  H   UNL     1      47.302  17.882  15.495  0.00  0.00    +0.389 HD
ENDBRANCH  21  22
ENDBRANCH   7   8
BRANCH  24  25
ATOM     25  O   UNL     1      46.469  13.971  15.749  0.00  0.00    -0.484 OA
ATOM     26  H   UNL     1      46.053  13.102  15.654  0.00  0.00    +0.392 HD
ENDBRANCH  24  25
TORSDOF 5
ENDMDL
MODEL 2
REMARK VINA RESULT:      -5.8      5.029      8.700
REMARK  Name = ZINC95486317
REMARK  9 active torsions:
REMARK  status: ('A' for Active; 'I' for Inactive)
REMARK    1  A    between atoms: C1_1  and  C2_2
REMARK    2  A    between atoms: C7_8  and  C12_16
REMARK    3  A    between atoms: C8_9  and  O1_15
REMARK    4  A    between atoms: C10_11  and  C11_14
REMARK    5  A    between atoms: C17_21  and  O4_29
REMARK    6  A    between atoms: C19_23  and  O3_27
REMARK    7  A    between atoms: C21_25  and  O2_26
REMARK    8  A    between atoms: O3_27  and  C22_28
REMARK    9  A    between atoms: O4_29  and  C23_30
REMARK                            x       y       z     vdW  Elec       q    Type
REMARK                         _______ _______ _______ _____ _____    ______ ____
ROOT
ATOM      1  C   UNL     1      40.522  18.655  21.360  0.00  0.00    +0.094 C 
ATOM      2  C   UNL     1      41.922  18.852  20.773  0.00  0.00    +0.167 C 
ATOM      3  C   UNL     1      42.970  18.340  21.761  0.00  0.00    +0.132 C 
ATOM      4  C   UNL     1      44.348  18.734  21.294  0.00  0.00    -0.076 A 
ATOM      5  C   UNL     1      45.445  18.085  21.845  0.00  0.00    +0.029 A 
ATOM      6  C   UNL     1      46.724  18.414  21.451  0.00  0.00    +0.081 A 
ATOM      7  C   UNL     1      46.920  19.407  20.493  0.00  0.00    -0.022 A 
ATOM     24  C   UNL     1      45.815  20.058  19.939  0.00  0.00    +0.143 A 
ATOM     27  C   UNL     1      44.530  19.716  20.342  0.00  0.00    -0.155 A 
ATOM     28  C   UNL     1      43.366  20.437  19.715  0.00  0.00    +0.236 C 
ATOM     29  C   UNL     1      43.103  19.856  18.324  0.00  0.00    +0.093 C 
ATOM     30  N   UNL     1      42.160  20.283  20.532  0.00  0.00    -0.501 N 
ATOM     31  H   UNL     1      42.289  20.757  21.413  0.00  0.00    +0.430 HD
ATOM     32  H   UNL     1      41.368  20.680  20.048  0.00  0.00    +0.431 HD
ENDROOT
BRANCH   7   8
ATOM      8  C   UNL     1      48.290  19.769  20.065  0.00  0.00    -0.142 A 
ATOM      9  C   UNL     1      48.901  19.091  18.983  0.00  0.00    +0.059 A 
ATOM     10  C   UNL     1      48.228  18.069  18.297  0.00  0.00    -0.045 A 
ATOM     11  C   UNL     1      48.837  17.431  17.257  0.00  0.00    +0.085 A 
ATOM     12  C   UNL     1      50.125  17.777  16.860  0.00  0.00    -0.107 A 
ATOM     13  C   UNL     1      50.817  18.775  17.510  0.00  0.00    +0.180 A 
ATOM     16  C   UNL     1      50.211  19.451  18.587  0.00  0.00    -0.109 A 
ATOM     17  C   UNL     1      50.889  20.479  19.274  0.00  0.00    +0.206 A 
ATOM     20  C   UNL     1      50.275  21.125  20.323  0.00  0.00    -0.132 A 
ATOM     21  C   UNL     1      48.983  20.780  20.718  0.00  0.00    +0.190 A 
BRANCH  13  14
ATOM     14  O   UNL     1      52.074  19.105  17.114  0.00  0.00    -0.289 OA
ATOM     15  C   UNL     1      52.227  19.588  15.778  0.00  0.00    +0.247 C 
ENDBRANCH  13  14
BRANCH  17  18
ATOM     18  O   UNL     1      52.146  20.831  18.902  0.00  0.00    -0.283 OA
ATOM     19  C   UNL     1      52.922  21.564  19.851  0.00  0.00    +0.249 C 
ENDBRANCH  17  18
BRANCH  21  22
ATOM     22  O   UNL     1      48.397  21.436  21.753  0.00  0.00    -0.490 OA
ATOM     23  H   UNL     1      48.289  20.897  22.549  0.00  0.00    +0.389 HD
ENDBRANCH  21  22
ENDBRANCH   7   8
BRANCH  24  25
ATOM     25  O   UNL     1      45.996  21.027  19.004  0.00  0.00    -0.484 OA
ATOM     26  H   UNL     1      45.858  20.728  18.095  0.00  0.00    +0.392 HD
ENDBRANCH  24  25
TORSDOF 5
ENDMDL
MODEL 3
REMARK VINA RESULT:      -5.6      4.126      8.383
REMARK  Name = ZINC95486317
REMARK  9 active torsions:
REMARK  status: ('A' for Active; 'I' for Inactive)
REMARK    1  A    between atoms: C1_1  and  C2_2
REMARK    2  A    between atoms: C7_8  and  C12_16
REMARK    3  A    between atoms: C8_9  and  O1_15
REMARK    4  A    between atoms: C10_11  and  C11_14
REMARK    5  A    between atoms: C17_21  and  O4_29
REMARK    6  A    between atoms: C19_23  and  O3_27
REMARK    7  A    between atoms: C21_25  and  O2_26
REMARK    8  A    between atoms: O3_27  and  C22_28
REMARK    9  A    between atoms: O4_29  and  C23_30
REMARK                            x       y       z     vdW  Elec       q    Type
REMARK                         _______ _______ _______ _____ _____    ______ ____
ROOT
ATOM      1  C   UNL     1      40.250  19.322  21.723  0.00  0.00    +0.094 C 
ATOM      2  C   UNL     1      41.463  19.056  20.829  0.00  0.00    +0.167 C 
ATOM      3  C   UNL     1      42.513  18.266  21.611  0.00  0.00    +0.132 C 
ATOM      4  C   UNL     1      43.794  18.196  20.818  0.00  0.00    -0.076 A 
ATOM      5  C   UNL     1      44.744  17.251  21.178  0.00  0.00    +0.029 A 
ATOM      6  C   UNL     1      45.932  17.151  20.485  0.00  0.00    +0.081 A 
ATOM      7  C   UNL     1      46.182  18.008  19.414  0.00  0.00    -0.022 A 
ATOM     24  C   UNL     1      45.224  18.958  19.053  0.00  0.00    +0.143 A 
ATOM     27  C   UNL     1      44.030  19.047  19.758  0.00  0.00    -0.155 A 
ATOM     28  C   UNL     1      43.020  20.080  19.331  0.00  0.00    +0.236 C 
ATOM     29  C   UNL     1      42.273  19.576  18.095  0.00  0.00    +0.093 C 
ATOM     30  N   UNL     1      42.053  20.334  20.403  0.00  0.00    -0.501 N 
ATOM     31  H   UNL     1      42.524  20.765  21.183  0.00  0.00    +0.430 HD
ATOM     32  H   UNL     1      41.326  20.946  20.066  0.00  0.00    +0.431 HD
ENDROOT
BRANCH   7   8
ATOM      8  C   UNL     1      47.455  17.911  18.665  0.00  0.00    -0.142 A 
ATOM      9  C   UNL     1      48.486  18.854  18.888  0.00  0.00    +0.059 A 
ATOM     10  C   UNL     1      48.328  19.893  19.818  0.00  0.00    -0.045 A 
ATOM     11  C   UNL     1      49.336  20.789  20.016  0.00  0.00    +0.085 A 
ATOM     12  C   UNL     1      50.530  20.691  19.308  0.00  0.00    -0.107 A 
ATOM     13  C   UNL     1      50.722  19.686  18.387  0.00  0.00    +0.180 A 
ATOM     16  C   UNL     1      49.697  18.746  18.162  0.00  0.00    -0.109 A 
ATOM     17  C   UNL     1      49.859  17.702  17.229  0.00  0.00    +0.206 A 
ATOM     20  C   UNL     1      48.841  16.796  17.028  0.00  0.00    -0.132 A 
ATOM     21  C   UNL     1      47.647  16.892  17.741  0.00  0.00    +0.190 A 
BRANCH  13  14
ATOM     14  O   UNL     1      51.891  19.600  17.701  0.00  0.00    -0.289 OA
ATOM     15  C   UNL     1      52.205  20.677  16.816  0.00  0.00    +0.247 C 
ENDBRANCH  13  14
BRANCH  17  18
ATOM     18  O   UNL     1      51.015  17.591  16.528  0.00  0.00    -0.283 OA
ATOM     19  C   UNL     1      51.718  16.351  16.627  0.00  0.00    +0.249 C 
ENDBRANCH  17  18
BRANCH  21  22
ATOM     22  O   UNL     1      46.661  15.982  17.528  0.00  0.00    -0.490 OA
ATOM     23  H   UNL     1      46.931  15.231  16.982  0.00  0.00    +0.389 HD
ENDBRANCH  21  22
ENDBRANCH   7   8
BRANCH  24  25
ATOM     25  O   UNL     1      45.459  19.797  18.011  0.00  0.00    -0.484 OA
ATOM     26  H   UNL     1      46.358  20.154  17.987  0.00  0.00    +0.392 HD
ENDBRANCH  24  25
TORSDOF 5
ENDMDL
MODEL 4
REMARK VINA RESULT:      -5.5      1.073      2.834
REMARK  Name = ZINC95486317
REMARK  9 active torsions:
REMARK  status: ('A' for Active; 'I' for Inactive)
REMARK    1  A    between atoms: C1_1  and  C2_2
REMARK    2  A    between atoms: C7_8  and  C12_16
REMARK    3  A    between atoms: C8_9  and  O1_15
REMARK    4  A    between atoms: C10_11  and  C11_14
REMARK    5  A    between atoms: C17_21  and  O4_29
REMARK    6  A    between atoms: C19_23  and  O3_27
REMARK    7  A    between atoms: C21_25  and  O2_26
REMARK    8  A    between atoms: O3_27  and  C22_28
REMARK    9  A    between atoms: O4_29  and  C23_30
REMARK                            x       y       z     vdW  Elec       q    Type
REMARK                         _______ _______ _______ _____ _____    ______ ____
ROOT
ATOM      1  C   UNL     1      51.247  10.714  13.491  0.00  0.00    +0.094 C 
ATOM      2  C   UNL     1      50.262  11.629  14.222  0.00  0.00    +0.167 C 
ATOM      3  C   UNL     1      50.832  12.007  15.590  0.00  0.00    +0.132 C 
ATOM      4  C   UNL     1      49.779  12.717  16.403  0.00  0.00    -0.076 A 
ATOM      5  C   UNL     1      50.180  13.441  17.517  0.00  0.00    +0.029 A 
ATOM      6  C   UNL     1      49.253  14.104  18.293  0.00  0.00    +0.081 A 
ATOM      7  C   UNL     1      47.902  14.047  17.958  0.00  0.00    -0.022 A 
ATOM     24  C   UNL     1      47.501  13.317  16.835  0.00  0.00    +0.143 A 
ATOM     27  C   UNL     1      48.444  12.655  16.060  0.00  0.00    -0.155 A 
ATOM     28  C   UNL     1      47.971  11.888  14.853  0.00  0.00    +0.236 C 
ATOM     29  C   UNL     1      47.691  12.866  13.710  0.00  0.00    +0.093 C 
ATOM     30  N   UNL     1      48.986  10.925  14.420  0.00  0.00    -0.501 N 
ATOM     31  H   UNL     1      49.098  10.215  15.128  0.00  0.00    +0.430 HD
ATOM     32  H   UNL     1      48.699  10.495  13.554  0.00  0.00    +0.431 HD
ENDROOT
BRANCH   7   8
ATOM      8  C   UNL     1      46.898  14.753  18.785  0.00  0.00    -0.142 A 
ATOM      9  C   UNL     1      46.565  16.100  18.506  0.00  0.00    +0.059 A 
ATOM     10  C   UNL     1      47.174  16.791  17.448  0.00  0.00    -0.045 A 
ATOM     11  C   UNL     1      46.836  18.088  17.198  0.00  0.00    +0.085 A 
ATOM     12  C   UNL     1      45.891  18.745  17.980  0.00  0.00    -0.107 A 
ATOM     13  C   UNL     1      45.273  18.100  19.028  0.00  0.00    +0.180 A 
ATOM     16  C   UNL     1      45.603  16.759  19.308  0.00  0.00    -0.109 A 
ATOM     17  C   UNL     1      44.989  16.066  20.371  0.00  0.00    +0.206 A 
ATOM     20  C   UNL     1      45.328  14.755  20.624  0.00  0.00    -0.132 A 
ATOM     21  C   UNL     1      46.272  14.096  19.837  0.00  0.00    +0.190 A 
BRANCH  13  14
ATOM     14  O   UNL     1      44.352  18.750  19.785  0.00  0.00    -0.289 OA
ATOM     15  C   UNL     1      43.545  19.728  19.127  0.00  0.00    +0.247 C 
ENDBRANCH  13  14
BRANCH  17  18
ATOM     18  O   UNL     1      44.065  16.690  21.146  0.00  0.00    -0.283 OA
ATOM     19  C   UNL     1      43.902  16.204  22.479  0.00  0.00    +0.249 C 
ENDBRANCH  17  18
BRANCH  21  22
ATOM     22  O   UNL     1      46.585  12.802  20.104  0.00  0.00    -0.490 OA
ATOM     23  H   UNL     1      45.962  12.162  19.732  0.00  0.00    +0.389 HD
ENDBRANCH  21  22
ENDBRANCH   7   8
BRANCH  24  25
ATOM     25  O   UNL     1      46.185  13.256  16.501  0.00  0.00    -0.484 OA
ATOM     26  H   UNL     1      45.927  12.430  16.068  0.00  0.00    +0.392 HD
ENDBRANCH  24  25
TORSDOF 5
ENDMDL
MODEL 5
REMARK VINA RESULT:      -5.5      3.201      7.438
REMARK  Name = ZINC95486317
REMARK  9 active torsions:
REMARK  status: ('A' for Active; 'I' for Inactive)
REMARK    1  A    between atoms: C1_1  and  C2_2
REMARK    2  A    between atoms: C7_8  and  C12_16
REMARK    3  A    between atoms: C8_9  and  O1_15
REMARK    4  A    between atoms: C10_11  and  C11_14
REMARK    5  A    between atoms: C17_21  and  O4_29
REMARK    6  A    between atoms: C19_23  and  O3_27
REMARK    7  A    between atoms: C21_25  and  O2_26
REMARK    8  A    between atoms: O3_27  and  C22_28
REMARK    9  A    between atoms: O4_29  and  C23_30
REMARK                            x       y       z     vdW  Elec       q    Type
REMARK                         _______ _______ _______ _____ _____    ______ ____
ROOT
ATOM      1  C   UNL     1      45.107  23.306  20.974  0.00  0.00    +0.094 C 
ATOM      2  C   UNL     1      45.289  21.889  20.426  0.00  0.00    +0.167 C 
ATOM      3  C   UNL     1      46.604  21.304  20.944  0.00  0.00    +0.132 C 
ATOM      4  C   UNL     1      46.900  20.007  20.234  0.00  0.00    -0.076 A 
ATOM      5  C   UNL     1      47.843  19.151  20.785  0.00  0.00    +0.029 A 
ATOM      6  C   UNL     1      48.149  17.956  20.171  0.00  0.00    +0.081 A 
ATOM      7  C   UNL     1      47.508  17.603  18.984  0.00  0.00    -0.022 A 
ATOM     24  C   UNL     1      46.559  18.467  18.431  0.00  0.00    +0.143 A 
ATOM     27  C   UNL     1      46.258  19.667  19.061  0.00  0.00    -0.155 A 
ATOM     28  C   UNL     1      45.222  20.565  18.436  0.00  0.00    +0.236 C 
ATOM     29  C   UNL     1      43.826  20.026  18.756  0.00  0.00    +0.093 C 
ATOM     30  N   UNL     1      45.337  21.930  18.956  0.00  0.00    -0.501 N 
ATOM     31  H   UNL     1      46.214  22.329  18.658  0.00  0.00    +0.430 HD
ATOM     32  H   UNL     1      44.574  22.492  18.609  0.00  0.00    +0.431 HD
ENDROOT
BRANCH   7   8
ATOM      8  C   UNL     1      47.831  16.324  18.314  0.00  0.00    -0.142 A 
ATOM      9  C   UNL     1      47.005  15.191  18.506  0.00  0.00    +0.059 A 
ATOM     10  C   UNL     1      45.870  15.254  19.328  0.00  0.00    -0.045 A 
ATOM     11  C   UNL     1      45.089  14.150  19.497  0.00  0.00    +0.085 A 
ATOM     12  C   UNL     1      45.399  12.950  18.863  0.00  0.00    -0.107 A 
ATOM     13  C   UNL     1      46.505  12.849  18.049  0.00  0.00    +0.180 A 
ATOM     16  C   UNL     1      47.329  13.975  17.857  0.00  0.00    -0.109 A 
ATOM     17  C   UNL     1      48.469  13.909  17.029  0.00  0.00    +0.206 A 
ATOM     20  C   UNL     1      49.258  15.025  16.857  0.00  0.00    -0.132 A 
ATOM     21  C   UNL     1      48.945  16.227  17.489  0.00  0.00    +0.190 A 
BRANCH  13  14
ATOM     14  O   UNL     1      46.798  11.673  17.436  0.00  0.00    -0.289 OA
ATOM     15  C   UNL     1      45.838  11.170  16.506  0.00  0.00    +0.247 C 
ENDBRANCH  13  14
BRANCH  17  18
ATOM     18  O   UNL     1      48.788  12.748  16.404  0.00  0.00    -0.283 OA
ATOM     19  C   UNL     1      49.192  12.838  15.036  0.00  0.00    +0.249 C 
ENDBRANCH  17  18
BRANCH  21  22
ATOM     22  O   UNL     1      49.737  17.314  17.299  0.00  0.00    -0.490 OA
ATOM     23  H   UNL     1      49.396  17.939  16.644  0.00  0.00    +0.389 HD
ENDBRANCH  21  22
ENDBRANCH   7   8
BRANCH  24  25
ATOM     25  O   UNL     1      45.929  18.131  17.275  0.00  0.00    -0.484 OA
ATOM     26  H   UNL     1      45.310  17.394  17.363  0.00  0.00    +0.392 HD
ENDBRANCH  24  25
TORSDOF 5
ENDMDL
MODEL 6
REMARK VINA RESULT:      -5.3      3.137      7.979
REMARK  Name = ZINC95486317
REMARK  9 active torsions:
REMARK  status: ('A' for Active; 'I' for Inactive)
REMARK    1  A    between atoms: C1_1  and  C2_2
REMARK    2  A    between atoms: C7_8  and  C12_16
REMARK    3  A    between atoms: C8_9  and  O1_15
REMARK    4  A    between atoms: C10_11  and  C11_14
REMARK    5  A    between atoms: C17_21  and  O4_29
REMARK    6  A    between atoms: C19_23  and  O3_27
REMARK    7  A    between atoms: C21_25  and  O2_26
REMARK    8  A    between atoms: O3_27  and  C22_28
REMARK    9  A    between atoms: O4_29  and  C23_30
REMARK                            x       y       z     vdW  Elec       q    Type
REMARK                         _______ _______ _______ _____ _____    ______ ____
ROOT
ATOM      1  C   UNL     1      44.724  23.018  21.363  0.00  0.00    +0.094 C 
ATOM      2  C   UNL     1      44.825  21.608  20.777  0.00  0.00    +0.167 C 
ATOM      3  C   UNL     1      45.886  20.811  21.537  0.00  0.00    +0.132 C 
ATOM      4  C   UNL     1      46.151  19.507  20.828  0.00  0.00    -0.076 A 
ATOM      5  C   UNL     1      46.808  18.499  21.518  0.00  0.00    +0.029 A 
ATOM      6  C   UNL     1      47.075  17.291  20.911  0.00  0.00    +0.081 A 
ATOM      7  C   UNL     1      46.683  17.080  19.589  0.00  0.00    -0.022 A 
ATOM     24  C   UNL     1      46.022  18.096  18.896  0.00  0.00    +0.143 A 
ATOM     27  C   UNL     1      45.757  19.308  19.521  0.00  0.00    -0.155 A 
ATOM     28  C   UNL     1      45.034  20.375  18.740  0.00  0.00    +0.236 C 
ATOM     29  C   UNL     1      43.540  20.047  18.701  0.00  0.00    +0.093 C 
ATOM     30  N   UNL     1      45.219  21.688  19.362  0.00  0.00    -0.501 N 
ATOM     31  H   UNL     1      46.189  21.957  19.296  0.00  0.00    +0.430 HD
ATOM     32  H   UNL     1      44.645  22.371  18.890  0.00  0.00    +0.431 HD
ENDROOT
BRANCH   7   8
ATOM      8  C   UNL     1      46.967  15.788  18.926  0.00  0.00    -0.142 A 
ATOM      9  C   UNL     1      48.184  15.597  18.229  0.00  0.00    +0.059 A 
ATOM     10  C   UNL     1      49.142  16.619  18.153  0.00  0.00    -0.045 A 
ATOM     11  C   UNL     1      50.308  16.411  17.477  0.00  0.00    +0.085 A 
ATOM     12  C   UNL     1      50.568  15.193  16.856  0.00  0.00    -0.107 A 
ATOM     13  C   UNL     1      49.651  14.166  16.909  0.00  0.00    +0.180 A 
ATOM     16  C   UNL     1      48.439  14.354  17.601  0.00  0.00    -0.109 A 
ATOM     17  C   UNL     1      47.479  13.325  17.678  0.00  0.00    +0.206 A 
ATOM     20  C   UNL     1      46.301  13.533  18.361  0.00  0.00    -0.132 A 
ATOM     21  C   UNL     1      46.043  14.752  18.986  0.00  0.00    +0.190 A 
BRANCH  13  14
ATOM     14  O   UNL     1      49.915  12.981  16.299  0.00  0.00    -0.289 OA
ATOM     15  C   UNL     1      50.457  13.038  14.979  0.00  0.00    +0.247 C 
ENDBRANCH  13  14
BRANCH  17  18
ATOM     18  O   UNL     1      47.713  12.130  17.078  0.00  0.00    -0.283 OA
ATOM     19  C   UNL     1      46.685  11.617  16.229  0.00  0.00    +0.249 C 
ENDBRANCH  17  18
BRANCH  21  22
ATOM     22  O   UNL     1      44.876  14.930  19.658  0.00  0.00    -0.490 OA
ATOM     23  H   UNL     1      44.620  14.176  20.207  0.00  0.00    +0.389 HD
ENDBRANCH  21  22
ENDBRANCH   7   8
BRANCH  24  25
ATOM     25  O   UNL     1      45.637  17.899  17.608  0.00  0.00    -0.484 OA
ATOM     26  H   UNL     1      46.134  17.208  17.149  0.00  0.00    +0.392 HD
ENDBRANCH  24  25
TORSDOF 5
ENDMDL
MODEL 7
REMARK VINA RESULT:      -5.2      3.445      7.589
REMARK  Name = ZINC95486317
REMARK  9 active torsions:
REMARK  status: ('A' for Active; 'I' for Inactive)
REMARK    1  A    between atoms: C1_1  and  C2_2
REMARK    2  A    between atoms: C7_8  and  C12_16
REMARK    3  A    between atoms: C8_9  and  O1_15
REMARK    4  A    between atoms: C10_11  and  C11_14
REMARK    5  A    between atoms: C17_21  and  O4_29
REMARK    6  A    between atoms: C19_23  and  O3_27
REMARK    7  A    between atoms: C21_25  and  O2_26
REMARK    8  A    between atoms: O3_27  and  C22_28
REMARK    9  A    between atoms: O4_29  and  C23_30
REMARK                            x       y       z     vdW  Elec       q    Type
REMARK                         _______ _______ _______ _____ _____    ______ ____
ROOT
ATOM      1  C   UNL     1      44.704  23.028  21.407  0.00  0.00    +0.094 C 
ATOM      2  C   UNL     1      45.045  21.563  21.125  0.00  0.00    +0.167 C 
ATOM      3  C   UNL     1      46.215  21.488  20.144  0.00  0.00    +0.132 C 
ATOM      4  C   UNL     1      46.409  20.063  19.688  0.00  0.00    -0.076 A 
ATOM      5  C   UNL     1      47.608  19.720  19.080  0.00  0.00    +0.029 A 
ATOM      6  C   UNL     1      47.829  18.431  18.644  0.00  0.00    +0.081 A 
ATOM      7  C   UNL     1      46.840  17.464  18.813  0.00  0.00    -0.022 A 
ATOM     24  C   UNL     1      45.633  17.812  19.425  0.00  0.00    +0.143 A 
ATOM     27  C   UNL     1      45.423  19.114  19.863  0.00  0.00    -0.155 A 
ATOM     28  C   UNL     1      44.112  19.445  20.526  0.00  0.00    +0.236 C 
ATOM     29  C   UNL     1      44.136  18.944  21.971  0.00  0.00    +0.093 C 
ATOM     30  N   UNL     1      43.882  20.892  20.525  0.00  0.00    -0.501 N 
ATOM     31  H   UNL     1      43.759  21.211  19.576  0.00  0.00    +0.430 HD
ATOM     32  H   UNL     1      43.055  21.104  21.063  0.00  0.00    +0.431 HD
ENDROOT
BRANCH   7   8
ATOM      8  C   UNL     1      47.066  16.078  18.346  0.00  0.00    -0.142 A 
ATOM      9  C   UNL     1      47.529  15.089  19.247  0.00  0.00    +0.059 A 
ATOM     10  C   UNL     1      47.781  15.398  20.592  0.00  0.00    -0.045 A 
ATOM     11  C   UNL     1      48.226  14.428  21.441  0.00  0.00    +0.085 A 
ATOM     12  C   UNL     1      48.436  13.126  20.995  0.00  0.00    -0.107 A 
ATOM     13  C   UNL     1      48.199  12.786  19.682  0.00  0.00    +0.180 A 
ATOM     16  C   UNL     1      47.739  13.768  18.783  0.00  0.00    -0.109 A 
ATOM     17  C   UNL     1      47.485  13.456  17.432  0.00  0.00    +0.206 A 
ATOM     20  C   UNL     1      47.035  14.434  16.573  0.00  0.00    -0.132 A 
ATOM     21  C   UNL     1      46.821  15.736  17.022  0.00  0.00    +0.190 A 
BRANCH  13  14
ATOM     14  O   UNL     1      48.407  11.513  19.256  0.00  0.00    -0.289 OA
ATOM     15  C   UNL     1      49.256  10.692  20.060  0.00  0.00    +0.247 C 
ENDBRANCH  13  14
BRANCH  17  18
ATOM     18  O   UNL     1      47.684  12.193  16.978  0.00  0.00    -0.283 OA
ATOM     19  C   UNL     1      46.622  11.597  16.230  0.00  0.00    +0.249 C 
ENDBRANCH  17  18
BRANCH  21  22
ATOM     22  O   UNL     1      46.372  16.682  16.156  0.00  0.00    -0.490 OA
ATOM     23  H   UNL     1      46.828  16.681  15.303  0.00  0.00    +0.389 HD
ENDBRANCH  21  22
ENDBRANCH   7   8
BRANCH  24  25
ATOM     25  O   UNL     1      44.664  16.876  19.594  0.00  0.00    -0.484 OA
ATOM     26  H   UNL     1      43.957  16.917  18.935  0.00  0.00    +0.392 HD
ENDBRANCH  24  25
TORSDOF 5
ENDMDL
MODEL 8
REMARK VINA RESULT:      -5.0      3.895      8.674
REMARK  Name = ZINC95486317
REMARK  9 active torsions:
REMARK  status: ('A' for Active; 'I' for Inactive)
REMARK    1  A    between atoms: C1_1  and  C2_2
REMARK    2  A    between atoms: C7_8  and  C12_16
REMARK    3  A    between atoms: C8_9  and  O1_15
REMARK    4  A    between atoms: C10_11  and  C11_14
REMARK    5  A    between atoms: C17_21  and  O4_29
REMARK    6  A    between atoms: C19_23  and  O3_27
REMARK    7  A    between atoms: C21_25  and  O2_26
REMARK    8  A    between atoms: O3_27  and  C22_28
REMARK    9  A    between atoms: O4_29  and  C23_30
REMARK                            x       y       z     vdW  Elec       q    Type
REMARK                         _______ _______ _______ _____ _____    ______ ____
ROOT
ATOM      1  C   UNL     1      45.877  25.241  21.391  0.00  0.00    +0.094 C 
ATOM      2  C   UNL     1      46.234  23.785  21.085  0.00  0.00    +0.167 C 
ATOM      3  C   UNL     1      45.246  23.217  20.066  0.00  0.00    +0.132 C 
ATOM      4  C   UNL     1      45.450  21.729  19.931  0.00  0.00    -0.076 A 
ATOM      5  C   UNL     1      44.908  21.084  18.828  0.00  0.00    +0.029 A 
ATOM      6  C   UNL     1      45.065  19.725  18.663  0.00  0.00    +0.081 A 
ATOM      7  C   UNL     1      45.775  18.990  19.612  0.00  0.00    -0.022 A 
ATOM     24  C   UNL     1      46.320  19.642  20.721  0.00  0.00    +0.143 A 
ATOM     27  C   UNL     1      46.156  21.013  20.875  0.00  0.00    -0.155 A 
ATOM     28  C   UNL     1      46.768  21.678  22.080  0.00  0.00    +0.236 C 
ATOM     29  C   UNL     1      48.268  21.865  21.847  0.00  0.00    +0.093 C 
ATOM     30  N   UNL     1      46.153  22.987  22.317  0.00  0.00    -0.501 N 
ATOM     31  H   UNL     1      45.187  22.861  22.576  0.00  0.00    +0.430 HD
ATOM     32  H   UNL     1      46.643  23.462  23.061  0.00  0.00    +0.431 HD
ENDROOT
BRANCH   7   8
ATOM      8  C   UNL     1      45.949  17.530  19.446  0.00  0.00    -0.142 A 
ATOM      9  C   UNL     1      47.029  17.023  18.685  0.00  0.00    +0.059 A 
ATOM     10  C   UNL     1      47.953  17.886  18.077  0.00  0.00    -0.045 A 
ATOM     11  C   UNL     1      48.987  17.373  17.350  0.00  0.00    +0.085 A 
ATOM     12  C   UNL     1      49.144  15.999  17.199  0.00  0.00    -0.107 A 
ATOM     13  C   UNL     1      48.257  15.121  17.781  0.00  0.00    +0.180 A 
ATOM     16  C   UNL     1      47.180  15.623  18.538  0.00  0.00    -0.109 A 
ATOM     17  C   UNL     1      46.253  14.754  19.150  0.00  0.00    +0.206 A 
ATOM     20  C   UNL     1      45.210  15.270  19.885  0.00  0.00    -0.132 A 
ATOM     21  C   UNL     1      45.055  16.647  20.040  0.00  0.00    +0.190 A 
BRANCH  13  14
ATOM     14  O   UNL     1      48.419  13.781  17.627  0.00  0.00    -0.289 OA
ATOM     15  C   UNL     1      48.710  13.311  16.310  0.00  0.00    +0.247 C 
ENDBRANCH  13  14
BRANCH  17  18
ATOM     18  O   UNL     1      46.389  13.411  19.013  0.00  0.00    -0.283 OA
ATOM     19  C   UNL     1      45.354  12.722  18.310  0.00  0.00    +0.249 C 
ENDBRANCH  17  18
BRANCH  21  22
ATOM     22  O   UNL     1      44.020  17.130  20.774  0.00  0.00    -0.490 OA
ATOM     23  H   UNL     1      44.211  17.968  21.219  0.00  0.00    +0.389 HD
ENDBRANCH  21  22
ENDBRANCH   7   8
BRANCH  24  25
ATOM     25  O   UNL     1      47.013  18.934  21.651  0.00  0.00    -0.484 OA
ATOM     26  H   UNL     1      47.769  18.448  21.293  0.00  0.00    +0.392 HD
ENDBRANCH  24  25
TORSDOF 5
ENDMDL
MODEL 9
REMARK VINA RESULT:      -5.0      3.530      7.899
REMARK  Name = ZINC95486317
REMARK  9 active torsions:
REMARK  status: ('A' for Active; 'I' for Inactive)
REMARK    1  A    between atoms: C1_1  and  C2_2
REMARK    2  A    between atoms: C7_8  and  C12_16
REMARK    3  A    between atoms: C8_9  and  O1_15
REMARK    4  A    between atoms: C10_11  and  C11_14
REMARK    5  A    between atoms: C17_21  and  O4_29
REMARK    6  A    between atoms: C19_23  and  O3_27
REMARK    7  A    between atoms: C21_25  and  O2_26
REMARK    8  A    between atoms: O3_27  and  C22_28
REMARK    9  A    between atoms: O4_29  and  C23_30
REMARK                            x       y       z     vdW  Elec       q    Type
REMARK                         _______ _______ _______ _____ _____    ______ ____
ROOT
ATOM      1  C   UNL     1      43.254  22.967  19.455  0.00  0.00    +0.094 C 
ATOM      2  C   UNL     1      43.801  21.588  19.830  0.00  0.00    +0.167 C 
ATOM      3  C   UNL     1      45.203  21.415  19.246  0.00  0.00    +0.132 C 
ATOM      4  C   UNL     1      45.655  19.987  19.415  0.00  0.00    -0.076 A 
ATOM      5  C   UNL     1      47.005  19.698  19.274  0.00  0.00    +0.029 A 
ATOM      6  C   UNL     1      47.466  18.407  19.417  0.00  0.00    +0.081 A 
ATOM      7  C   UNL     1      46.568  17.380  19.705  0.00  0.00    -0.022 A 
ATOM     24  C   UNL     1      45.209  17.673  19.847  0.00  0.00    +0.143 A 
ATOM     27  C   UNL     1      44.758  18.979  19.703  0.00  0.00    -0.155 A 
ATOM     28  C   UNL     1      43.287  19.253  19.873  0.00  0.00    +0.236 C 
ATOM     29  C   UNL     1      42.947  19.281  21.365  0.00  0.00    +0.093 C 
ATOM     30  N   UNL     1      42.927  20.542  19.276  0.00  0.00    -0.501 N 
ATOM     31  H   UNL     1      43.049  20.494  18.276  0.00  0.00    +0.430 HD
ATOM     32  H   UNL     1      41.965  20.758  19.490  0.00  0.00    +0.431 HD
ENDROOT
BRANCH   7   8
ATOM      8  C   UNL     1      47.050  15.990  19.858  0.00  0.00    -0.142 A 
ATOM      9  C   UNL     1      47.133  15.136  18.733  0.00  0.00    +0.059 A 
ATOM     10  C   UNL     1      46.764  15.585  17.456  0.00  0.00    -0.045 A 
ATOM     11  C   UNL     1      46.854  14.745  16.386  0.00  0.00    +0.085 A 
ATOM     12  C   UNL     1      47.309  13.438  16.538  0.00  0.00    -0.107 A 
ATOM     13  C   UNL     1      47.680  12.962  17.776  0.00  0.00    +0.180 A 
ATOM     16  C   UNL     1      47.598  13.809  18.898  0.00  0.00    -0.109 A 
ATOM     17  C   UNL     1      47.971  13.356  20.180  0.00  0.00    +0.206 A 
ATOM     20  C   UNL     1      47.882  14.205  21.261  0.00  0.00    -0.132 A 
ATOM     21  C   UNL     1      47.430  15.514  21.108  0.00  0.00    +0.190 A 
BRANCH  13  14
ATOM     14  O   UNL     1      48.123  11.685  17.913  0.00  0.00    -0.289 OA
ATOM     15  C   UNL     1      47.320  10.655  17.335  0.00  0.00    +0.247 C 
ENDBRANCH  13  14
BRANCH  17  18
ATOM     18  O   UNL     1      48.417  12.086  20.349  0.00  0.00    -0.283 OA
ATOM     19  C   UNL     1      48.754  11.687  21.679  0.00  0.00    +0.249 C 
ENDBRANCH  17  18
BRANCH  21  22
ATOM     22  O   UNL     1      47.356  16.332  22.189  0.00  0.00    -0.490 OA
ATOM     23  H   UNL     1      46.735  16.032  22.867  0.00  0.00    +0.389 HD
ENDBRANCH  21  22
ENDBRANCH   7   8
BRANCH  24  25
ATOM     25  O   UNL     1      44.327  16.679  20.128  0.00  0.00    -0.484 OA
ATOM     26  H   UNL     1      44.669  15.789  19.963  0.00  0.00    +0.392 HD
ENDBRANCH  24  25
TORSDOF 5
ENDMDL
