MODEL 1
REMARK VINA RESULT:      -6.2      0.000      0.000
REMARK  Name = ZINC95486319
REMARK  8 active torsions:
REMARK  status: ('A' for Active; 'I' for Inactive)
REMARK    1  A    between atoms: C1_1  and  C2_2
REMARK    2  A    between atoms: C7_8  and  C12_16
REMARK    3  A    between atoms: C8_9  and  O1_15
REMARK    4  A    between atoms: C10_11  and  C11_14
REMARK    5  A    between atoms: C17_22  and  O3_31
REMARK    6  A    between atoms: C19_24  and  C22_30
REMARK    7  A    between atoms: C21_27  and  O2_29
REMARK    8  A    between atoms: O3_31  and  C23_32
REMARK                            x       y       z     vdW  Elec       q    Type
REMARK                         _______ _______ _______ _____ _____    ______ ____
ROOT
ATOM      1  C   UNL     1      41.760  20.766  19.130  0.00  0.00    +0.093 C 
ATOM      2  C   UNL     1      43.263  21.013  19.276  0.00  0.00    +0.167 C 
ATOM      3  C   UNL     1      44.038  19.817  18.722  0.00  0.00    +0.129 C 
ATOM      4  C   UNL     1      45.499  19.950  19.069  0.00  0.00    -0.076 A 
ATOM      5  C   UNL     1      46.418  19.174  18.381  0.00  0.00    +0.015 A 
ATOM      6  C   UNL     1      47.766  19.265  18.670  0.00  0.00    +0.117 A 
ATOM      7  C   UNL     1      48.202  20.134  19.652  0.00  0.00    -0.079 A 
ATOM     23  C   UNL     1      47.285  20.912  20.339  0.00  0.00    +0.134 A 
ATOM     26  C   UNL     1      45.928  20.821  20.046  0.00  0.00    -0.161 A 
ATOM     27  C   UNL     1      44.967  21.692  20.811  0.00  0.00    +0.236 C 
ATOM     28  C   UNL     1      45.012  23.113  20.246  0.00  0.00    +0.092 C 
ATOM     29  N   UNL     1      43.600  21.177  20.699  0.00  0.00    -0.501 N 
ATOM     30  H   UNL     1      43.539  20.284  21.165  0.00  0.00    +0.429 HD
ATOM     31  H   UNL     1      42.956  21.826  21.127  0.00  0.00    +0.431 HD
ENDROOT
BRANCH   7   8
ATOM      8  C   UNL     1      49.670  20.234  19.972  0.00  0.00    +0.112 C 
ATOM      9  C   UNL     1      50.283  18.858  19.933  0.00  0.00    -0.034 A 
ATOM     10  C   UNL     1      49.562  17.814  20.498  0.00  0.00    -0.037 A 
ATOM     11  C   UNL     1      50.068  16.530  20.501  0.00  0.00    +0.041 A 
ATOM     12  C   UNL     1      51.304  16.278  19.936  0.00  0.00    -0.078 A 
ATOM     13  C   UNL     1      52.025  17.315  19.370  0.00  0.00    +0.132 A 
ATOM     16  C   UNL     1      51.511  18.611  19.364  0.00  0.00    -0.086 A 
ATOM     17  C   UNL     1      52.339  19.691  18.719  0.00  0.00    +0.045 C 
ATOM     18  C   UNL     1      52.212  19.582  17.197  0.00  0.00    +0.036 C 
ATOM     19  C   UNL     1      51.863  21.073  19.165  0.00  0.00    +0.003 C 
ATOM     20  C   UNL     1      50.347  21.152  18.956  0.00  0.00    +0.176 C 
BRANCH  13  14
ATOM     14  O   UNL     1      53.241  17.068  18.815  0.00  0.00    -0.312 OA
ATOM     15  C   UNL     1      54.096  16.155  19.506  0.00  0.00    +0.242 C 
ENDBRANCH  13  14
BRANCH  20  21
ATOM     21  O   UNL     1      50.021  20.725  17.631  0.00  0.00    -0.554 OA
ATOM     22  H   UNL     1      49.181  20.250  17.566  0.00  0.00    +0.382 HD
ENDBRANCH  20  21
ENDBRANCH   7   8
BRANCH  23  24
ATOM     24  O   UNL     1      47.714  21.767  21.306  0.00  0.00    -0.491 OA
ATOM     25  H   UNL     1      48.673  21.890  21.324  0.00  0.00    +0.396 HD
ENDBRANCH  23  24
TORSDOF 4
ENDMDL
MODEL 2
REMARK VINA RESULT:      -6.1      2.086      3.555
REMARK  Name = ZINC95486319
REMARK  8 active torsions:
REMARK  status: ('A' for Active; 'I' for Inactive)
REMARK    1  A    between atoms: C1_1  and  C2_2
REMARK    2  A    between atoms: C7_8  and  C12_16
REMARK    3  A    between atoms: C8_9  and  O1_15
REMARK    4  A    between atoms: C10_11  and  C11_14
REMARK    5  A    between atoms: C17_22  and  O3_31
REMARK    6  A    between atoms: C19_24  and  C22_30
REMARK    7  A    between atoms: C21_27  and  O2_29
REMARK    8  A    between atoms: O3_31  and  C23_32
REMARK                            x       y       z     vdW  Elec       q    Type
REMARK                         _______ _______ _______ _____ _____    ______ ____
ROOT
ATOM      1  C   UNL     1      39.464  21.526  18.755  0.00  0.00    +0.093 C 
ATOM      2  C   UNL     1      40.732  20.938  19.378  0.00  0.00    +0.167 C 
ATOM      3  C   UNL     1      41.961  21.648  18.809  0.00  0.00    +0.129 C 
ATOM      4  C   UNL     1      43.212  20.925  19.240  0.00  0.00    -0.076 A 
ATOM      5  C   UNL     1      44.429  21.581  19.131  0.00  0.00    +0.015 A 
ATOM      6  C   UNL     1      45.598  20.953  19.512  0.00  0.00    +0.117 A 
ATOM      7  C   UNL     1      45.558  19.663  20.005  0.00  0.00    -0.079 A 
ATOM     23  C   UNL     1      44.343  19.006  20.117  0.00  0.00    +0.134 A 
ATOM     26  C   UNL     1      43.165  19.640  19.734  0.00  0.00    -0.161 A 
ATOM     27  C   UNL     1      41.865  18.894  19.880  0.00  0.00    +0.236 C 
ATOM     28  C   UNL     1      41.427  18.925  21.346  0.00  0.00    +0.092 C 
ATOM     29  N   UNL     1      40.821  19.505  19.055  0.00  0.00    -0.501 N 
ATOM     30  H   UNL     1      41.055  19.393  18.081  0.00  0.00    +0.429 HD
ATOM     31  H   UNL     1      39.934  19.061  19.244  0.00  0.00    +0.431 HD
ENDROOT
BRANCH   7   8
ATOM      8  C   UNL     1      46.831  18.973  20.421  0.00  0.00    +0.112 C 
ATOM      9  C   UNL     1      47.530  18.441  19.197  0.00  0.00    -0.034 A 
ATOM     10  C   UNL     1      46.750  17.837  18.219  0.00  0.00    -0.037 A 
ATOM     11  C   UNL     1      47.328  17.324  17.076  0.00  0.00    +0.041 A 
ATOM     12  C   UNL     1      48.696  17.410  16.899  0.00  0.00    -0.078 A 
ATOM     13  C   UNL     1      49.477  18.013  17.870  0.00  0.00    +0.132 A 
ATOM     16  C   UNL     1      48.891  18.535  19.023  0.00  0.00    -0.086 A 
ATOM     17  C   UNL     1      49.796  19.192  20.033  0.00  0.00    +0.045 C 
ATOM     18  C   UNL     1      50.176  20.588  19.535  0.00  0.00    +0.036 C 
ATOM     19  C   UNL     1      49.093  19.314  21.384  0.00  0.00    +0.003 C 
ATOM     20  C   UNL     1      47.725  19.967  21.160  0.00  0.00    +0.176 C 
BRANCH  13  14
ATOM     14  O   UNL     1      50.822  18.098  17.698  0.00  0.00    -0.312 OA
ATOM     15  C   UNL     1      51.287  18.527  16.417  0.00  0.00    +0.242 C 
ENDBRANCH  13  14
BRANCH  20  21
ATOM     21  O   UNL     1      47.880  21.152  20.374  0.00  0.00    -0.554 OA
ATOM     22  H   UNL     1      47.795  21.006  19.422  0.00  0.00    +0.382 HD
ENDBRANCH  20  21
ENDBRANCH   7   8
BRANCH  23  24
ATOM     24  O   UNL     1      44.302  17.736  20.602  0.00  0.00    -0.491 OA
ATOM     25  H   UNL     1      43.990  17.675  21.515  0.00  0.00    +0.396 HD
ENDBRANCH  23  24
TORSDOF 4
ENDMDL
MODEL 3
REMARK VINA RESULT:      -6.0      3.731      7.077
REMARK  Name = ZINC95486319
REMARK  8 active torsions:
REMARK  status: ('A' for Active; 'I' for Inactive)
REMARK    1  A    between atoms: C1_1  and  C2_2
REMARK    2  A    between atoms: C7_8  and  C12_16
REMARK    3  A    between atoms: C8_9  and  O1_15
REMARK    4  A    between atoms: C10_11  and  C11_14
REMARK    5  A    between atoms: C17_22  and  O3_31
REMARK    6  A    between atoms: C19_24  and  C22_30
REMARK    7  A    between atoms: C21_27  and  O2_29
REMARK    8  A    between atoms: O3_31  and  C23_32
REMARK                            x       y       z     vdW  Elec       q    Type
REMARK                         _______ _______ _______ _____ _____    ______ ____
ROOT
ATOM      1  C   UNL     1      46.162  11.185  17.143  0.00  0.00    +0.093 C 
ATOM      2  C   UNL     1      46.693  12.604  17.355  0.00  0.00    +0.167 C 
ATOM      3  C   UNL     1      45.742  13.377  18.270  0.00  0.00    +0.129 C 
ATOM      4  C   UNL     1      46.132  14.833  18.299  0.00  0.00    -0.076 A 
ATOM      5  C   UNL     1      45.633  15.635  19.313  0.00  0.00    +0.015 A 
ATOM      6  C   UNL     1      45.965  16.975  19.373  0.00  0.00    +0.117 A 
ATOM      7  C   UNL     1      46.798  17.521  18.416  0.00  0.00    -0.079 A 
ATOM     23  C   UNL     1      47.300  16.721  17.402  0.00  0.00    +0.134 A 
ATOM     26  C   UNL     1      46.967  15.371  17.344  0.00  0.00    -0.161 A 
ATOM     27  C   UNL     1      47.541  14.536  16.230  0.00  0.00    +0.236 C 
ATOM     28  C   UNL     1      48.992  14.183  16.560  0.00  0.00    +0.092 C 
ATOM     29  N   UNL     1      46.773  13.300  16.061  0.00  0.00    -0.501 N 
ATOM     30  H   UNL     1      45.843  13.524  15.740  0.00  0.00    +0.429 HD
ATOM     31  H   UNL     1      47.230  12.705  15.386  0.00  0.00    +0.431 HD
ENDROOT
BRANCH   7   8
ATOM      8  C   UNL     1      47.161  18.982  18.477  0.00  0.00    +0.112 C 
ATOM      9  C   UNL     1      45.974  19.769  18.968  0.00  0.00    -0.034 A 
ATOM     10  C   UNL     1      44.722  19.427  18.471  0.00  0.00    -0.037 A 
ATOM     11  C   UNL     1      43.594  20.111  18.875  0.00  0.00    +0.041 A 
ATOM     12  C   UNL     1      43.707  21.147  19.783  0.00  0.00    -0.078 A 
ATOM     13  C   UNL     1      44.952  21.490  20.283  0.00  0.00    +0.132 A 
ATOM     16  C   UNL     1      46.091  20.795  19.876  0.00  0.00    -0.086 A 
ATOM     17  C   UNL     1      47.412  21.208  20.469  0.00  0.00    +0.045 C 
ATOM     18  C   UNL     1      47.522  20.653  21.892  0.00  0.00    +0.036 C 
ATOM     19  C   UNL     1      48.570  20.670  19.629  0.00  0.00    +0.003 C 
ATOM     20  C   UNL     1      48.352  19.168  19.414  0.00  0.00    +0.176 C 
BRANCH  13  14
ATOM     14  O   UNL     1      45.065  22.508  21.175  0.00  0.00    -0.312 OA
ATOM     15  C   UNL     1      45.156  23.831  20.642  0.00  0.00    +0.242 C 
ENDBRANCH  13  14
BRANCH  20  21
ATOM     21  O   UNL     1      48.082  18.535  20.667  0.00  0.00    -0.554 OA
ATOM     22  H   UNL     1      48.781  18.651  21.325  0.00  0.00    +0.382 HD
ENDBRANCH  20  21
ENDBRANCH   7   8
BRANCH  23  24
ATOM     24  O   UNL     1      48.120  17.258  16.460  0.00  0.00    -0.491 OA
ATOM     25  H   UNL     1      48.832  16.669  16.177  0.00  0.00    +0.396 HD
ENDBRANCH  23  24
TORSDOF 4
ENDMDL
MODEL 4
REMARK VINA RESULT:      -5.7      5.656      8.972
REMARK  Name = ZINC95486319
REMARK  8 active torsions:
REMARK  status: ('A' for Active; 'I' for Inactive)
REMARK    1  A    between atoms: C1_1  and  C2_2
REMARK    2  A    between atoms: C7_8  and  C12_16
REMARK    3  A    between atoms: C8_9  and  O1_15
REMARK    4  A    between atoms: C10_11  and  C11_14
REMARK    5  A    between atoms: C17_22  and  O3_31
REMARK    6  A    between atoms: C19_24  and  C22_30
REMARK    7  A    between atoms: C21_27  and  O2_29
REMARK    8  A    between atoms: O3_31  and  C23_32
REMARK                            x       y       z     vdW  Elec       q    Type
REMARK                         _______ _______ _______ _____ _____    ______ ____
ROOT
ATOM      1  C   UNL     1      52.854  10.340  15.096  0.00  0.00    +0.093 C 
ATOM      2  C   UNL     1      51.778  11.427  15.135  0.00  0.00    +0.167 C 
ATOM      3  C   UNL     1      51.619  11.943  16.565  0.00  0.00    +0.129 C 
ATOM      4  C   UNL     1      50.412  12.841  16.653  0.00  0.00    -0.076 A 
ATOM      5  C   UNL     1      50.284  13.678  17.751  0.00  0.00    +0.015 A 
ATOM      6  C   UNL     1      49.192  14.515  17.870  0.00  0.00    +0.117 A 
ATOM      7  C   UNL     1      48.218  14.518  16.890  0.00  0.00    -0.079 A 
ATOM     23  C   UNL     1      48.343  13.685  15.791  0.00  0.00    +0.134 A 
ATOM     26  C   UNL     1      49.446  12.843  15.671  0.00  0.00    -0.161 A 
ATOM     27  C   UNL     1      49.548  11.960  14.456  0.00  0.00    +0.236 C 
ATOM     28  C   UNL     1      50.030  12.791  13.266  0.00  0.00    +0.092 C 
ATOM     29  N   UNL     1      50.493  10.865  14.689  0.00  0.00    -0.501 N 
ATOM     30  H   UNL     1      50.127  10.253  15.403  0.00  0.00    +0.429 HD
ATOM     31  H   UNL     1      50.630  10.346  13.835  0.00  0.00    +0.431 HD
ENDROOT
BRANCH   7   8
ATOM      8  C   UNL     1      47.023  15.428  17.017  0.00  0.00    +0.112 C 
ATOM      9  C   UNL     1      46.314  15.138  18.314  0.00  0.00    -0.034 A 
ATOM     10  C   UNL     1      46.163  13.808  18.685  0.00  0.00    -0.037 A 
ATOM     11  C   UNL     1      45.518  13.473  19.858  0.00  0.00    +0.041 A 
ATOM     12  C   UNL     1      45.016  14.469  20.673  0.00  0.00    -0.078 A 
ATOM     13  C   UNL     1      45.165  15.796  20.309  0.00  0.00    +0.132 A 
ATOM     16  C   UNL     1      45.821  16.133  19.126  0.00  0.00    -0.086 A 
ATOM     17  C   UNL     1      45.963  17.596  18.795  0.00  0.00    +0.045 C 
ATOM     18  C   UNL     1      47.085  18.198  19.645  0.00  0.00    +0.036 C 
ATOM     19  C   UNL     1      46.297  17.782  17.316  0.00  0.00    +0.003 C 
ATOM     20  C   UNL     1      47.489  16.881  16.973  0.00  0.00    +0.176 C 
BRANCH  13  14
ATOM     14  O   UNL     1      44.671  16.776  21.110  0.00  0.00    -0.312 OA
ATOM     15  C   UNL     1      43.848  16.367  22.204  0.00  0.00    +0.242 C 
ENDBRANCH  13  14
BRANCH  20  21
ATOM     21  O   UNL     1      48.534  17.081  17.928  0.00  0.00    -0.554 OA
ATOM     22  H   UNL     1      49.423  17.064  17.547  0.00  0.00    +0.382 HD
ENDBRANCH  20  21
ENDBRANCH   7   8
BRANCH  23  24
ATOM     24  O   UNL     1      47.385  13.688  14.826  0.00  0.00    -0.491 OA
ATOM     25  H   UNL     1      47.165  14.569  14.494  0.00  0.00    +0.396 HD
ENDBRANCH  23  24
TORSDOF 4
ENDMDL
MODEL 5
REMARK VINA RESULT:      -5.7      6.260      9.479
REMARK  Name = ZINC95486319
REMARK  8 active torsions:
REMARK  status: ('A' for Active; 'I' for Inactive)
REMARK    1  A    between atoms: C1_1  and  C2_2
REMARK    2  A    between atoms: C7_8  and  C12_16
REMARK    3  A    between atoms: C8_9  and  O1_15
REMARK    4  A    between atoms: C10_11  and  C11_14
REMARK    5  A    between atoms: C17_22  and  O3_31
REMARK    6  A    between atoms: C19_24  and  C22_30
REMARK    7  A    between atoms: C21_27  and  O2_29
REMARK    8  A    between atoms: O3_31  and  C23_32
REMARK                            x       y       z     vdW  Elec       q    Type
REMARK                         _______ _______ _______ _____ _____    ______ ____
ROOT
ATOM      1  C   UNL     1      51.315  12.288  10.691  0.00  0.00    +0.093 C 
ATOM      2  C   UNL     1      51.029  12.359  12.192  0.00  0.00    +0.167 C 
ATOM      3  C   UNL     1      49.558  12.708  12.421  0.00  0.00    +0.129 C 
ATOM      4  C   UNL     1      49.324  13.004  13.880  0.00  0.00    -0.076 A 
ATOM      5  C   UNL     1      48.023  13.002  14.359  0.00  0.00    +0.015 A 
ATOM      6  C   UNL     1      47.767  13.270  15.689  0.00  0.00    +0.117 A 
ATOM      7  C   UNL     1      48.811  13.545  16.549  0.00  0.00    -0.079 A 
ATOM     23  C   UNL     1      50.113  13.546  16.075  0.00  0.00    +0.134 A 
ATOM     26  C   UNL     1      50.371  13.273  14.734  0.00  0.00    -0.161 A 
ATOM     27  C   UNL     1      51.800  13.276  14.262  0.00  0.00    +0.236 C 
ATOM     28  C   UNL     1      52.472  11.966  14.677  0.00  0.00    +0.092 C 
ATOM     29  N   UNL     1      51.864  13.406  12.804  0.00  0.00    -0.501 N 
ATOM     30  H   UNL     1      51.518  14.314  12.533  0.00  0.00    +0.429 HD
ATOM     31  H   UNL     1      52.819  13.301  12.494  0.00  0.00    +0.431 HD
ENDROOT
BRANCH   7   8
ATOM      8  C   UNL     1      48.536  13.840  18.001  0.00  0.00    +0.112 C 
ATOM      9  C   UNL     1      47.651  15.056  18.101  0.00  0.00    -0.034 A 
ATOM     10  C   UNL     1      47.924  16.125  17.258  0.00  0.00    -0.037 A 
ATOM     11  C   UNL     1      47.156  17.270  17.302  0.00  0.00    +0.041 A 
ATOM     12  C   UNL     1      46.103  17.357  18.193  0.00  0.00    -0.078 A 
ATOM     13  C   UNL     1      45.825  16.293  19.034  0.00  0.00    +0.132 A 
ATOM     16  C   UNL     1      46.600  15.135  18.985  0.00  0.00    -0.086 A 
ATOM     17  C   UNL     1      46.236  14.008  19.916  0.00  0.00    +0.045 C 
ATOM     18  C   UNL     1      45.013  13.272  19.362  0.00  0.00    +0.036 C 
ATOM     19  C   UNL     1      47.397  13.024  20.050  0.00  0.00    +0.003 C 
ATOM     20  C   UNL     1      47.860  12.631  18.643  0.00  0.00    +0.176 C 
BRANCH  13  14
ATOM     14  O   UNL     1      44.791  16.377  19.911  0.00  0.00    -0.312 OA
ATOM     15  C   UNL     1      44.372  17.688  20.296  0.00  0.00    +0.242 C 
ENDBRANCH  13  14
BRANCH  20  21
ATOM     21  O   UNL     1      46.733  12.235  17.857  0.00  0.00    -0.554 OA
ATOM     22  H   UNL     1      46.069  12.929  17.747  0.00  0.00    +0.382 HD
ENDBRANCH  20  21
ENDBRANCH   7   8
BRANCH  23  24
ATOM     24  O   UNL     1      51.142  13.816  16.921  0.00  0.00    -0.491 OA
ATOM     25  H   UNL     1      51.853  13.162  16.896  0.00  0.00    +0.396 HD
ENDBRANCH  23  24
TORSDOF 4
ENDMDL
MODEL 6
REMARK VINA RESULT:      -5.5      2.352      7.387
REMARK  Name = ZINC95486319
REMARK  8 active torsions:
REMARK  status: ('A' for Active; 'I' for Inactive)
REMARK    1  A    between atoms: C1_1  and  C2_2
REMARK    2  A    between atoms: C7_8  and  C12_16
REMARK    3  A    between atoms: C8_9  and  O1_15
REMARK    4  A    between atoms: C10_11  and  C11_14
REMARK    5  A    between atoms: C17_22  and  O3_31
REMARK    6  A    between atoms: C19_24  and  C22_30
REMARK    7  A    between atoms: C21_27  and  O2_29
REMARK    8  A    between atoms: O3_31  and  C23_32
REMARK                            x       y       z     vdW  Elec       q    Type
REMARK                         _______ _______ _______ _____ _____    ______ ____
ROOT
ATOM      1  C   UNL     1      53.852  16.254  19.300  0.00  0.00    +0.093 C 
ATOM      2  C   UNL     1      52.913  17.456  19.429  0.00  0.00    +0.167 C 
ATOM      3  C   UNL     1      51.609  17.021  20.099  0.00  0.00    +0.129 C 
ATOM      4  C   UNL     1      50.598  18.136  20.021  0.00  0.00    -0.076 A 
ATOM      5  C   UNL     1      49.490  18.088  20.853  0.00  0.00    +0.015 A 
ATOM      6  C   UNL     1      48.540  19.090  20.811  0.00  0.00    +0.117 A 
ATOM      7  C   UNL     1      48.692  20.146  19.934  0.00  0.00    -0.079 A 
ATOM     23  C   UNL     1      49.799  20.198  19.103  0.00  0.00    +0.134 A 
ATOM     26  C   UNL     1      50.757  19.189  19.147  0.00  0.00    -0.161 A 
ATOM     27  C   UNL     1      51.949  19.288  18.233  0.00  0.00    +0.236 C 
ATOM     28  C   UNL     1      52.949  20.289  18.813  0.00  0.00    +0.092 C 
ATOM     29  N   UNL     1      52.603  17.985  18.091  0.00  0.00    -0.501 N 
ATOM     30  H   UNL     1      51.984  17.349  17.612  0.00  0.00    +0.429 HD
ATOM     31  H   UNL     1      53.457  18.088  17.563  0.00  0.00    +0.431 HD
ENDROOT
BRANCH   7   8
ATOM      8  C   UNL     1      47.657  21.240  19.883  0.00  0.00    +0.112 C 
ATOM      9  C   UNL     1      46.334  20.652  19.463  0.00  0.00    -0.034 A 
ATOM     10  C   UNL     1      46.340  19.712  18.441  0.00  0.00    -0.037 A 
ATOM     11  C   UNL     1      45.163  19.139  18.005  0.00  0.00    +0.041 A 
ATOM     12  C   UNL     1      43.965  19.503  18.588  0.00  0.00    -0.078 A 
ATOM     13  C   UNL     1      43.954  20.439  19.609  0.00  0.00    +0.132 A 
ATOM     16  C   UNL     1      45.144  21.014  20.051  0.00  0.00    -0.086 A 
ATOM     17  C   UNL     1      45.065  22.013  21.175  0.00  0.00    +0.045 C 
ATOM     18  C   UNL     1      44.875  21.269  22.499  0.00  0.00    +0.036 C 
ATOM     19  C   UNL     1      46.344  22.846  21.245  0.00  0.00    +0.003 C 
ATOM     20  C   UNL     1      47.542  21.890  21.260  0.00  0.00    +0.176 C 
BRANCH  13  14
ATOM     14  O   UNL     1      42.776  20.798  20.183  0.00  0.00    -0.312 OA
ATOM     15  C   UNL     1      41.624  20.828  19.338  0.00  0.00    +0.242 C 
ENDBRANCH  13  14
BRANCH  20  21
ATOM     21  O   UNL     1      47.342  20.882  22.253  0.00  0.00    -0.554 OA
ATOM     22  H   UNL     1      47.162  21.231  23.137  0.00  0.00    +0.382 HD
ENDBRANCH  20  21
ENDBRANCH   7   8
BRANCH  23  24
ATOM     24  O   UNL     1      49.949  21.237  18.239  0.00  0.00    -0.491 OA
ATOM     25  H   UNL     1      50.037  22.097  18.671  0.00  0.00    +0.396 HD
ENDBRANCH  23  24
TORSDOF 4
ENDMDL
MODEL 7
REMARK VINA RESULT:      -5.5      4.398      5.719
REMARK  Name = ZINC95486319
REMARK  8 active torsions:
REMARK  status: ('A' for Active; 'I' for Inactive)
REMARK    1  A    between atoms: C1_1  and  C2_2
REMARK    2  A    between atoms: C7_8  and  C12_16
REMARK    3  A    between atoms: C8_9  and  O1_15
REMARK    4  A    between atoms: C10_11  and  C11_14
REMARK    5  A    between atoms: C17_22  and  O3_31
REMARK    6  A    between atoms: C19_24  and  C22_30
REMARK    7  A    between atoms: C21_27  and  O2_29
REMARK    8  A    between atoms: O3_31  and  C23_32
REMARK                            x       y       z     vdW  Elec       q    Type
REMARK                         _______ _______ _______ _____ _____    ______ ____
ROOT
ATOM      1  C   UNL     1      42.395  21.641  19.125  0.00  0.00    +0.093 C 
ATOM      2  C   UNL     1      43.072  20.464  19.832  0.00  0.00    +0.167 C 
ATOM      3  C   UNL     1      43.942  19.697  18.835  0.00  0.00    +0.129 C 
ATOM      4  C   UNL     1      44.425  18.414  19.461  0.00  0.00    -0.076 A 
ATOM      5  C   UNL     1      45.488  17.747  18.872  0.00  0.00    +0.015 A 
ATOM      6  C   UNL     1      45.959  16.567  19.414  0.00  0.00    +0.117 A 
ATOM      7  C   UNL     1      45.368  16.046  20.548  0.00  0.00    -0.079 A 
ATOM     23  C   UNL     1      44.307  16.711  21.140  0.00  0.00    +0.134 A 
ATOM     26  C   UNL     1      43.834  17.901  20.594  0.00  0.00    -0.161 A 
ATOM     27  C   UNL     1      42.683  18.596  21.273  0.00  0.00    +0.236 C 
ATOM     28  C   UNL     1      43.200  19.344  22.503  0.00  0.00    +0.092 C 
ATOM     29  N   UNL     1      42.047  19.552  20.364  0.00  0.00    -0.501 N 
ATOM     30  H   UNL     1      41.612  19.053  19.603  0.00  0.00    +0.429 HD
ATOM     31  H   UNL     1      41.349  20.084  20.863  0.00  0.00    +0.431 HD
ENDROOT
BRANCH   7   8
ATOM      8  C   UNL     1      45.878  14.758  21.141  0.00  0.00    +0.112 C 
ATOM      9  C   UNL     1      46.254  13.813  20.029  0.00  0.00    -0.034 A 
ATOM     10  C   UNL     1      45.404  13.736  18.933  0.00  0.00    -0.037 A 
ATOM     11  C   UNL     1      45.687  12.887  17.883  0.00  0.00    +0.041 A 
ATOM     12  C   UNL     1      46.826  12.105  17.919  0.00  0.00    -0.078 A 
ATOM     13  C   UNL     1      47.676  12.180  19.009  0.00  0.00    +0.132 A 
ATOM     16  C   UNL     1      47.392  13.041  20.067  0.00  0.00    -0.086 A 
ATOM     17  C   UNL     1      48.366  13.087  21.215  0.00  0.00    +0.045 C 
ATOM     18  C   UNL     1      49.587  13.914  20.807  0.00  0.00    +0.036 C 
ATOM     19  C   UNL     1      47.718  13.720  22.445  0.00  0.00    +0.003 C 
ATOM     20  C   UNL     1      47.087  15.053  22.026  0.00  0.00    +0.176 C 
BRANCH  13  14
ATOM     14  O   UNL     1      48.796  11.411  19.046  0.00  0.00    -0.312 OA
ATOM     15  C   UNL     1      49.092  10.639  17.880  0.00  0.00    +0.242 C 
ENDBRANCH  13  14
BRANCH  20  21
ATOM     21  O   UNL     1      48.040  15.829  21.295  0.00  0.00    -0.554 OA
ATOM     22  H   UNL     1      48.552  16.439  21.842  0.00  0.00    +0.382 HD
ENDBRANCH  20  21
ENDBRANCH   7   8
BRANCH  23  24
ATOM     24  O   UNL     1      43.724  16.199  22.256  0.00  0.00    -0.491 OA
ATOM     25  H   UNL     1      43.766  15.234  22.313  0.00  0.00    +0.396 HD
ENDBRANCH  23  24
TORSDOF 4
ENDMDL
MODEL 8
REMARK VINA RESULT:      -5.4      4.489      7.226
REMARK  Name = ZINC95486319
REMARK  8 active torsions:
REMARK  status: ('A' for Active; 'I' for Inactive)
REMARK    1  A    between atoms: C1_1  and  C2_2
REMARK    2  A    between atoms: C7_8  and  C12_16
REMARK    3  A    between atoms: C8_9  and  O1_15
REMARK    4  A    between atoms: C10_11  and  C11_14
REMARK    5  A    between atoms: C17_22  and  O3_31
REMARK    6  A    between atoms: C19_24  and  C22_30
REMARK    7  A    between atoms: C21_27  and  O2_29
REMARK    8  A    between atoms: O3_31  and  C23_32
REMARK                            x       y       z     vdW  Elec       q    Type
REMARK                         _______ _______ _______ _____ _____    ______ ____
ROOT
ATOM      1  C   UNL     1      48.241  12.477  15.902  0.00  0.00    +0.093 C 
ATOM      2  C   UNL     1      47.273  13.327  16.728  0.00  0.00    +0.167 C 
ATOM      3  C   UNL     1      47.593  14.809  16.533  0.00  0.00    +0.129 C 
ATOM      4  C   UNL     1      46.801  15.636  17.513  0.00  0.00    -0.076 A 
ATOM      5  C   UNL     1      46.675  16.998  17.284  0.00  0.00    +0.015 A 
ATOM      6  C   UNL     1      45.960  17.791  18.160  0.00  0.00    +0.117 A 
ATOM      7  C   UNL     1      45.365  17.226  19.271  0.00  0.00    -0.079 A 
ATOM     23  C   UNL     1      45.487  15.865  19.501  0.00  0.00    +0.134 A 
ATOM     26  C   UNL     1      46.208  15.066  18.618  0.00  0.00    -0.161 A 
ATOM     27  C   UNL     1      46.308  13.591  18.900  0.00  0.00    +0.236 C 
ATOM     28  C   UNL     1      45.005  12.907  18.486  0.00  0.00    +0.092 C 
ATOM     29  N   UNL     1      47.420  12.995  18.155  0.00  0.00    -0.501 N 
ATOM     30  H   UNL     1      48.292  13.367  18.499  0.00  0.00    +0.429 HD
ATOM     31  H   UNL     1      47.410  11.993  18.271  0.00  0.00    +0.431 HD
ENDROOT
BRANCH   7   8
ATOM      8  C   UNL     1      44.586  18.087  20.230  0.00  0.00    +0.112 C 
ATOM      9  C   UNL     1      45.541  18.955  21.008  0.00  0.00    -0.034 A 
ATOM     10  C   UNL     1      46.718  18.373  21.463  0.00  0.00    -0.037 A 
ATOM     11  C   UNL     1      47.632  19.110  22.187  0.00  0.00    +0.041 A 
ATOM     12  C   UNL     1      47.379  20.440  22.463  0.00  0.00    -0.078 A 
ATOM     13  C   UNL     1      46.208  21.024  22.010  0.00  0.00    +0.132 A 
ATOM     16  C   UNL     1      45.286  20.280  21.276  0.00  0.00    -0.086 A 
ATOM     17  C   UNL     1      44.041  20.980  20.800  0.00  0.00    +0.045 C 
ATOM     18  C   UNL     1      44.382  21.846  19.585  0.00  0.00    +0.036 C 
ATOM     19  C   UNL     1      42.970  19.963  20.407  0.00  0.00    +0.003 C 
ATOM     20  C   UNL     1      43.597  18.948  19.446  0.00  0.00    +0.176 C 
BRANCH  13  14
ATOM     14  O   UNL     1      45.958  22.332  22.282  0.00  0.00    -0.312 OA
ATOM     15  C   UNL     1      46.944  23.281  21.872  0.00  0.00    +0.242 C 
ENDBRANCH  13  14
BRANCH  20  21
ATOM     21  O   UNL     1      44.285  19.637  18.398  0.00  0.00    -0.554 OA
ATOM     22  H   UNL     1      43.837  19.597  17.543  0.00  0.00    +0.382 HD
ENDBRANCH  20  21
ENDBRANCH   7   8
BRANCH  23  24
ATOM     24  O   UNL     1      44.903  15.308  20.596  0.00  0.00    -0.491 OA
ATOM     25  H   UNL     1      45.390  15.456  21.418  0.00  0.00    +0.396 HD
ENDBRANCH  23  24
TORSDOF 4
ENDMDL
MODEL 9
REMARK VINA RESULT:      -5.3     20.136     22.005
REMARK  Name = ZINC95486319
REMARK  8 active torsions:
REMARK  status: ('A' for Active; 'I' for Inactive)
REMARK    1  A    between atoms: C1_1  and  C2_2
REMARK    2  A    between atoms: C7_8  and  C12_16
REMARK    3  A    between atoms: C8_9  and  O1_15
REMARK    4  A    between atoms: C10_11  and  C11_14
REMARK    5  A    between atoms: C17_22  and  O3_31
REMARK    6  A    between atoms: C19_24  and  C22_30
REMARK    7  A    between atoms: C21_27  and  O2_29
REMARK    8  A    between atoms: O3_31  and  C23_32
REMARK                            x       y       z     vdW  Elec       q    Type
REMARK                         _______ _______ _______ _____ _____    ______ ____
ROOT
ATOM      1  C   UNL     1      52.982  34.315   7.473  0.00  0.00    +0.093 C 
ATOM      2  C   UNL     1      53.933  34.087   6.296  0.00  0.00    +0.167 C 
ATOM      3  C   UNL     1      53.515  32.829   5.533  0.00  0.00    +0.129 C 
ATOM      4  C   UNL     1      54.572  32.472   4.520  0.00  0.00    -0.076 A 
ATOM      5  C   UNL     1      54.245  31.590   3.501  0.00  0.00    +0.015 A 
ATOM      6  C   UNL     1      55.186  31.236   2.554  0.00  0.00    +0.117 A 
ATOM      7  C   UNL     1      56.462  31.761   2.621  0.00  0.00    -0.079 A 
ATOM     23  C   UNL     1      56.791  32.644   3.637  0.00  0.00    +0.134 A 
ATOM     26  C   UNL     1      55.841  33.002   4.590  0.00  0.00    -0.161 A 
ATOM     27  C   UNL     1      56.238  33.971   5.671  0.00  0.00    +0.236 C 
ATOM     28  C   UNL     1      56.232  35.392   5.104  0.00  0.00    +0.092 C 
ATOM     29  N   UNL     1      55.304  33.901   6.797  0.00  0.00    -0.501 N 
ATOM     30  H   UNL     1      55.381  32.999   7.242  0.00  0.00    +0.429 HD
ATOM     31  H   UNL     1      55.520  34.627   7.465  0.00  0.00    +0.431 HD
ENDROOT
BRANCH   7   8
ATOM      8  C   UNL     1      57.492  31.375   1.592  0.00  0.00    +0.112 C 
ATOM      9  C   UNL     1      57.955  29.966   1.857  0.00  0.00    -0.034 A 
ATOM     10  C   UNL     1      58.182  29.598   3.177  0.00  0.00    -0.037 A 
ATOM     11  C   UNL     1      58.613  28.325   3.488  0.00  0.00    +0.041 A 
ATOM     12  C   UNL     1      58.822  27.404   2.478  0.00  0.00    -0.078 A 
ATOM     13  C   UNL     1      58.595  27.766   1.161  0.00  0.00    +0.132 A 
ATOM     16  C   UNL     1      58.155  29.051   0.849  0.00  0.00    -0.086 A 
ATOM     17  C   UNL     1      57.913  29.375  -0.602  0.00  0.00    +0.045 C 
ATOM     18  C   UNL     1      56.580  28.761  -1.039  0.00  0.00    +0.036 C 
ATOM     19  C   UNL     1      57.863  30.888  -0.814  0.00  0.00    +0.003 C 
ATOM     20  C   UNL     1      56.878  31.484   0.198  0.00  0.00    +0.176 C 
BRANCH  13  14
ATOM     14  O   UNL     1      58.800  26.861   0.168  0.00  0.00    -0.312 OA
ATOM     15  C   UNL     1      58.671  25.480   0.511  0.00  0.00    +0.242 C 
ENDBRANCH  13  14
BRANCH  20  21
ATOM     21  O   UNL     1      55.646  30.760   0.156  0.00  0.00    -0.554 OA
ATOM     22  H   UNL     1      55.348  30.542  -0.737  0.00  0.00    +0.382 HD
ENDBRANCH  20  21
ENDBRANCH   7   8
BRANCH  23  24
ATOM     24  O   UNL     1      58.046  33.161   3.704  0.00  0.00    -0.491 OA
ATOM     25  H   UNL     1      58.624  32.707   4.332  0.00  0.00    +0.396 HD
ENDBRANCH  23  24
TORSDOF 4
ENDMDL
