MODEL 1
REMARK VINA RESULT:      -4.2      0.000      0.000
REMARK  Name = ZINC82189149
REMARK  20 active torsions:
REMARK  status: ('A' for Active; 'I' for Inactive)
REMARK    1  A    between atoms: C1_1  and  C2_2
REMARK    2  A    between atoms: C2_2  and  C3_3
REMARK    3  A    between atoms: C3_3  and  C4_4
REMARK    4  A    between atoms: C4_4  and  C5_5
REMARK    5  A    between atoms: C5_5  and  C6_6
REMARK    6  A    between atoms: C6_6  and  C7_7
REMARK    7  A    between atoms: C7_7  and  C8_8
REMARK    8  A    between atoms: C8_8  and  C9_9
REMARK    9  A    between atoms: C9_9  and  C10_10
REMARK   10  A    between atoms: C10_10  and  C11_11
REMARK   11  A    between atoms: C11_11  and  C12_12
REMARK   12  A    between atoms: C12_12  and  C13_13
REMARK   13  A    between atoms: C13_13  and  C14_14
REMARK   14  A    between atoms: C14_14  and  C15_15
REMARK   15  A    between atoms: C15_15  and  C16_16
REMARK   16  A    between atoms: C16_16  and  C17_18
REMARK   17  A    between atoms: C16_16  and  C19_20
REMARK   18  A    between atoms: C17_18  and  C18_19
REMARK   19  A    between atoms: C19_20  and  C20_21
REMARK   20  A    between atoms: C20_21  and  C21_22
REMARK                            x       y       z     vdW  Elec       q    Type
REMARK                         _______ _______ _______ _____ _____    ______ ____
ROOT
ATOM     11  C   UNL     1      44.652  15.415  21.031  0.00  0.00    -0.000 C 
ENDROOT
BRANCH  11  10
ATOM     10  C   UNL     1      45.771  15.467  19.990  0.00  0.00    -0.000 C 
BRANCH  10   9
ATOM      9  C   UNL     1      46.204  16.920  19.779  0.00  0.00    +0.000 C 
BRANCH   9   8
ATOM      8  C   UNL     1      45.887  17.344  18.345  0.00  0.00    +0.000 C 
BRANCH   8   7
ATOM      7  C   UNL     1      46.497  18.720  18.073  0.00  0.00    +0.000 C 
BRANCH   7   6
ATOM      6  C   UNL     1      47.096  19.277  19.366  0.00  0.00    +0.000 C 
BRANCH   6   5
ATOM      5  C   UNL     1      47.598  20.702  19.124  0.00  0.00    +0.000 C 
BRANCH   5   4
ATOM      4  C   UNL     1      49.071  20.800  19.527  0.00  0.00    -0.000 C 
BRANCH   4   3
ATOM      3  C   UNL     1      49.943  20.204  18.421  0.00  0.00    -0.000 C 
BRANCH   3   2
ATOM      1  C   UNL     1      51.639  20.920  16.731  0.00  0.00    +0.006 C 
ATOM      2  C   UNL     1      51.138  21.124  18.162  0.00  0.00    -0.006 C 
ENDBRANCH   3   2
ENDBRANCH   4   3
ENDBRANCH   5   4
ENDBRANCH   6   5
ENDBRANCH   7   6
ENDBRANCH   8   7
ENDBRANCH   9   8
ENDBRANCH  10   9
ENDBRANCH  11  10
BRANCH  11  12
ATOM     12  C   UNL     1      44.493  16.792  21.680  0.00  0.00    -0.000 C 
BRANCH  12  13
ATOM     13  C   UNL     1      43.089  16.917  22.274  0.00  0.00    -0.001 C 
BRANCH  13  14
ATOM     14  C   UNL     1      42.420  18.184  21.739  0.00  0.00    +0.001 C 
BRANCH  14  15
ATOM     15  C   UNL     1      43.462  19.047  21.022  0.00  0.00    +0.007 C 
BRANCH  15  16
ATOM     16  C   UNL     1      42.966  19.380  19.614  0.00  0.00    -0.020 C 
BRANCH  16  20
ATOM     20  C   UNL     1      43.607  20.687  19.144  0.00  0.00    +0.001 C 
ATOM     21  C   UNL     1      44.170  21.441  20.350  0.00  0.00    +0.005 C 
ENDBRANCH  16  20
BRANCH  16  17
ATOM     17  C   UNL     1      41.444  19.536  19.633  0.00  0.00    +0.007 C 
BRANCH  17  18
ATOM     18  C   UNL     1      41.000  20.349  18.415  0.00  0.00    -0.005 C 
ATOM     19  C   UNL     1      39.886  21.313  18.825  0.00  0.00    +0.004 C 
ENDBRANCH  17  18
ENDBRANCH  16  17
ENDBRANCH  15  16
ENDBRANCH  14  15
ENDBRANCH  13  14
ENDBRANCH  12  13
ENDBRANCH  11  12
TORSDOF 17
ENDMDL
MODEL 2
REMARK VINA RESULT:      -4.1      1.983      5.580
REMARK  Name = ZINC82189149
REMARK  20 active torsions:
REMARK  status: ('A' for Active; 'I' for Inactive)
REMARK    1  A    between atoms: C1_1  and  C2_2
REMARK    2  A    between atoms: C2_2  and  C3_3
REMARK    3  A    between atoms: C3_3  and  C4_4
REMARK    4  A    between atoms: C4_4  and  C5_5
REMARK    5  A    between atoms: C5_5  and  C6_6
REMARK    6  A    between atoms: C6_6  and  C7_7
REMARK    7  A    between atoms: C7_7  and  C8_8
REMARK    8  A    between atoms: C8_8  and  C9_9
REMARK    9  A    between atoms: C9_9  and  C10_10
REMARK   10  A    between atoms: C10_10  and  C11_11
REMARK   11  A    between atoms: C11_11  and  C12_12
REMARK   12  A    between atoms: C12_12  and  C13_13
REMARK   13  A    between atoms: C13_13  and  C14_14
REMARK   14  A    between atoms: C14_14  and  C15_15
REMARK   15  A    between atoms: C15_15  and  C16_16
REMARK   16  A    between atoms: C16_16  and  C17_18
REMARK   17  A    between atoms: C16_16  and  C19_20
REMARK   18  A    between atoms: C17_18  and  C18_19
REMARK   19  A    between atoms: C19_20  and  C20_21
REMARK   20  A    between atoms: C20_21  and  C21_22
REMARK                            x       y       z     vdW  Elec       q    Type
REMARK                         _______ _______ _______ _____ _____    ______ ____
ROOT
ATOM     11  C   UNL     1      49.984  20.958  18.443  0.00  0.00    -0.000 C 
ENDROOT
BRANCH  11  10
ATOM     10  C   UNL     1      51.406  21.209  17.940  0.00  0.00    -0.000 C 
BRANCH  10   9
ATOM      9  C   UNL     1      51.447  21.042  16.419  0.00  0.00    +0.000 C 
BRANCH   9   8
ATOM      8  C   UNL     1      52.306  19.829  16.061  0.00  0.00    +0.000 C 
BRANCH   8   7
ATOM      7  C   UNL     1      51.421  18.585  15.977  0.00  0.00    +0.000 C 
BRANCH   7   6
ATOM      6  C   UNL     1      51.691  17.683  17.183  0.00  0.00    +0.000 C 
BRANCH   6   5
ATOM      5  C   UNL     1      50.496  16.753  17.403  0.00  0.00    +0.000 C 
BRANCH   5   4
ATOM      4  C   UNL     1      49.201  17.502  17.079  0.00  0.00    -0.000 C 
BRANCH   4   3
ATOM      3  C   UNL     1      48.324  17.570  18.331  0.00  0.00    -0.000 C 
BRANCH   3   2
ATOM      1  C   UNL     1      48.611  17.142  20.776  0.00  0.00    +0.006 C 
ATOM      2  C   UNL     1      48.845  16.578  19.373  0.00  0.00    -0.006 C 
ENDBRANCH   3   2
ENDBRANCH   4   3
ENDBRANCH   5   4
ENDBRANCH   6   5
ENDBRANCH   7   6
ENDBRANCH   8   7
ENDBRANCH   9   8
ENDBRANCH  10   9
ENDBRANCH  11  10
BRANCH  11  12
ATOM     12  C   UNL     1      50.027  20.573  19.924  0.00  0.00    -0.000 C 
BRANCH  12  13
ATOM     13  C   UNL     1      48.641  20.769  20.542  0.00  0.00    -0.001 C 
BRANCH  13  14
ATOM     14  C   UNL     1      47.603  20.913  19.429  0.00  0.00    +0.001 C 
BRANCH  14  15
ATOM     15  C   UNL     1      46.204  20.999  20.044  0.00  0.00    +0.007 C 
BRANCH  15  16
ATOM     16  C   UNL     1      45.153  20.790  18.952  0.00  0.00    -0.020 C 
BRANCH  16  20
ATOM     20  C   UNL     1      43.788  21.254  19.463  0.00  0.00    +0.001 C 
ATOM     21  C   UNL     1      43.853  22.741  19.813  0.00  0.00    +0.005 C 
ENDBRANCH  16  20
BRANCH  16  17
ATOM     17  C   UNL     1      45.084  19.305  18.589  0.00  0.00    +0.007 C 
BRANCH  17  18
ATOM     18  C   UNL     1      44.372  18.540  19.707  0.00  0.00    -0.005 C 
ATOM     19  C   UNL     1      44.946  17.125  19.802  0.00  0.00    +0.004 C 
ENDBRANCH  17  18
ENDBRANCH  16  17
ENDBRANCH  15  16
ENDBRANCH  14  15
ENDBRANCH  13  14
ENDBRANCH  12  13
ENDBRANCH  11  12
TORSDOF 17
ENDMDL
MODEL 3
REMARK VINA RESULT:      -4.1      1.621      4.939
REMARK  Name = ZINC82189149
REMARK  20 active torsions:
REMARK  status: ('A' for Active; 'I' for Inactive)
REMARK    1  A    between atoms: C1_1  and  C2_2
REMARK    2  A    between atoms: C2_2  and  C3_3
REMARK    3  A    between atoms: C3_3  and  C4_4
REMARK    4  A    between atoms: C4_4  and  C5_5
REMARK    5  A    between atoms: C5_5  and  C6_6
REMARK    6  A    between atoms: C6_6  and  C7_7
REMARK    7  A    between atoms: C7_7  and  C8_8
REMARK    8  A    between atoms: C8_8  and  C9_9
REMARK    9  A    between atoms: C9_9  and  C10_10
REMARK   10  A    between atoms: C10_10  and  C11_11
REMARK   11  A    between atoms: C11_11  and  C12_12
REMARK   12  A    between atoms: C12_12  and  C13_13
REMARK   13  A    between atoms: C13_13  and  C14_14
REMARK   14  A    between atoms: C14_14  and  C15_15
REMARK   15  A    between atoms: C15_15  and  C16_16
REMARK   16  A    between atoms: C16_16  and  C17_18
REMARK   17  A    between atoms: C16_16  and  C19_20
REMARK   18  A    between atoms: C17_18  and  C18_19
REMARK   19  A    between atoms: C19_20  and  C20_21
REMARK   20  A    between atoms: C20_21  and  C21_22
REMARK                            x       y       z     vdW  Elec       q    Type
REMARK                         _______ _______ _______ _____ _____    ______ ____
ROOT
ATOM     11  C   UNL     1      49.278  20.417  19.866  0.00  0.00    -0.000 C 
ENDROOT
BRANCH  11  10
ATOM     10  C   UNL     1      49.758  21.014  18.542  0.00  0.00    -0.000 C 
BRANCH  10   9
ATOM      9  C   UNL     1      51.287  21.100  18.545  0.00  0.00    +0.000 C 
BRANCH   9   8
ATOM      8  C   UNL     1      51.817  20.812  17.140  0.00  0.00    +0.000 C 
BRANCH   8   7
ATOM      7  C   UNL     1      52.307  19.365  17.066  0.00  0.00    +0.000 C 
BRANCH   7   6
ATOM      6  C   UNL     1      51.360  18.550  16.182  0.00  0.00    +0.000 C 
BRANCH   6   5
ATOM      5  C   UNL     1      50.703  17.450  17.017  0.00  0.00    +0.000 C 
BRANCH   5   4
ATOM      4  C   UNL     1      49.211  17.750  17.172  0.00  0.00    -0.000 C 
BRANCH   4   3
ATOM      3  C   UNL     1      48.657  16.977  18.371  0.00  0.00    -0.000 C 
BRANCH   3   2
ATOM      1  C   UNL     1      46.705  16.655  16.844  0.00  0.00    +0.006 C 
ATOM      2  C   UNL     1      47.130  16.934  18.288  0.00  0.00    -0.006 C 
ENDBRANCH   3   2
ENDBRANCH   4   3
ENDBRANCH   5   4
ENDBRANCH   6   5
ENDBRANCH   7   6
ENDBRANCH   8   7
ENDBRANCH   9   8
ENDBRANCH  10   9
ENDBRANCH  11  10
BRANCH  11  12
ATOM     12  C   UNL     1      47.791  20.728  20.056  0.00  0.00    -0.000 C 
BRANCH  12  13
ATOM     13  C   UNL     1      47.043  20.455  18.749  0.00  0.00    -0.001 C 
BRANCH  13  14
ATOM     14  C   UNL     1      45.640  21.057  18.831  0.00  0.00    +0.001 C 
BRANCH  14  15
ATOM     15  C   UNL     1      44.600  19.934  18.799  0.00  0.00    +0.007 C 
BRANCH  15  16
ATOM     16  C   UNL     1      43.571  20.161  19.909  0.00  0.00    -0.020 C 
BRANCH  16  20
ATOM     20  C   UNL     1      43.092  18.809  20.443  0.00  0.00    +0.001 C 
ATOM     21  C   UNL     1      44.250  17.810  20.414  0.00  0.00    +0.005 C 
ENDBRANCH  16  20
BRANCH  16  17
ATOM     17  C   UNL     1      42.380  20.939  19.348  0.00  0.00    +0.007 C 
BRANCH  17  18
ATOM     18  C   UNL     1      41.126  20.063  19.407  0.00  0.00    -0.005 C 
ATOM     19  C   UNL     1      40.534  19.926  18.003  0.00  0.00    +0.004 C 
ENDBRANCH  17  18
ENDBRANCH  16  17
ENDBRANCH  15  16
ENDBRANCH  14  15
ENDBRANCH  13  14
ENDBRANCH  12  13
ENDBRANCH  11  12
TORSDOF 17
ENDMDL
MODEL 4
REMARK VINA RESULT:      -4.1      1.943      7.785
REMARK  Name = ZINC82189149
REMARK  20 active torsions:
REMARK  status: ('A' for Active; 'I' for Inactive)
REMARK    1  A    between atoms: C1_1  and  C2_2
REMARK    2  A    between atoms: C2_2  and  C3_3
REMARK    3  A    between atoms: C3_3  and  C4_4
REMARK    4  A    between atoms: C4_4  and  C5_5
REMARK    5  A    between atoms: C5_5  and  C6_6
REMARK    6  A    between atoms: C6_6  and  C7_7
REMARK    7  A    between atoms: C7_7  and  C8_8
REMARK    8  A    between atoms: C8_8  and  C9_9
REMARK    9  A    between atoms: C9_9  and  C10_10
REMARK   10  A    between atoms: C10_10  and  C11_11
REMARK   11  A    between atoms: C11_11  and  C12_12
REMARK   12  A    between atoms: C12_12  and  C13_13
REMARK   13  A    between atoms: C13_13  and  C14_14
REMARK   14  A    between atoms: C14_14  and  C15_15
REMARK   15  A    between atoms: C15_15  and  C16_16
REMARK   16  A    between atoms: C16_16  and  C17_18
REMARK   17  A    between atoms: C16_16  and  C19_20
REMARK   18  A    between atoms: C17_18  and  C18_19
REMARK   19  A    between atoms: C19_20  and  C20_21
REMARK   20  A    between atoms: C20_21  and  C21_22
REMARK                            x       y       z     vdW  Elec       q    Type
REMARK                         _______ _______ _______ _____ _____    ______ ____
ROOT
ATOM     11  C   UNL     1      46.473  21.889  20.818  0.00  0.00    -0.000 C 
ENDROOT
BRANCH  11  10
ATOM     10  C   UNL     1      45.477  21.347  21.846  0.00  0.00    -0.000 C 
BRANCH  10   9
ATOM      9  C   UNL     1      45.914  19.950  22.293  0.00  0.00    +0.000 C 
BRANCH   9   8
ATOM      8  C   UNL     1      44.877  18.922  21.840  0.00  0.00    +0.000 C 
BRANCH   8   7
ATOM      7  C   UNL     1      43.484  19.378  22.276  0.00  0.00    +0.000 C 
BRANCH   7   6
ATOM      6  C   UNL     1      42.485  19.121  21.145  0.00  0.00    +0.000 C 
BRANCH   6   5
ATOM      5  C   UNL     1      43.235  19.017  19.816  0.00  0.00    +0.000 C 
BRANCH   5   4
ATOM      4  C   UNL     1      42.890  20.222  18.939  0.00  0.00    -0.000 C 
BRANCH   4   3
ATOM      3  C   UNL     1      41.417  20.150  18.530  0.00  0.00    -0.000 C 
BRANCH   3   2
ATOM      1  C   UNL     1      39.315  21.494  18.656  0.00  0.00    +0.006 C 
ATOM      2  C   UNL     1      40.833  21.563  18.479  0.00  0.00    -0.006 C 
ENDBRANCH   3   2
ENDBRANCH   4   3
ENDBRANCH   5   4
ENDBRANCH   6   5
ENDBRANCH   7   6
ENDBRANCH   8   7
ENDBRANCH   9   8
ENDBRANCH  10   9
ENDBRANCH  11  10
BRANCH  11  12
ATOM     12  C   UNL     1      46.009  21.509  19.410  0.00  0.00    -0.000 C 
BRANCH  12  13
ATOM     13  C   UNL     1      47.013  20.536  18.788  0.00  0.00    -0.001 C 
BRANCH  13  14
ATOM     14  C   UNL     1      48.392  20.759  19.412  0.00  0.00    +0.001 C 
BRANCH  14  15
ATOM     15  C   UNL     1      49.329  19.623  18.998  0.00  0.00    +0.007 C 
BRANCH  15  16
ATOM     16  C   UNL     1      50.763  20.149  18.914  0.00  0.00    -0.020 C 
BRANCH  16  20
ATOM     20  C   UNL     1      51.207  20.642  20.292  0.00  0.00    +0.001 C 
ATOM     21  C   UNL     1      52.287  21.712  20.127  0.00  0.00    +0.005 C 
ENDBRANCH  16  20
BRANCH  16  17
ATOM     17  C   UNL     1      50.823  21.307  17.915  0.00  0.00    +0.007 C 
BRANCH  17  18
ATOM     18  C   UNL     1      51.393  20.805  16.586  0.00  0.00    -0.005 C 
ATOM     19  C   UNL     1      52.285  19.588  16.842  0.00  0.00    +0.004 C 
ENDBRANCH  17  18
ENDBRANCH  16  17
ENDBRANCH  15  16
ENDBRANCH  14  15
ENDBRANCH  13  14
ENDBRANCH  12  13
ENDBRANCH  11  12
TORSDOF 17
ENDMDL
MODEL 5
REMARK VINA RESULT:      -4.0      2.260      5.123
REMARK  Name = ZINC82189149
REMARK  20 active torsions:
REMARK  status: ('A' for Active; 'I' for Inactive)
REMARK    1  A    between atoms: C1_1  and  C2_2
REMARK    2  A    between atoms: C2_2  and  C3_3
REMARK    3  A    between atoms: C3_3  and  C4_4
REMARK    4  A    between atoms: C4_4  and  C5_5
REMARK    5  A    between atoms: C5_5  and  C6_6
REMARK    6  A    between atoms: C6_6  and  C7_7
REMARK    7  A    between atoms: C7_7  and  C8_8
REMARK    8  A    between atoms: C8_8  and  C9_9
REMARK    9  A    between atoms: C9_9  and  C10_10
REMARK   10  A    between atoms: C10_10  and  C11_11
REMARK   11  A    between atoms: C11_11  and  C12_12
REMARK   12  A    between atoms: C12_12  and  C13_13
REMARK   13  A    between atoms: C13_13  and  C14_14
REMARK   14  A    between atoms: C14_14  and  C15_15
REMARK   15  A    between atoms: C15_15  and  C16_16
REMARK   16  A    between atoms: C16_16  and  C17_18
REMARK   17  A    between atoms: C16_16  and  C19_20
REMARK   18  A    between atoms: C17_18  and  C18_19
REMARK   19  A    between atoms: C19_20  and  C20_21
REMARK   20  A    between atoms: C20_21  and  C21_22
REMARK                            x       y       z     vdW  Elec       q    Type
REMARK                         _______ _______ _______ _____ _____    ______ ____
ROOT
ATOM     11  C   UNL     1      48.224  19.974  19.275  0.00  0.00    -0.000 C 
ENDROOT
BRANCH  11  10
ATOM     10  C   UNL     1      49.319  20.947  18.832  0.00  0.00    -0.000 C 
BRANCH  10   9
ATOM      9  C   UNL     1      50.591  20.685  19.641  0.00  0.00    +0.000 C 
BRANCH   9   8
ATOM      8  C   UNL     1      51.788  21.314  18.926  0.00  0.00    +0.000 C 
BRANCH   8   7
ATOM      7  C   UNL     1      52.483  20.256  18.068  0.00  0.00    +0.000 C 
BRANCH   7   6
ATOM      6  C   UNL     1      52.241  20.559  16.588  0.00  0.00    +0.000 C 
BRANCH   6   5
ATOM      5  C   UNL     1      51.430  19.424  15.960  0.00  0.00    +0.000 C 
BRANCH   5   4
ATOM      4  C   UNL     1      51.447  18.209  16.890  0.00  0.00    -0.000 C 
BRANCH   4   3
ATOM      3  C   UNL     1      50.029  17.656  17.034  0.00  0.00    -0.000 C 
BRANCH   3   2
ATOM      1  C   UNL     1      51.132  17.015  19.183  0.00  0.00    +0.006 C 
ATOM      2  C   UNL     1      49.971  16.709  18.234  0.00  0.00    -0.006 C 
ENDBRANCH   3   2
ENDBRANCH   4   3
ENDBRANCH   5   4
ENDBRANCH   6   5
ENDBRANCH   7   6
ENDBRANCH   8   7
ENDBRANCH   9   8
ENDBRANCH  10   9
ENDBRANCH  11  10
BRANCH  11  12
ATOM     12  C   UNL     1      48.320  19.753  20.787  0.00  0.00    -0.000 C 
BRANCH  12  13
ATOM     13  C   UNL     1      48.252  18.254  21.087  0.00  0.00    -0.001 C 
BRANCH  13  14
ATOM     14  C   UNL     1      46.792  17.798  21.074  0.00  0.00    +0.001 C 
BRANCH  14  15
ATOM     15  C   UNL     1      46.608  16.706  20.018  0.00  0.00    +0.007 C 
BRANCH  15  16
ATOM     16  C   UNL     1      45.545  17.146  19.009  0.00  0.00    -0.020 C 
BRANCH  16  20
ATOM     20  C   UNL     1      46.221  17.521  17.689  0.00  0.00    +0.001 C 
ATOM     21  C   UNL     1      46.563  16.249  16.912  0.00  0.00    +0.005 C 
ENDBRANCH  16  20
BRANCH  16  17
ATOM     17  C   UNL     1      44.792  18.358  19.559  0.00  0.00    +0.007 C 
BRANCH  17  18
ATOM     18  C   UNL     1      44.698  19.435  18.475  0.00  0.00    -0.005 C 
ATOM     19  C   UNL     1      44.638  20.815  19.132  0.00  0.00    +0.004 C 
ENDBRANCH  17  18
ENDBRANCH  16  17
ENDBRANCH  15  16
ENDBRANCH  14  15
ENDBRANCH  13  14
ENDBRANCH  12  13
ENDBRANCH  11  12
TORSDOF 17
ENDMDL
MODEL 6
REMARK VINA RESULT:      -4.0      1.880      7.199
REMARK  Name = ZINC82189149
REMARK  20 active torsions:
REMARK  status: ('A' for Active; 'I' for Inactive)
REMARK    1  A    between atoms: C1_1  and  C2_2
REMARK    2  A    between atoms: C2_2  and  C3_3
REMARK    3  A    between atoms: C3_3  and  C4_4
REMARK    4  A    between atoms: C4_4  and  C5_5
REMARK    5  A    between atoms: C5_5  and  C6_6
REMARK    6  A    between atoms: C6_6  and  C7_7
REMARK    7  A    between atoms: C7_7  and  C8_8
REMARK    8  A    between atoms: C8_8  and  C9_9
REMARK    9  A    between atoms: C9_9  and  C10_10
REMARK   10  A    between atoms: C10_10  and  C11_11
REMARK   11  A    between atoms: C11_11  and  C12_12
REMARK   12  A    between atoms: C12_12  and  C13_13
REMARK   13  A    between atoms: C13_13  and  C14_14
REMARK   14  A    between atoms: C14_14  and  C15_15
REMARK   15  A    between atoms: C15_15  and  C16_16
REMARK   16  A    between atoms: C16_16  and  C17_18
REMARK   17  A    between atoms: C16_16  and  C19_20
REMARK   18  A    between atoms: C17_18  and  C18_19
REMARK   19  A    between atoms: C19_20  and  C20_21
REMARK   20  A    between atoms: C20_21  and  C21_22
REMARK                            x       y       z     vdW  Elec       q    Type
REMARK                         _______ _______ _______ _____ _____    ______ ____
ROOT
ATOM     11  C   UNL     1      46.172  23.003  21.397  0.00  0.00    -0.000 C 
ENDROOT
BRANCH  11  10
ATOM     10  C   UNL     1      45.003  22.038  21.603  0.00  0.00    -0.000 C 
BRANCH  10   9
ATOM      9  C   UNL     1      44.217  21.902  20.296  0.00  0.00    +0.000 C 
BRANCH   9   8
ATOM      8  C   UNL     1      45.185  21.942  19.113  0.00  0.00    +0.000 C 
BRANCH   8   7
ATOM      7  C   UNL     1      45.653  20.522  18.789  0.00  0.00    +0.000 C 
BRANCH   7   6
ATOM      6  C   UNL     1      44.456  19.569  18.827  0.00  0.00    +0.000 C 
BRANCH   6   5
ATOM      5  C   UNL     1      44.890  18.228  19.421  0.00  0.00    +0.000 C 
BRANCH   5   4
ATOM      4  C   UNL     1      44.876  18.318  20.948  0.00  0.00    -0.000 C 
BRANCH   4   3
ATOM      3  C   UNL     1      43.562  17.743  21.481  0.00  0.00    -0.000 C 
BRANCH   3   2
ATOM      1  C   UNL     1      41.401  18.937  21.094  0.00  0.00    +0.006 C 
ATOM      2  C   UNL     1      42.663  18.885  21.959  0.00  0.00    -0.006 C 
ENDBRANCH   3   2
ENDBRANCH   4   3
ENDBRANCH   5   4
ENDBRANCH   6   5
ENDBRANCH   7   6
ENDBRANCH   8   7
ENDBRANCH   9   8
ENDBRANCH  10   9
ENDBRANCH  11  10
BRANCH  11  12
ATOM     12  C   UNL     1      47.446  22.393  21.988  0.00  0.00    -0.000 C 
BRANCH  12  13
ATOM     13  C   UNL     1      47.188  20.930  22.354  0.00  0.00    -0.001 C 
BRANCH  13  14
ATOM     14  C   UNL     1      48.111  20.029  21.533  0.00  0.00    +0.001 C 
BRANCH  14  15
ATOM     15  C   UNL     1      49.019  20.893  20.655  0.00  0.00    +0.007 C 
BRANCH  15  16
ATOM     16  C   UNL     1      49.052  20.320  19.237  0.00  0.00    -0.020 C 
BRANCH  16  20
ATOM     20  C   UNL     1      49.312  18.814  19.301  0.00  0.00    +0.001 C 
ATOM     21  C   UNL     1      48.463  18.104  18.246  0.00  0.00    +0.005 C 
ENDBRANCH  16  20
BRANCH  16  17
ATOM     17  C   UNL     1      50.170  20.996  18.440  0.00  0.00    +0.007 C 
BRANCH  17  18
ATOM     18  C   UNL     1      51.448  21.028  19.281  0.00  0.00    -0.005 C 
ATOM     19  C   UNL     1      52.623  20.522  18.442  0.00  0.00    +0.004 C 
ENDBRANCH  17  18
ENDBRANCH  16  17
ENDBRANCH  15  16
ENDBRANCH  14  15
ENDBRANCH  13  14
ENDBRANCH  12  13
ENDBRANCH  11  12
TORSDOF 17
ENDMDL
MODEL 7
REMARK VINA RESULT:      -4.0      2.606      6.522
REMARK  Name = ZINC82189149
REMARK  20 active torsions:
REMARK  status: ('A' for Active; 'I' for Inactive)
REMARK    1  A    between atoms: C1_1  and  C2_2
REMARK    2  A    between atoms: C2_2  and  C3_3
REMARK    3  A    between atoms: C3_3  and  C4_4
REMARK    4  A    between atoms: C4_4  and  C5_5
REMARK    5  A    between atoms: C5_5  and  C6_6
REMARK    6  A    between atoms: C6_6  and  C7_7
REMARK    7  A    between atoms: C7_7  and  C8_8
REMARK    8  A    between atoms: C8_8  and  C9_9
REMARK    9  A    between atoms: C9_9  and  C10_10
REMARK   10  A    between atoms: C10_10  and  C11_11
REMARK   11  A    between atoms: C11_11  and  C12_12
REMARK   12  A    between atoms: C12_12  and  C13_13
REMARK   13  A    between atoms: C13_13  and  C14_14
REMARK   14  A    between atoms: C14_14  and  C15_15
REMARK   15  A    between atoms: C15_15  and  C16_16
REMARK   16  A    between atoms: C16_16  and  C17_18
REMARK   17  A    between atoms: C16_16  and  C19_20
REMARK   18  A    between atoms: C17_18  and  C18_19
REMARK   19  A    between atoms: C19_20  and  C20_21
REMARK   20  A    between atoms: C20_21  and  C21_22
REMARK                            x       y       z     vdW  Elec       q    Type
REMARK                         _______ _______ _______ _____ _____    ______ ____
ROOT
ATOM     11  C   UNL     1      51.367  17.630  16.582  0.00  0.00    -0.000 C 
ENDROOT
BRANCH  11  10
ATOM     10  C   UNL     1      51.697  18.990  15.962  0.00  0.00    -0.000 C 
BRANCH  10   9
ATOM      9  C   UNL     1      52.245  19.924  17.044  0.00  0.00    +0.000 C 
BRANCH   9   8
ATOM      8  C   UNL     1      51.244  21.051  17.299  0.00  0.00    +0.000 C 
BRANCH   8   7
ATOM      7  C   UNL     1      50.804  21.020  18.764  0.00  0.00    +0.000 C 
BRANCH   7   6
ATOM      6  C   UNL     1      49.287  20.829  18.837  0.00  0.00    +0.000 C 
BRANCH   6   5
ATOM      5  C   UNL     1      48.849  20.784  20.302  0.00  0.00    +0.000 C 
BRANCH   5   4
ATOM      4  C   UNL     1      47.404  21.276  20.418  0.00  0.00    -0.000 C 
BRANCH   4   3
ATOM      3  C   UNL     1      46.469  20.279  19.731  0.00  0.00    -0.000 C 
BRANCH   3   2
ATOM      1  C   UNL     1      45.062  22.336  19.547  0.00  0.00    +0.006 C 
ATOM      2  C   UNL     1      45.474  21.037  18.851  0.00  0.00    -0.006 C 
ENDBRANCH   3   2
ENDBRANCH   4   3
ENDBRANCH   5   4
ENDBRANCH   6   5
ENDBRANCH   7   6
ENDBRANCH   8   7
ENDBRANCH   9   8
ENDBRANCH  10   9
ENDBRANCH  11  10
BRANCH  11  12
ATOM     12  C   UNL     1      49.904  17.616  17.031  0.00  0.00    -0.000 C 
BRANCH  12  13
ATOM     13  C   UNL     1      49.819  17.116  18.475  0.00  0.00    -0.001 C 
BRANCH  13  14
ATOM     14  C   UNL     1      48.377  17.232  18.970  0.00  0.00    +0.001 C 
BRANCH  14  15
ATOM     15  C   UNL     1      47.430  17.309  17.770  0.00  0.00    +0.007 C 
BRANCH  15  16
ATOM     16  C   UNL     1      46.218  16.408  18.017  0.00  0.00    -0.020 C 
BRANCH  16  20
ATOM     20  C   UNL     1      45.635  16.707  19.400  0.00  0.00    +0.001 C 
ATOM     21  C   UNL     1      45.194  15.401  20.061  0.00  0.00    +0.005 C 
ENDBRANCH  16  20
BRANCH  16  17
ATOM     17  C   UNL     1      46.651  14.942  17.953  0.00  0.00    +0.007 C 
BRANCH  17  18
ATOM     18  C   UNL     1      47.278  14.656  16.587  0.00  0.00    -0.005 C 
ATOM     19  C   UNL     1      48.634  13.974  16.782  0.00  0.00    +0.004 C 
ENDBRANCH  17  18
ENDBRANCH  16  17
ENDBRANCH  15  16
ENDBRANCH  14  15
ENDBRANCH  13  14
ENDBRANCH  12  13
ENDBRANCH  11  12
TORSDOF 17
ENDMDL
MODEL 8
REMARK VINA RESULT:      -4.0      1.349      7.514
REMARK  Name = ZINC82189149
REMARK  20 active torsions:
REMARK  status: ('A' for Active; 'I' for Inactive)
REMARK    1  A    between atoms: C1_1  and  C2_2
REMARK    2  A    between atoms: C2_2  and  C3_3
REMARK    3  A    between atoms: C3_3  and  C4_4
REMARK    4  A    between atoms: C4_4  and  C5_5
REMARK    5  A    between atoms: C5_5  and  C6_6
REMARK    6  A    between atoms: C6_6  and  C7_7
REMARK    7  A    between atoms: C7_7  and  C8_8
REMARK    8  A    between atoms: C8_8  and  C9_9
REMARK    9  A    between atoms: C9_9  and  C10_10
REMARK   10  A    between atoms: C10_10  and  C11_11
REMARK   11  A    between atoms: C11_11  and  C12_12
REMARK   12  A    between atoms: C12_12  and  C13_13
REMARK   13  A    between atoms: C13_13  and  C14_14
REMARK   14  A    between atoms: C14_14  and  C15_15
REMARK   15  A    between atoms: C15_15  and  C16_16
REMARK   16  A    between atoms: C16_16  and  C17_18
REMARK   17  A    between atoms: C16_16  and  C19_20
REMARK   18  A    between atoms: C17_18  and  C18_19
REMARK   19  A    between atoms: C19_20  and  C20_21
REMARK   20  A    between atoms: C20_21  and  C21_22
REMARK                            x       y       z     vdW  Elec       q    Type
REMARK                         _______ _______ _______ _____ _____    ______ ____
ROOT
ATOM     11  C   UNL     1      46.401  21.318  19.959  0.00  0.00    -0.000 C 
ENDROOT
BRANCH  11  10
ATOM     10  C   UNL     1      45.445  21.106  18.783  0.00  0.00    -0.000 C 
BRANCH  10   9
ATOM      9  C   UNL     1      44.622  19.837  19.017  0.00  0.00    +0.000 C 
BRANCH   9   8
ATOM      8  C   UNL     1      43.149  20.122  18.721  0.00  0.00    +0.000 C 
BRANCH   8   7
ATOM      7  C   UNL     1      42.304  19.757  19.942  0.00  0.00    +0.000 C 
BRANCH   7   6
ATOM      6  C   UNL     1      43.201  19.141  21.018  0.00  0.00    +0.000 C 
BRANCH   6   5
ATOM      5  C   UNL     1      42.415  18.081  21.792  0.00  0.00    +0.000 C 
BRANCH   5   4
ATOM      4  C   UNL     1      43.363  16.963  22.232  0.00  0.00    -0.000 C 
BRANCH   4   3
ATOM      3  C   UNL     1      44.687  17.090  21.477  0.00  0.00    -0.000 C 
BRANCH   3   2
ATOM      1  C   UNL     1      45.549  16.331  19.258  0.00  0.00    +0.006 C 
ATOM      2  C   UNL     1      44.865  15.885  20.553  0.00  0.00    -0.006 C 
ENDBRANCH   3   2
ENDBRANCH   4   3
ENDBRANCH   5   4
ENDBRANCH   6   5
ENDBRANCH   7   6
ENDBRANCH   8   7
ENDBRANCH   9   8
ENDBRANCH  10   9
ENDBRANCH  11  10
BRANCH  11  12
ATOM     12  C   UNL     1      46.783  19.961  20.556  0.00  0.00    -0.000 C 
BRANCH  12  13
ATOM     13  C   UNL     1      48.197  19.587  20.107  0.00  0.00    -0.001 C 
BRANCH  13  14
ATOM     14  C   UNL     1      49.074  20.840  20.089  0.00  0.00    +0.001 C 
BRANCH  14  15
ATOM     15  C   UNL     1      49.962  20.824  18.842  0.00  0.00    +0.007 C 
BRANCH  15  16
ATOM     16  C   UNL     1      51.327  20.231  19.196  0.00  0.00    -0.020 C 
BRANCH  16  20
ATOM     20  C   UNL     1      51.832  20.856  20.498  0.00  0.00    +0.001 C 
ATOM     21  C   UNL     1      52.778  22.013  20.174  0.00  0.00    +0.005 C 
ENDBRANCH  16  20
BRANCH  16  17
ATOM     17  C   UNL     1      52.319  20.529  18.069  0.00  0.00    +0.007 C 
BRANCH  17  18
ATOM     18  C   UNL     1      51.550  20.891  16.797  0.00  0.00    -0.005 C 
ATOM     19  C   UNL     1      51.962  19.946  15.666  0.00  0.00    +0.004 C 
ENDBRANCH  17  18
ENDBRANCH  16  17
ENDBRANCH  15  16
ENDBRANCH  14  15
ENDBRANCH  13  14
ENDBRANCH  12  13
ENDBRANCH  11  12
TORSDOF 17
ENDMDL
MODEL 9
REMARK VINA RESULT:      -4.0      1.289      7.308
REMARK  Name = ZINC82189149
REMARK  20 active torsions:
REMARK  status: ('A' for Active; 'I' for Inactive)
REMARK    1  A    between atoms: C1_1  and  C2_2
REMARK    2  A    between atoms: C2_2  and  C3_3
REMARK    3  A    between atoms: C3_3  and  C4_4
REMARK    4  A    between atoms: C4_4  and  C5_5
REMARK    5  A    between atoms: C5_5  and  C6_6
REMARK    6  A    between atoms: C6_6  and  C7_7
REMARK    7  A    between atoms: C7_7  and  C8_8
REMARK    8  A    between atoms: C8_8  and  C9_9
REMARK    9  A    between atoms: C9_9  and  C10_10
REMARK   10  A    between atoms: C10_10  and  C11_11
REMARK   11  A    between atoms: C11_11  and  C12_12
REMARK   12  A    between atoms: C12_12  and  C13_13
REMARK   13  A    between atoms: C13_13  and  C14_14
REMARK   14  A    between atoms: C14_14  and  C15_15
REMARK   15  A    between atoms: C15_15  and  C16_16
REMARK   16  A    between atoms: C16_16  and  C17_18
REMARK   17  A    between atoms: C16_16  and  C19_20
REMARK   18  A    between atoms: C17_18  and  C18_19
REMARK   19  A    between atoms: C19_20  and  C20_21
REMARK   20  A    between atoms: C20_21  and  C21_22
REMARK                            x       y       z     vdW  Elec       q    Type
REMARK                         _______ _______ _______ _____ _____    ______ ____
ROOT
ATOM     11  C   UNL     1      45.782  19.059  18.257  0.00  0.00    -0.000 C 
ENDROOT
BRANCH  11  10
ATOM     10  C   UNL     1      46.141  18.077  19.373  0.00  0.00    -0.000 C 
BRANCH  10   9
ATOM      9  C   UNL     1      45.133  16.925  19.382  0.00  0.00    +0.000 C 
BRANCH   9   8
ATOM      8  C   UNL     1      44.820  16.532  20.826  0.00  0.00    +0.000 C 
BRANCH   8   7
ATOM      7  C   UNL     1      44.843  17.780  21.710  0.00  0.00    +0.000 C 
BRANCH   7   6
ATOM      6  C   UNL     1      43.409  18.249  21.968  0.00  0.00    +0.000 C 
BRANCH   6   5
ATOM      5  C   UNL     1      43.132  19.514  21.153  0.00  0.00    +0.000 C 
BRANCH   5   4
ATOM      4  C   UNL     1      42.140  19.193  20.033  0.00  0.00    -0.000 C 
BRANCH   4   3
ATOM      3  C   UNL     1      42.301  20.209  18.901  0.00  0.00    -0.000 C 
BRANCH   3   2
ATOM      1  C   UNL     1      40.084  21.355  18.779  0.00  0.00    +0.006 C 
ATOM      2  C   UNL     1      40.990  20.313  18.119  0.00  0.00    -0.006 C 
ENDBRANCH   3   2
ENDBRANCH   4   3
ENDBRANCH   5   4
ENDBRANCH   6   5
ENDBRANCH   7   6
ENDBRANCH   8   7
ENDBRANCH   9   8
ENDBRANCH  10   9
ENDBRANCH  11  10
BRANCH  11  12
ATOM     12  C   UNL     1      46.201  20.473  18.668  0.00  0.00    -0.000 C 
BRANCH  12  13
ATOM     13  C   UNL     1      47.008  20.408  19.966  0.00  0.00    -0.001 C 
BRANCH  13  14
ATOM     14  C   UNL     1      48.437  20.883  19.702  0.00  0.00    +0.001 C 
BRANCH  14  15
ATOM     15  C   UNL     1      49.395  19.692  19.788  0.00  0.00    +0.007 C 
BRANCH  15  16
ATOM     16  C   UNL     1      49.995  19.419  18.407  0.00  0.00    -0.020 C 
BRANCH  16  20
ATOM     20  C   UNL     1      49.446  18.098  17.866  0.00  0.00    +0.001 C 
ATOM     21  C   UNL     1      50.516  17.410  17.017  0.00  0.00    +0.005 C 
ENDBRANCH  16  20
BRANCH  16  17
ATOM     17  C   UNL     1      51.518  19.329  18.522  0.00  0.00    +0.007 C 
BRANCH  17  18
ATOM     18  C   UNL     1      52.143  20.641  18.042  0.00  0.00    -0.005 C 
ATOM     19  C   UNL     1      51.400  21.135  16.800  0.00  0.00    +0.004 C 
ENDBRANCH  17  18
ENDBRANCH  16  17
ENDBRANCH  15  16
ENDBRANCH  14  15
ENDBRANCH  13  14
ENDBRANCH  12  13
ENDBRANCH  11  12
TORSDOF 17
ENDMDL
