MODEL 1
REMARK VINA RESULT:      -5.5      0.000      0.000
REMARK  Name = ZINC95486154
REMARK  7 active torsions:
REMARK  status: ('A' for Active; 'I' for Inactive)
REMARK    1  A    between atoms: C1_1  and  C2_2
REMARK    2  A    between atoms: C6_6  and  C18_22
REMARK    3  A    between atoms: C6_6  and  C19_23
REMARK    4  A    between atoms: C12_13  and  C13_15
REMARK    5  A    between atoms: C13_15  and  C14_16
REMARK    6  A    between atoms: C15_17  and  C16_18
REMARK    7  A    between atoms: C15_17  and  C17_20
REMARK                            x       y       z     vdW  Elec       q    Type
REMARK                         _______ _______ _______ _____ _____    ______ ____
ROOT
ATOM      1  C   UNL     1      46.071  18.874  18.088  0.00  0.00    +0.021 C 
ATOM      2  C   UNL     1      46.122  19.919  19.218  0.00  0.00    -0.035 C 
ATOM      3  C   UNL     1      47.314  20.847  18.970  0.00  0.00    +0.018 C 
ATOM      4  C   UNL     1      48.621  20.068  19.092  0.00  0.00    +0.004 C 
ATOM      5  C   UNL     1      48.737  19.483  20.496  0.00  0.00    +0.011 C 
ATOM      6  C   UNL     1      47.563  18.561  20.815  0.00  0.00    -0.053 C 
ATOM      7  C   UNL     1      47.691  17.254  20.026  0.00  0.00    +0.021 C 
ATOM      8  C   UNL     1      47.692  18.157  22.301  0.00  0.00    +0.013 C 
ATOM      9  C   UNL     1      44.833  20.736  19.039  0.00  0.00    +0.040 C 
ATOM     17  C   UNL     1      44.602  21.630  20.226  0.00  0.00    -0.114 C 
ATOM     18  C   UNL     1      44.354  22.908  20.088  0.00  0.00    +0.005 C 
ATOM     19  C   UNL     1      44.665  20.987  21.592  0.00  0.00    +0.050 C 
ATOM     20  C   UNL     1      46.018  20.278  21.711  0.00  0.00    +0.018 C 
ATOM     21  C   UNL     1      46.221  19.259  20.584  0.00  0.00    +0.020 C 
ENDROOT
BRANCH   9  10
ATOM     10  C   UNL     1      43.649  19.789  18.846  0.00  0.00    +0.069 C 
BRANCH  10  11
ATOM     11  C   UNL     1      42.383  20.593  18.693  0.00  0.00    +0.152 C 
ATOM     12  C   UNL     1      41.290  20.281  19.429  0.00  0.00    -0.319 C 
BRANCH  12  13
ATOM     13  C   UNL     1      41.376  19.244  20.470  0.00  0.00    +0.470 C 
ATOM     14  O   UNL     1      40.552  19.209  21.359  0.00  0.00    -0.432 OA
ENDBRANCH  12  13
BRANCH  12  15
ATOM     15  C   UNL     1      40.017  20.977  19.188  0.00  0.00    +0.476 C 
ATOM     16  O   UNL     1      39.667  21.226  18.054  0.00  0.00    -0.435 OA
ENDBRANCH  12  15
ENDBRANCH  10  11
ENDBRANCH   9  10
TORSDOF 4
ENDMDL
MODEL 2
REMARK VINA RESULT:      -5.3      2.842      5.401
REMARK  Name = ZINC95486154
REMARK  7 active torsions:
REMARK  status: ('A' for Active; 'I' for Inactive)
REMARK    1  A    between atoms: C1_1  and  C2_2
REMARK    2  A    between atoms: C6_6  and  C18_22
REMARK    3  A    between atoms: C6_6  and  C19_23
REMARK    4  A    between atoms: C12_13  and  C13_15
REMARK    5  A    between atoms: C13_15  and  C14_16
REMARK    6  A    between atoms: C15_17  and  C16_18
REMARK    7  A    between atoms: C15_17  and  C17_20
REMARK                            x       y       z     vdW  Elec       q    Type
REMARK                         _______ _______ _______ _____ _____    ______ ____
ROOT
ATOM      1  C   UNL     1      49.392  20.744  19.086  0.00  0.00    +0.021 C 
ATOM      2  C   UNL     1      49.795  19.267  18.920  0.00  0.00    -0.035 C 
ATOM      3  C   UNL     1      50.923  18.955  19.905  0.00  0.00    +0.018 C 
ATOM      4  C   UNL     1      52.175  19.750  19.539  0.00  0.00    +0.004 C 
ATOM      5  C   UNL     1      52.629  19.366  18.135  0.00  0.00    +0.011 C 
ATOM      6  C   UNL     1      51.536  19.634  17.103  0.00  0.00    -0.053 C 
ATOM      7  C   UNL     1      51.383  21.141  16.876  0.00  0.00    +0.021 C 
ATOM      8  C   UNL     1      52.034  19.064  15.754  0.00  0.00    +0.013 C 
ATOM      9  C   UNL     1      48.547  18.483  19.356  0.00  0.00    +0.040 C 
ATOM     17  C   UNL     1      48.685  17.027  19.002  0.00  0.00    -0.114 C 
ATOM     18  C   UNL     1      48.475  16.081  19.883  0.00  0.00    +0.005 C 
ATOM     19  C   UNL     1      49.075  16.700  17.579  0.00  0.00    +0.050 C 
ATOM     20  C   UNL     1      50.373  17.452  17.268  0.00  0.00    +0.018 C 
ATOM     21  C   UNL     1      50.218  18.961  17.492  0.00  0.00    +0.020 C 
ENDROOT
BRANCH   9  10
ATOM     10  C   UNL     1      47.308  19.078  18.689  0.00  0.00    +0.069 C 
BRANCH  10  11
ATOM     11  C   UNL     1      46.159  19.071  19.665  0.00  0.00    +0.152 C 
ATOM     12  C   UNL     1      45.386  20.174  19.808  0.00  0.00    -0.319 C 
BRANCH  12  13
ATOM     13  C   UNL     1      45.582  21.330  18.920  0.00  0.00    +0.470 C 
ATOM     14  O   UNL     1      45.118  22.410  19.220  0.00  0.00    -0.432 OA
ENDBRANCH  12  13
BRANCH  12  15
ATOM     15  C   UNL     1      44.350  20.215  20.850  0.00  0.00    +0.476 C 
ATOM     16  O   UNL     1      43.225  19.832  20.604  0.00  0.00    -0.435 OA
ENDBRANCH  12  15
ENDBRANCH  10  11
ENDBRANCH   9  10
TORSDOF 4
ENDMDL
MODEL 3
REMARK VINA RESULT:      -5.3      3.750      6.348
REMARK  Name = ZINC95486154
REMARK  7 active torsions:
REMARK  status: ('A' for Active; 'I' for Inactive)
REMARK    1  A    between atoms: C1_1  and  C2_2
REMARK    2  A    between atoms: C6_6  and  C18_22
REMARK    3  A    between atoms: C6_6  and  C19_23
REMARK    4  A    between atoms: C12_13  and  C13_15
REMARK    5  A    between atoms: C13_15  and  C14_16
REMARK    6  A    between atoms: C15_17  and  C16_18
REMARK    7  A    between atoms: C15_17  and  C17_20
REMARK                            x       y       z     vdW  Elec       q    Type
REMARK                         _______ _______ _______ _____ _____    ______ ____
ROOT
ATOM      1  C   UNL     1      45.511  20.958  20.409  0.00  0.00    +0.021 C 
ATOM      2  C   UNL     1      45.272  19.622  19.682  0.00  0.00    -0.035 C 
ATOM      3  C   UNL     1      44.134  19.811  18.676  0.00  0.00    +0.018 C 
ATOM      4  C   UNL     1      42.827  20.101  19.410  0.00  0.00    +0.004 C 
ATOM      5  C   UNL     1      42.486  18.929  20.324  0.00  0.00    +0.011 C 
ATOM      6  C   UNL     1      43.595  18.674  21.342  0.00  0.00    -0.053 C 
ATOM      7  C   UNL     1      43.601  19.779  22.402  0.00  0.00    +0.021 C 
ATOM      8  C   UNL     1      43.226  17.379  22.102  0.00  0.00    +0.013 C 
ATOM      9  C   UNL     1      46.571  19.380  18.897  0.00  0.00    +0.040 C 
ATOM     17  C   UNL     1      46.602  17.982  18.340  0.00  0.00    -0.114 C 
ATOM     18  C   UNL     1      46.865  17.749  17.079  0.00  0.00    +0.005 C 
ATOM     19  C   UNL     1      46.319  16.853  19.304  0.00  0.00    +0.050 C 
ATOM     20  C   UNL     1      44.967  17.136  19.967  0.00  0.00    +0.018 C 
ATOM     21  C   UNL     1      44.954  18.503  20.661  0.00  0.00    +0.020 C 
ENDROOT
BRANCH   9  10
ATOM     10  C   UNL     1      47.774  19.617  19.809  0.00  0.00    +0.069 C 
BRANCH  10  11
ATOM     11  C   UNL     1      48.724  20.582  19.148  0.00  0.00    +0.152 C 
ATOM     12  C   UNL     1      49.941  20.156  18.733  0.00  0.00    -0.319 C 
BRANCH  12  13
ATOM     13  C   UNL     1      50.286  18.728  18.808  0.00  0.00    +0.470 C 
ATOM     14  O   UNL     1      50.283  18.050  17.802  0.00  0.00    -0.432 OA
ENDBRANCH  12  13
BRANCH  12  15
ATOM     15  C   UNL     1      50.918  21.121  18.208  0.00  0.00    +0.476 C 
ATOM     16  O   UNL     1      51.095  21.217  17.011  0.00  0.00    -0.435 OA
ENDBRANCH  12  15
ENDBRANCH  10  11
ENDBRANCH   9  10
TORSDOF 4
ENDMDL
MODEL 4
REMARK VINA RESULT:      -5.2      3.455      5.844
REMARK  Name = ZINC95486154
REMARK  7 active torsions:
REMARK  status: ('A' for Active; 'I' for Inactive)
REMARK    1  A    between atoms: C1_1  and  C2_2
REMARK    2  A    between atoms: C6_6  and  C18_22
REMARK    3  A    between atoms: C6_6  and  C19_23
REMARK    4  A    between atoms: C12_13  and  C13_15
REMARK    5  A    between atoms: C13_15  and  C14_16
REMARK    6  A    between atoms: C15_17  and  C16_18
REMARK    7  A    between atoms: C15_17  and  C17_20
REMARK                            x       y       z     vdW  Elec       q    Type
REMARK                         _______ _______ _______ _____ _____    ______ ____
ROOT
ATOM      1  C   UNL     1      49.391  20.821  18.978  0.00  0.00    +0.021 C 
ATOM      2  C   UNL     1      49.999  19.407  18.933  0.00  0.00    -0.035 C 
ATOM      3  C   UNL     1      51.185  19.355  19.898  0.00  0.00    +0.018 C 
ATOM      4  C   UNL     1      52.299  20.280  19.412  0.00  0.00    +0.004 C 
ATOM      5  C   UNL     1      52.767  19.829  18.032  0.00  0.00    +0.011 C 
ATOM      6  C   UNL     1      51.621  19.838  17.023  0.00  0.00    -0.053 C 
ATOM      7  C   UNL     1      51.247  21.279  16.664  0.00  0.00    +0.021 C 
ATOM      8  C   UNL     1      52.162  19.216  15.715  0.00  0.00    +0.013 C 
ATOM      9  C   UNL     1      48.889  18.500  19.489  0.00  0.00    +0.040 C 
ATOM     17  C   UNL     1      49.227  17.051  19.266  0.00  0.00    -0.114 C 
ATOM     18  C   UNL     1      49.178  16.175  20.238  0.00  0.00    +0.005 C 
ATOM     19  C   UNL     1      49.624  16.646  17.865  0.00  0.00    +0.050 C 
ATOM     20  C   UNL     1      50.791  17.540  17.436  0.00  0.00    +0.018 C 
ATOM     21  C   UNL     1      50.425  19.026  17.525  0.00  0.00    +0.020 C 
ENDROOT
BRANCH   9  10
ATOM     10  C   UNL     1      47.560  18.846  18.819  0.00  0.00    +0.069 C 
BRANCH  10  11
ATOM     11  C   UNL     1      46.431  18.616  19.792  0.00  0.00    +0.152 C 
ATOM     12  C   UNL     1      45.535  17.627  19.567  0.00  0.00    -0.319 C 
BRANCH  12  13
ATOM     13  C   UNL     1      45.735  16.694  18.447  0.00  0.00    +0.470 C 
ATOM     14  O   UNL     1      45.953  15.522  18.667  0.00  0.00    -0.432 OA
ENDBRANCH  12  13
BRANCH  12  15
ATOM     15  C   UNL     1      44.362  17.484  20.442  0.00  0.00    +0.476 C 
ATOM     16  O   UNL     1      44.312  16.580  21.248  0.00  0.00    -0.435 OA
ENDBRANCH  12  15
ENDBRANCH  10  11
ENDBRANCH   9  10
TORSDOF 4
ENDMDL
MODEL 5
REMARK VINA RESULT:      -5.1      4.342      7.013
REMARK  Name = ZINC95486154
REMARK  7 active torsions:
REMARK  status: ('A' for Active; 'I' for Inactive)
REMARK    1  A    between atoms: C1_1  and  C2_2
REMARK    2  A    between atoms: C6_6  and  C18_22
REMARK    3  A    between atoms: C6_6  and  C19_23
REMARK    4  A    between atoms: C12_13  and  C13_15
REMARK    5  A    between atoms: C13_15  and  C14_16
REMARK    6  A    between atoms: C15_17  and  C16_18
REMARK    7  A    between atoms: C15_17  and  C17_20
REMARK                            x       y       z     vdW  Elec       q    Type
REMARK                         _______ _______ _______ _____ _____    ______ ____
ROOT
ATOM      1  C   UNL     1      46.536  20.157  18.648  0.00  0.00    +0.021 C 
ATOM      2  C   UNL     1      46.939  20.210  20.134  0.00  0.00    -0.035 C 
ATOM      3  C   UNL     1      46.252  19.057  20.868  0.00  0.00    +0.018 C 
ATOM      4  C   UNL     1      44.739  19.257  20.861  0.00  0.00    +0.004 C 
ATOM      5  C   UNL     1      44.395  20.564  21.570  0.00  0.00    +0.011 C 
ATOM      6  C   UNL     1      45.069  21.757  20.896  0.00  0.00    -0.053 C 
ATOM      7  C   UNL     1      44.394  22.055  19.554  0.00  0.00    +0.021 C 
ATOM      8  C   UNL     1      44.791  22.994  21.780  0.00  0.00    +0.013 C 
ATOM      9  C   UNL     1      48.452  19.940  20.125  0.00  0.00    +0.040 C 
ATOM     17  C   UNL     1      49.048  20.220  21.478  0.00  0.00    -0.114 C 
ATOM     18  C   UNL     1      49.814  19.350  22.087  0.00  0.00    +0.005 C 
ATOM     19  C   UNL     1      48.728  21.557  22.107  0.00  0.00    +0.050 C 
ATOM     20  C   UNL     1      47.203  21.694  22.155  0.00  0.00    +0.018 C 
ATOM     21  C   UNL     1      46.579  21.547  20.762  0.00  0.00    +0.020 C 
ENDROOT
BRANCH   9  10
ATOM     10  C   UNL     1      49.122  20.806  19.058  0.00  0.00    +0.069 C 
BRANCH  10  11
ATOM     11  C   UNL     1      50.181  20.001  18.350  0.00  0.00    +0.152 C 
ATOM     12  C   UNL     1      51.487  20.338  18.480  0.00  0.00    -0.319 C 
BRANCH  12  13
ATOM     13  C   UNL     1      51.882  21.405  19.413  0.00  0.00    +0.470 C 
ATOM     14  O   UNL     1      52.450  21.126  20.447  0.00  0.00    -0.432 OA
ENDBRANCH  12  13
BRANCH  12  15
ATOM     15  C   UNL     1      52.509  19.638  17.688  0.00  0.00    +0.476 C 
ATOM     16  O   UNL     1      52.438  19.628  16.477  0.00  0.00    -0.435 OA
ENDBRANCH  12  15
ENDBRANCH  10  11
ENDBRANCH   9  10
TORSDOF 4
ENDMDL
MODEL 6
REMARK VINA RESULT:      -4.8      3.491      5.781
REMARK  Name = ZINC95486154
REMARK  7 active torsions:
REMARK  status: ('A' for Active; 'I' for Inactive)
REMARK    1  A    between atoms: C1_1  and  C2_2
REMARK    2  A    between atoms: C6_6  and  C18_22
REMARK    3  A    between atoms: C6_6  and  C19_23
REMARK    4  A    between atoms: C12_13  and  C13_15
REMARK    5  A    between atoms: C13_15  and  C14_16
REMARK    6  A    between atoms: C15_17  and  C16_18
REMARK    7  A    between atoms: C15_17  and  C17_20
REMARK                            x       y       z     vdW  Elec       q    Type
REMARK                         _______ _______ _______ _____ _____    ______ ____
ROOT
ATOM      1  C   UNL     1      49.070  20.406  18.456  0.00  0.00    +0.021 C 
ATOM      2  C   UNL     1      50.460  20.322  19.114  0.00  0.00    -0.035 C 
ATOM      3  C   UNL     1      51.426  21.215  18.331  0.00  0.00    +0.018 C 
ATOM      4  C   UNL     1      51.622  20.665  16.920  0.00  0.00    +0.004 C 
ATOM      5  C   UNL     1      52.206  19.259  16.998  0.00  0.00    +0.011 C 
ATOM      6  C   UNL     1      51.298  18.320  17.788  0.00  0.00    -0.053 C 
ATOM      7  C   UNL     1      50.046  17.988  16.971  0.00  0.00    +0.021 C 
ATOM      8  C   UNL     1      52.053  16.980  17.944  0.00  0.00    +0.013 C 
ATOM      9  C   UNL     1      50.258  20.940  20.507  0.00  0.00    +0.040 C 
ATOM     17  C   UNL     1      51.461  20.693  21.376  0.00  0.00    -0.114 C 
ATOM     18  C   UNL     1      52.051  21.664  22.027  0.00  0.00    +0.005 C 
ATOM     19  C   UNL     1      51.961  19.270  21.469  0.00  0.00    +0.050 C 
ATOM     20  C   UNL     1      52.220  18.775  20.042  0.00  0.00    +0.018 C 
ATOM     21  C   UNL     1      50.966  18.889  19.169  0.00  0.00    +0.020 C 
ENDROOT
BRANCH   9  10
ATOM     10  C   UNL     1      49.005  20.351  21.152  0.00  0.00    +0.069 C 
BRANCH  10  11
ATOM     11  C   UNL     1      48.157  21.465  21.713  0.00  0.00    +0.152 C 
ATOM     12  C   UNL     1      46.821  21.476  21.494  0.00  0.00    -0.319 C 
BRANCH  12  13
ATOM     13  C   UNL     1      46.177  20.336  20.822  0.00  0.00    +0.470 C 
ATOM     14  O   UNL     1      45.706  20.473  19.713  0.00  0.00    -0.432 OA
ENDBRANCH  12  13
BRANCH  12  15
ATOM     15  C   UNL     1      46.014  22.625  21.926  0.00  0.00    +0.476 C 
ATOM     16  O   UNL     1      45.786  23.533  21.154  0.00  0.00    -0.435 OA
ENDBRANCH  12  15
ENDBRANCH  10  11
ENDBRANCH   9  10
TORSDOF 4
ENDMDL
MODEL 7
REMARK VINA RESULT:      -4.8      5.135      6.954
REMARK  Name = ZINC95486154
REMARK  7 active torsions:
REMARK  status: ('A' for Active; 'I' for Inactive)
REMARK    1  A    between atoms: C1_1  and  C2_2
REMARK    2  A    between atoms: C6_6  and  C18_22
REMARK    3  A    between atoms: C6_6  and  C19_23
REMARK    4  A    between atoms: C12_13  and  C13_15
REMARK    5  A    between atoms: C13_15  and  C14_16
REMARK    6  A    between atoms: C15_17  and  C16_18
REMARK    7  A    between atoms: C15_17  and  C17_20
REMARK                            x       y       z     vdW  Elec       q    Type
REMARK                         _______ _______ _______ _____ _____    ______ ____
ROOT
ATOM      1  C   UNL     1      49.144  19.676  19.138  0.00  0.00    +0.021 C 
ATOM      2  C   UNL     1      50.198  18.599  18.819  0.00  0.00    -0.035 C 
ATOM      3  C   UNL     1      51.321  18.695  19.854  0.00  0.00    +0.018 C 
ATOM      4  C   UNL     1      52.057  20.025  19.709  0.00  0.00    +0.004 C 
ATOM      5  C   UNL     1      52.665  20.121  18.313  0.00  0.00    +0.011 C 
ATOM      6  C   UNL     1      51.595  20.010  17.230  0.00  0.00    -0.053 C 
ATOM      7  C   UNL     1      50.755  21.290  17.188  0.00  0.00    +0.021 C 
ATOM      8  C   UNL     1      52.328  19.955  15.870  0.00  0.00    +0.013 C 
ATOM      9  C   UNL     1      49.459  17.269  19.036  0.00  0.00    +0.040 C 
ATOM     17  C   UNL     1      50.273  16.118  18.510  0.00  0.00    -0.114 C 
ATOM     18  C   UNL     1      50.517  15.058  19.238  0.00  0.00    +0.005 C 
ATOM     19  C   UNL     1      50.798  16.237  17.098  0.00  0.00    +0.050 C 
ATOM     20  C   UNL     1      51.594  17.543  17.006  0.00  0.00    +0.018 C 
ATOM     21  C   UNL     1      50.743  18.752  17.408  0.00  0.00    +0.020 C 
ENDROOT
BRANCH   9  10
ATOM     10  C   UNL     1      48.098  17.320  18.342  0.00  0.00    +0.069 C 
BRANCH  10  11
ATOM     11  C   UNL     1      47.112  16.473  19.106  0.00  0.00    +0.152 C 
ATOM     12  C   UNL     1      46.620  15.340  18.551  0.00  0.00    -0.319 C 
BRANCH  12  13
ATOM     13  C   UNL     1      47.144  14.866  17.260  0.00  0.00    +0.470 C 
ATOM     14  O   UNL     1      46.517  15.069  16.242  0.00  0.00    -0.432 OA
ENDBRANCH  12  13
BRANCH  12  15
ATOM     15  C   UNL     1      45.563  14.584  19.238  0.00  0.00    +0.476 C 
ATOM     16  O   UNL     1      45.502  13.378  19.116  0.00  0.00    -0.435 OA
ENDBRANCH  12  15
ENDBRANCH  10  11
ENDBRANCH   9  10
TORSDOF 4
ENDMDL
MODEL 8
REMARK VINA RESULT:      -4.7      3.540      5.677
REMARK  Name = ZINC95486154
REMARK  7 active torsions:
REMARK  status: ('A' for Active; 'I' for Inactive)
REMARK    1  A    between atoms: C1_1  and  C2_2
REMARK    2  A    between atoms: C6_6  and  C18_22
REMARK    3  A    between atoms: C6_6  and  C19_23
REMARK    4  A    between atoms: C12_13  and  C13_15
REMARK    5  A    between atoms: C13_15  and  C14_16
REMARK    6  A    between atoms: C15_17  and  C16_18
REMARK    7  A    between atoms: C15_17  and  C17_20
REMARK                            x       y       z     vdW  Elec       q    Type
REMARK                         _______ _______ _______ _____ _____    ______ ____
ROOT
ATOM      1  C   UNL     1      45.037  18.797  18.230  0.00  0.00    +0.021 C 
ATOM      2  C   UNL     1      44.626  18.914  19.710  0.00  0.00    -0.035 C 
ATOM      3  C   UNL     1      43.203  19.472  19.777  0.00  0.00    +0.018 C 
ATOM      4  C   UNL     1      43.174  20.903  19.244  0.00  0.00    +0.004 C 
ATOM      5  C   UNL     1      44.088  21.781  20.093  0.00  0.00    +0.011 C 
ATOM      6  C   UNL     1      45.524  21.263  20.085  0.00  0.00    -0.053 C 
ATOM      7  C   UNL     1      46.172  21.531  18.724  0.00  0.00    +0.021 C 
ATOM      8  C   UNL     1      46.322  22.120  21.095  0.00  0.00    +0.013 C 
ATOM      9  C   UNL     1      44.595  17.461  20.211  0.00  0.00    +0.040 C 
ATOM     17  C   UNL     1      44.466  17.419  21.709  0.00  0.00    -0.114 C 
ATOM     18  C   UNL     1      43.557  16.688  22.302  0.00  0.00    +0.005 C 
ATOM     19  C   UNL     1      45.438  18.259  22.505  0.00  0.00    +0.050 C 
ATOM     20  C   UNL     1      45.331  19.701  21.998  0.00  0.00    +0.018 C 
ATOM     21  C   UNL     1      45.592  19.790  20.491  0.00  0.00    +0.020 C 
ENDROOT
BRANCH   9  10
ATOM     10  C   UNL     1      45.865  16.738  19.764  0.00  0.00    +0.069 C 
BRANCH  10  11
ATOM     11  C   UNL     1      45.524  15.323  19.369  0.00  0.00    +0.152 C 
ATOM     12  C   UNL     1      46.281  14.677  18.450  0.00  0.00    -0.319 C 
BRANCH  12  13
ATOM     13  C   UNL     1      47.509  15.304  17.935  0.00  0.00    +0.470 C 
ATOM     14  O   UNL     1      48.591  14.948  18.352  0.00  0.00    -0.432 OA
ENDBRANCH  12  13
BRANCH  12  15
ATOM     15  C   UNL     1      45.876  13.348  17.967  0.00  0.00    +0.476 C 
ATOM     16  O   UNL     1      44.937  12.776  18.480  0.00  0.00    -0.435 OA
ENDBRANCH  12  15
ENDBRANCH  10  11
ENDBRANCH   9  10
TORSDOF 4
ENDMDL
MODEL 9
REMARK VINA RESULT:      -4.6      3.853      6.532
REMARK  Name = ZINC95486154
REMARK  7 active torsions:
REMARK  status: ('A' for Active; 'I' for Inactive)
REMARK    1  A    between atoms: C1_1  and  C2_2
REMARK    2  A    between atoms: C6_6  and  C18_22
REMARK    3  A    between atoms: C6_6  and  C19_23
REMARK    4  A    between atoms: C12_13  and  C13_15
REMARK    5  A    between atoms: C13_15  and  C14_16
REMARK    6  A    between atoms: C15_17  and  C16_18
REMARK    7  A    between atoms: C15_17  and  C17_20
REMARK                            x       y       z     vdW  Elec       q    Type
REMARK                         _______ _______ _______ _____ _____    ______ ____
ROOT
ATOM      1  C   UNL     1      44.213  16.913  21.521  0.00  0.00    +0.021 C 
ATOM      2  C   UNL     1      45.064  17.831  20.624  0.00  0.00    -0.035 C 
ATOM      3  C   UNL     1      45.771  18.860  21.509  0.00  0.00    +0.018 C 
ATOM      4  C   UNL     1      44.746  19.784  22.162  0.00  0.00    +0.004 C 
ATOM      5  C   UNL     1      43.964  20.522  21.080  0.00  0.00    +0.011 C 
ATOM      6  C   UNL     1      43.249  19.548  20.147  0.00  0.00    -0.053 C 
ATOM      7  C   UNL     1      42.063  18.902  20.868  0.00  0.00    +0.021 C 
ATOM      8  C   UNL     1      42.629  20.385  19.005  0.00  0.00    +0.013 C 
ATOM      9  C   UNL     1      46.130  16.898  20.028  0.00  0.00    +0.040 C 
ATOM     17  C   UNL     1      46.880  17.587  18.921  0.00  0.00    -0.114 C 
ATOM     18  C   UNL     1      48.189  17.614  18.889  0.00  0.00    +0.005 C 
ATOM     19  C   UNL     1      46.056  18.248  17.840  0.00  0.00    +0.050 C 
ATOM     20  C   UNL     1      45.091  19.223  18.522  0.00  0.00    +0.018 C 
ATOM     21  C   UNL     1      44.216  18.516  19.563  0.00  0.00    +0.020 C 
ENDROOT
BRANCH   9  10
ATOM     10  C   UNL     1      45.463  15.625  19.507  0.00  0.00    +0.069 C 
BRANCH  10  11
ATOM     11  C   UNL     1      46.394  14.454  19.701  0.00  0.00    +0.152 C 
ATOM     12  C   UNL     1      46.870  13.784  18.625  0.00  0.00    -0.319 C 
BRANCH  12  13
ATOM     13  C   UNL     1      46.587  14.275  17.267  0.00  0.00    +0.470 C 
ATOM     14  O   UNL     1      47.461  14.819  16.626  0.00  0.00    -0.432 OA
ENDBRANCH  12  13
BRANCH  12  15
ATOM     15  C   UNL     1      47.671  12.565  18.814  0.00  0.00    +0.476 C 
ATOM     16  O   UNL     1      47.608  11.666  18.003  0.00  0.00    -0.435 OA
ENDBRANCH  12  15
ENDBRANCH  10  11
ENDBRANCH   9  10
TORSDOF 4
ENDMDL
