MODEL 1
REMARK VINA RESULT:      -6.4      0.000      0.000
REMARK  Name = ZINC95486266
REMARK  6 active torsions:
REMARK  status: ('A' for Active; 'I' for Inactive)
REMARK    1  A    between atoms: C1_1  and  O1_2
REMARK    2  A    between atoms: O1_2  and  C2_3
REMARK    3  A    between atoms: C5_6  and  C8_9
REMARK    4  A    between atoms: C8_9  and  O6_22
REMARK    5  A    between atoms: C12_14  and  O5_21
REMARK    6  A    between atoms: C14_16  and  O4_20
REMARK                            x       y       z     vdW  Elec       q    Type
REMARK                         _______ _______ _______ _____ _____    ______ ____
ROOT
ATOM      7  C   UNL     1      44.550  19.303  21.056  0.00  0.00    +0.116 C 
ATOM     10  C   UNL     1      43.251  18.644  21.545  0.00  0.00    +0.260 C 
ATOM     11  O   UNL     1      42.292  18.653  20.489  0.00  0.00    -0.288 OA
ATOM     12  C   UNL     1      42.016  19.826  19.872  0.00  0.00    +0.208 A 
ATOM     13  C   UNL     1      40.815  19.989  19.203  0.00  0.00    -0.049 A 
ATOM     14  C   UNL     1      40.529  21.188  18.563  0.00  0.00    +0.201 A 
ATOM     17  C   UNL     1      41.441  22.237  18.582  0.00  0.00    -0.071 A 
ATOM     18  C   UNL     1      42.646  22.096  19.246  0.00  0.00    +0.224 A 
ATOM     21  C   UNL     1      42.937  20.888  19.899  0.00  0.00    -0.296 A 
ATOM     22  C   UNL     1      44.201  20.716  20.625  0.00  0.00    +0.380 C 
ATOM     23  O   UNL     1      44.931  21.655  20.868  0.00  0.00    -0.410 OA
ENDROOT
BRANCH   7   6
ATOM      3  C   UNL     1      46.133  17.118  17.742  0.00  0.00    +0.140 A 
ATOM      4  C   UNL     1      45.624  16.441  18.841  0.00  0.00    -0.078 A 
ATOM      5  C   UNL     1      45.113  17.149  19.912  0.00  0.00    +0.097 A 
ATOM      6  C   UNL     1      45.108  18.533  19.888  0.00  0.00    -0.122 A 
ATOM     24  C   UNL     1      45.614  19.209  18.793  0.00  0.00    +0.065 A 
ATOM     25  C   UNL     1      46.132  18.505  17.723  0.00  0.00    -0.013 A 
BRANCH   3   2
ATOM      1  C   UNL     1      46.892  15.032  16.891  0.00  0.00    +0.243 C 
ATOM      2  O   UNL     1      46.637  16.423  16.689  0.00  0.00    -0.315 OA
ENDBRANCH   3   2
ENDBRANCH   7   6
BRANCH   7   8
ATOM      8  O   UNL     1      45.507  19.340  22.117  0.00  0.00    -0.520 OA
ATOM      9  H   UNL     1      46.425  19.260  21.822  0.00  0.00    +0.387 HD
ENDBRANCH   7   8
BRANCH  14  15
ATOM     15  O   UNL     1      39.348  21.337  17.911  0.00  0.00    -0.489 OA
ATOM     16  H   UNL     1      39.429  21.340  16.947  0.00  0.00    +0.404 HD
ENDBRANCH  14  15
BRANCH  18  19
ATOM     19  O   UNL     1      43.539  23.117  19.265  0.00  0.00    -0.477 OA
ATOM     20  H   UNL     1      43.625  23.548  20.126  0.00  0.00    +0.404 HD
ENDBRANCH  18  19
TORSDOF 5
ENDMDL
MODEL 2
REMARK VINA RESULT:      -5.8      1.255      5.788
REMARK  Name = ZINC95486266
REMARK  6 active torsions:
REMARK  status: ('A' for Active; 'I' for Inactive)
REMARK    1  A    between atoms: C1_1  and  O1_2
REMARK    2  A    between atoms: O1_2  and  C2_3
REMARK    3  A    between atoms: C5_6  and  C8_9
REMARK    4  A    between atoms: C8_9  and  O6_22
REMARK    5  A    between atoms: C12_14  and  O5_21
REMARK    6  A    between atoms: C14_16  and  O4_20
REMARK                            x       y       z     vdW  Elec       q    Type
REMARK                         _______ _______ _______ _____ _____    ______ ____
ROOT
ATOM      7  C   UNL     1      44.383  20.312  20.795  0.00  0.00    +0.116 C 
ATOM     10  C   UNL     1      45.560  20.949  20.040  0.00  0.00    +0.260 C 
ATOM     11  O   UNL     1      45.682  20.340  18.755  0.00  0.00    -0.288 OA
ATOM     12  C   UNL     1      45.755  18.990  18.680  0.00  0.00    +0.208 A 
ATOM     13  C   UNL     1      46.324  18.390  17.570  0.00  0.00    -0.049 A 
ATOM     14  C   UNL     1      46.396  17.006  17.485  0.00  0.00    +0.201 A 
ATOM     17  C   UNL     1      45.898  16.206  18.506  0.00  0.00    -0.071 A 
ATOM     18  C   UNL     1      45.327  16.784  19.625  0.00  0.00    +0.224 A 
ATOM     21  C   UNL     1      45.256  18.184  19.719  0.00  0.00    -0.296 A 
ATOM     22  C   UNL     1      44.670  18.826  20.901  0.00  0.00    +0.380 C 
ATOM     23  O   UNL     1      44.426  18.200  21.912  0.00  0.00    -0.410 OA
ENDROOT
BRANCH   7   6
ATOM      3  C   UNL     1      40.754  20.944  18.628  0.00  0.00    +0.140 A 
ATOM      4  C   UNL     1      41.023  19.703  19.187  0.00  0.00    -0.078 A 
ATOM      5  C   UNL     1      42.197  19.500  19.886  0.00  0.00    +0.097 A 
ATOM      6  C   UNL     1      43.104  20.535  20.031  0.00  0.00    -0.122 A 
ATOM     24  C   UNL     1      42.837  21.773  19.476  0.00  0.00    +0.065 A 
ATOM     25  C   UNL     1      41.667  21.978  18.770  0.00  0.00    -0.013 A 
BRANCH   3   2
ATOM      1  C   UNL     1      38.473  21.612  18.681  0.00  0.00    +0.243 C 
ATOM      2  O   UNL     1      39.600  21.144  17.939  0.00  0.00    -0.315 OA
ENDBRANCH   3   2
ENDBRANCH   7   6
BRANCH   7   8
ATOM      8  O   UNL     1      44.276  20.882  22.101  0.00  0.00    -0.520 OA
ATOM      9  H   UNL     1      43.728  21.678  22.140  0.00  0.00    +0.387 HD
ENDBRANCH   7   8
BRANCH  14  15
ATOM     15  O   UNL     1      46.957  16.429  16.392  0.00  0.00    -0.489 OA
ATOM     16  H   UNL     1      46.504  15.629  16.094  0.00  0.00    +0.404 HD
ENDBRANCH  14  15
BRANCH  18  19
ATOM     19  O   UNL     1      44.837  16.007  20.622  0.00  0.00    -0.477 OA
ATOM     20  H   UNL     1      44.140  16.428  21.143  0.00  0.00    +0.404 HD
ENDBRANCH  18  19
TORSDOF 5
ENDMDL
MODEL 3
REMARK VINA RESULT:      -5.6      4.243      7.444
REMARK  Name = ZINC95486266
REMARK  6 active torsions:
REMARK  status: ('A' for Active; 'I' for Inactive)
REMARK    1  A    between atoms: C1_1  and  O1_2
REMARK    2  A    between atoms: O1_2  and  C2_3
REMARK    3  A    between atoms: C5_6  and  C8_9
REMARK    4  A    between atoms: C8_9  and  O6_22
REMARK    5  A    between atoms: C12_14  and  O5_21
REMARK    6  A    between atoms: C14_16  and  O4_20
REMARK                            x       y       z     vdW  Elec       q    Type
REMARK                         _______ _______ _______ _____ _____    ______ ____
ROOT
ATOM      7  C   UNL     1      49.123  18.388  20.196  0.00  0.00    +0.116 C 
ATOM     10  C   UNL     1      49.811  19.640  20.761  0.00  0.00    +0.260 C 
ATOM     11  O   UNL     1      49.953  20.609  19.722  0.00  0.00    -0.288 OA
ATOM     12  C   UNL     1      50.542  20.236  18.561  0.00  0.00    +0.208 A 
ATOM     13  C   UNL     1      51.113  21.192  17.739  0.00  0.00    -0.049 A 
ATOM     14  C   UNL     1      51.713  20.817  16.544  0.00  0.00    +0.201 A 
ATOM     17  C   UNL     1      51.747  19.482  16.157  0.00  0.00    -0.071 A 
ATOM     18  C   UNL     1      51.184  18.511  16.964  0.00  0.00    +0.224 A 
ATOM     21  C   UNL     1      50.581  18.885  18.176  0.00  0.00    -0.296 A 
ATOM     22  C   UNL     1      49.989  17.874  19.060  0.00  0.00    +0.380 C 
ATOM     23  O   UNL     1      50.182  16.687  18.892  0.00  0.00    -0.410 OA
ENDROOT
BRANCH   7   6
ATOM      3  C   UNL     1      45.241  19.401  18.724  0.00  0.00    +0.140 A 
ATOM      4  C   UNL     1      45.670  19.892  19.948  0.00  0.00    -0.078 A 
ATOM      5  C   UNL     1      46.924  19.563  20.423  0.00  0.00    +0.097 A 
ATOM      6  C   UNL     1      47.754  18.745  19.677  0.00  0.00    -0.122 A 
ATOM     24  C   UNL     1      47.329  18.255  18.456  0.00  0.00    +0.065 A 
ATOM     25  C   UNL     1      46.072  18.576  17.980  0.00  0.00    -0.013 A 
BRANCH   3   2
ATOM      1  C   UNL     1      43.158  20.474  19.127  0.00  0.00    +0.243 C 
ATOM      2  O   UNL     1      44.006  19.723  18.256  0.00  0.00    -0.315 OA
ENDBRANCH   3   2
ENDBRANCH   7   6
BRANCH   7   8
ATOM      8  O   UNL     1      49.013  17.391  21.214  0.00  0.00    -0.520 OA
ATOM      9  H   UNL     1      48.837  16.502  20.876  0.00  0.00    +0.387 HD
ENDBRANCH   7   8
BRANCH  14  15
ATOM     15  O   UNL     1      52.271  21.762  15.747  0.00  0.00    -0.489 OA
ATOM     16  H   UNL     1      53.098  22.128  16.090  0.00  0.00    +0.404 HD
ENDBRANCH  14  15
BRANCH  18  19
ATOM     19  O   UNL     1      51.212  17.208  16.588  0.00  0.00    -0.477 OA
ATOM     20  H   UNL     1      51.479  17.071  15.668  0.00  0.00    +0.404 HD
ENDBRANCH  18  19
TORSDOF 5
ENDMDL
MODEL 4
REMARK VINA RESULT:      -5.5      1.486      5.866
REMARK  Name = ZINC95486266
REMARK  6 active torsions:
REMARK  status: ('A' for Active; 'I' for Inactive)
REMARK    1  A    between atoms: C1_1  and  O1_2
REMARK    2  A    between atoms: O1_2  and  C2_3
REMARK    3  A    between atoms: C5_6  and  C8_9
REMARK    4  A    between atoms: C8_9  and  O6_22
REMARK    5  A    between atoms: C12_14  and  O5_21
REMARK    6  A    between atoms: C14_16  and  O4_20
REMARK                            x       y       z     vdW  Elec       q    Type
REMARK                         _______ _______ _______ _____ _____    ______ ____
ROOT
ATOM      7  C   UNL     1      45.235  19.799  21.100  0.00  0.00    +0.116 C 
ATOM     10  C   UNL     1      46.536  20.268  20.432  0.00  0.00    +0.260 C 
ATOM     11  O   UNL     1      46.553  19.829  19.074  0.00  0.00    -0.288 OA
ATOM     12  C   UNL     1      46.340  18.518  18.812  0.00  0.00    +0.208 A 
ATOM     13  C   UNL     1      46.793  17.968  17.625  0.00  0.00    -0.049 A 
ATOM     14  C   UNL     1      46.573  16.625  17.348  0.00  0.00    +0.201 A 
ATOM     17  C   UNL     1      45.894  15.817  18.253  0.00  0.00    -0.071 A 
ATOM     18  C   UNL     1      45.435  16.345  19.446  0.00  0.00    +0.224 A 
ATOM     21  C   UNL     1      45.660  17.701  19.733  0.00  0.00    -0.296 A 
ATOM     22  C   UNL     1      45.198  18.285  20.997  0.00  0.00    +0.380 C 
ATOM     23  O   UNL     1      44.805  17.592  21.914  0.00  0.00    -0.410 OA
ENDROOT
BRANCH   7   6
ATOM      3  C   UNL     1      41.870  21.479  19.071  0.00  0.00    +0.140 A 
ATOM      4  C   UNL     1      42.970  22.271  19.366  0.00  0.00    -0.078 A 
ATOM      5  C   UNL     1      44.056  21.726  20.023  0.00  0.00    +0.097 A 
ATOM      6  C   UNL     1      44.048  20.391  20.385  0.00  0.00    -0.122 A 
ATOM     24  C   UNL     1      42.953  19.600  20.091  0.00  0.00    +0.065 A 
ATOM     25  C   UNL     1      41.861  20.142  19.440  0.00  0.00    -0.013 A 
BRANCH   3   2
ATOM      1  C   UNL     1      39.579  21.272  18.468  0.00  0.00    +0.243 C 
ATOM      2  O   UNL     1      40.800  22.014  18.427  0.00  0.00    -0.315 OA
ENDBRANCH   3   2
ENDBRANCH   7   6
BRANCH   7   8
ATOM      8  O   UNL     1      45.222  20.193  22.474  0.00  0.00    -0.520 OA
ATOM      9  H   UNL     1      45.850  19.710  23.028  0.00  0.00    +0.387 HD
ENDBRANCH   7   8
BRANCH  14  15
ATOM     15  O   UNL     1      47.022  16.097  16.182  0.00  0.00    -0.489 OA
ATOM     16  H   UNL     1      46.976  15.132  16.144  0.00  0.00    +0.404 HD
ENDBRANCH  14  15
BRANCH  18  19
ATOM     19  O   UNL     1      44.770  15.560  20.330  0.00  0.00    -0.477 OA
ATOM     20  H   UNL     1      44.172  14.922  19.916  0.00  0.00    +0.404 HD
ENDBRANCH  18  19
TORSDOF 5
ENDMDL
MODEL 5
REMARK VINA RESULT:      -5.2      1.715      2.597
REMARK  Name = ZINC95486266
REMARK  6 active torsions:
REMARK  status: ('A' for Active; 'I' for Inactive)
REMARK    1  A    between atoms: C1_1  and  O1_2
REMARK    2  A    between atoms: O1_2  and  C2_3
REMARK    3  A    between atoms: C5_6  and  C8_9
REMARK    4  A    between atoms: C8_9  and  O6_22
REMARK    5  A    between atoms: C12_14  and  O5_21
REMARK    6  A    between atoms: C14_16  and  O4_20
REMARK                            x       y       z     vdW  Elec       q    Type
REMARK                         _______ _______ _______ _____ _____    ______ ____
ROOT
ATOM      7  C   UNL     1      46.293  19.705  20.181  0.00  0.00    +0.116 C 
ATOM     10  C   UNL     1      46.047  19.522  21.687  0.00  0.00    +0.260 C 
ATOM     11  O   UNL     1      44.918  18.671  21.880  0.00  0.00    -0.288 OA
ATOM     12  C   UNL     1      43.758  18.977  21.252  0.00  0.00    +0.208 A 
ATOM     13  C   UNL     1      42.558  18.495  21.745  0.00  0.00    -0.049 A 
ATOM     14  C   UNL     1      41.366  18.801  21.102  0.00  0.00    +0.201 A 
ATOM     17  C   UNL     1      41.360  19.589  19.957  0.00  0.00    -0.071 A 
ATOM     18  C   UNL     1      42.548  20.082  19.448  0.00  0.00    +0.224 A 
ATOM     21  C   UNL     1      43.755  19.781  20.098  0.00  0.00    -0.296 A 
ATOM     22  C   UNL     1      45.029  20.303  19.590  0.00  0.00    +0.380 C 
ATOM     23  O   UNL     1      45.070  21.169  18.740  0.00  0.00    -0.410 OA
ENDROOT
BRANCH   7   6
ATOM      3  C   UNL     1      47.099  15.921  18.367  0.00  0.00    +0.140 A 
ATOM      4  C   UNL     1      46.233  16.815  17.754  0.00  0.00    -0.078 A 
ATOM      5  C   UNL     1      45.973  18.037  18.342  0.00  0.00    +0.097 A 
ATOM      6  C   UNL     1      46.577  18.371  19.542  0.00  0.00    -0.122 A 
ATOM     24  C   UNL     1      47.440  17.481  20.153  0.00  0.00    +0.065 A 
ATOM     25  C   UNL     1      47.698  16.255  19.572  0.00  0.00    -0.013 A 
BRANCH   3   2
ATOM      1  C   UNL     1      46.938  14.546  16.433  0.00  0.00    +0.243 C 
ATOM      2  O   UNL     1      47.354  14.717  17.790  0.00  0.00    -0.315 OA
ENDBRANCH   3   2
ENDBRANCH   7   6
BRANCH   7   8
ATOM      8  O   UNL     1      47.395  20.590  19.971  0.00  0.00    -0.520 OA
ATOM      9  H   UNL     1      48.237  20.258  20.308  0.00  0.00    +0.387 HD
ENDBRANCH   7   8
BRANCH  14  15
ATOM     15  O   UNL     1      40.195  18.324  21.595  0.00  0.00    -0.489 OA
ATOM     16  H   UNL     1      39.410  18.681  21.158  0.00  0.00    +0.404 HD
ENDBRANCH  14  15
BRANCH  18  19
ATOM     19  O   UNL     1      42.546  20.850  18.330  0.00  0.00    -0.477 OA
ATOM     20  H   UNL     1      43.003  20.449  17.578  0.00  0.00    +0.404 HD
ENDBRANCH  18  19
TORSDOF 5
ENDMDL
MODEL 6
REMARK VINA RESULT:      -4.8      2.586      6.511
REMARK  Name = ZINC95486266
REMARK  6 active torsions:
REMARK  status: ('A' for Active; 'I' for Inactive)
REMARK    1  A    between atoms: C1_1  and  O1_2
REMARK    2  A    between atoms: O1_2  and  C2_3
REMARK    3  A    between atoms: C5_6  and  C8_9
REMARK    4  A    between atoms: C8_9  and  O6_22
REMARK    5  A    between atoms: C12_14  and  O5_21
REMARK    6  A    between atoms: C14_16  and  O4_20
REMARK                            x       y       z     vdW  Elec       q    Type
REMARK                         _______ _______ _______ _____ _____    ______ ____
ROOT
ATOM      7  C   UNL     1      45.588  16.631  19.894  0.00  0.00    +0.116 C 
ATOM     10  C   UNL     1      46.399  16.689  21.198  0.00  0.00    +0.260 C 
ATOM     11  O   UNL     1      47.266  17.821  21.164  0.00  0.00    -0.288 OA
ATOM     12  C   UNL     1      48.085  17.981  20.098  0.00  0.00    +0.208 A 
ATOM     13  C   UNL     1      49.230  18.750  20.215  0.00  0.00    -0.049 A 
ATOM     14  C   UNL     1      50.071  18.923  19.123  0.00  0.00    +0.201 A 
ATOM     17  C   UNL     1      49.776  18.330  17.901  0.00  0.00    -0.071 A 
ATOM     18  C   UNL     1      48.639  17.555  17.762  0.00  0.00    +0.224 A 
ATOM     21  C   UNL     1      47.788  17.373  18.864  0.00  0.00    -0.296 A 
ATOM     22  C   UNL     1      46.583  16.544  18.751  0.00  0.00    +0.380 C 
ATOM     23  O   UNL     1      46.391  15.825  17.791  0.00  0.00    -0.410 OA
ENDROOT
BRANCH   7   6
ATOM      3  C   UNL     1      43.218  20.164  19.496  0.00  0.00    +0.140 A 
ATOM      4  C   UNL     1      44.188  19.868  18.549  0.00  0.00    -0.078 A 
ATOM      5  C   UNL     1      44.954  18.726  18.680  0.00  0.00    +0.097 A 
ATOM      6  C   UNL     1      44.752  17.876  19.754  0.00  0.00    -0.122 A 
ATOM     24  C   UNL     1      43.785  18.169  20.697  0.00  0.00    +0.065 A 
ATOM     25  C   UNL     1      43.022  19.314  20.574  0.00  0.00    -0.013 A 
BRANCH   3   2
ATOM      1  C   UNL     1      41.247  21.174  18.630  0.00  0.00    +0.243 C 
ATOM      2  O   UNL     1      42.464  21.288  19.369  0.00  0.00    -0.315 OA
ENDBRANCH   3   2
ENDBRANCH   7   6
BRANCH   7   8
ATOM      8  O   UNL     1      44.745  15.476  19.894  0.00  0.00    -0.520 OA
ATOM      9  H   UNL     1      45.224  14.640  19.972  0.00  0.00    +0.387 HD
ENDBRANCH   7   8
BRANCH  14  15
ATOM     15  O   UNL     1      51.191  19.679  19.250  0.00  0.00    -0.489 OA
ATOM     16  H   UNL     1      51.889  19.262  19.774  0.00  0.00    +0.404 HD
ENDBRANCH  14  15
BRANCH  18  19
ATOM     19  O   UNL     1      48.347  16.977  16.571  0.00  0.00    -0.477 OA
ATOM     20  H   UNL     1      49.090  16.504  16.170  0.00  0.00    +0.404 HD
ENDBRANCH  18  19
TORSDOF 5
ENDMDL
MODEL 7
REMARK VINA RESULT:      -4.8      1.867      2.618
REMARK  Name = ZINC95486266
REMARK  6 active torsions:
REMARK  status: ('A' for Active; 'I' for Inactive)
REMARK    1  A    between atoms: C1_1  and  O1_2
REMARK    2  A    between atoms: O1_2  and  C2_3
REMARK    3  A    between atoms: C5_6  and  C8_9
REMARK    4  A    between atoms: C8_9  and  O6_22
REMARK    5  A    between atoms: C12_14  and  O5_21
REMARK    6  A    between atoms: C14_16  and  O4_20
REMARK                            x       y       z     vdW  Elec       q    Type
REMARK                         _______ _______ _______ _____ _____    ______ ____
ROOT
ATOM      7  C   UNL     1      46.033  17.746  21.299  0.00  0.00    +0.116 C 
ATOM     10  C   UNL     1      44.943  17.705  22.382  0.00  0.00    +0.260 C 
ATOM     11  O   UNL     1      43.659  17.728  21.759  0.00  0.00    -0.288 OA
ATOM     12  C   UNL     1      43.389  18.705  20.862  0.00  0.00    +0.208 A 
ATOM     13  C   UNL     1      42.076  19.052  20.594  0.00  0.00    -0.049 A 
ATOM     14  C   UNL     1      41.792  20.050  19.671  0.00  0.00    +0.201 A 
ATOM     17  C   UNL     1      42.817  20.710  19.003  0.00  0.00    -0.071 A 
ATOM     18  C   UNL     1      44.136  20.380  19.257  0.00  0.00    +0.224 A 
ATOM     21  C   UNL     1      44.428  19.376  20.194  0.00  0.00    -0.296 A 
ATOM     22  C   UNL     1      45.818  19.016  20.496  0.00  0.00    +0.380 C 
ATOM     23  O   UNL     1      46.750  19.699  20.121  0.00  0.00    -0.410 OA
ENDROOT
BRANCH   7   6
ATOM      3  C   UNL     1      45.682  14.334  18.750  0.00  0.00    +0.140 A 
ATOM      4  C   UNL     1      46.213  15.517  18.258  0.00  0.00    -0.078 A 
ATOM      5  C   UNL     1      46.325  16.619  19.083  0.00  0.00    +0.097 A 
ATOM      6  C   UNL     1      45.909  16.543  20.401  0.00  0.00    -0.122 A 
ATOM     24  C   UNL     1      45.380  15.365  20.893  0.00  0.00    +0.065 A 
ATOM     25  C   UNL     1      45.260  14.262  20.069  0.00  0.00    -0.013 A 
BRANCH   3   2
ATOM      1  C   UNL     1      46.777  12.733  17.376  0.00  0.00    +0.243 C 
ATOM      2  O   UNL     1      45.570  13.250  17.939  0.00  0.00    -0.315 OA
ENDBRANCH   3   2
ENDBRANCH   7   6
BRANCH   7   8
ATOM      8  O   UNL     1      47.325  17.768  21.908  0.00  0.00    -0.520 OA
ATOM      9  H   UNL     1      47.926  18.427  21.534  0.00  0.00    +0.387 HD
ENDBRANCH   7   8
BRANCH  14  15
ATOM     15  O   UNL     1      40.501  20.383  19.416  0.00  0.00    -0.489 OA
ATOM     16  H   UNL     1      40.291  21.308  19.600  0.00  0.00    +0.404 HD
ENDBRANCH  14  15
BRANCH  18  19
ATOM     19  O   UNL     1      45.138  21.021  18.606  0.00  0.00    -0.477 OA
ATOM     20  H   UNL     1      44.833  21.670  17.957  0.00  0.00    +0.404 HD
ENDBRANCH  18  19
TORSDOF 5
ENDMDL
MODEL 8
REMARK VINA RESULT:      -4.7      4.718      7.660
REMARK  Name = ZINC95486266
REMARK  6 active torsions:
REMARK  status: ('A' for Active; 'I' for Inactive)
REMARK    1  A    between atoms: C1_1  and  O1_2
REMARK    2  A    between atoms: O1_2  and  C2_3
REMARK    3  A    between atoms: C5_6  and  C8_9
REMARK    4  A    between atoms: C8_9  and  O6_22
REMARK    5  A    between atoms: C12_14  and  O5_21
REMARK    6  A    between atoms: C14_16  and  O4_20
REMARK                            x       y       z     vdW  Elec       q    Type
REMARK                         _______ _______ _______ _____ _____    ______ ____
ROOT
ATOM      7  C   UNL     1      49.361  18.122  18.520  0.00  0.00    +0.116 C 
ATOM     10  C   UNL     1      49.750  17.504  19.871  0.00  0.00    +0.260 C 
ATOM     11  O   UNL     1      49.917  18.543  20.835  0.00  0.00    -0.288 OA
ATOM     12  C   UNL     1      50.740  19.577  20.540  0.00  0.00    +0.208 A 
ATOM     13  C   UNL     1      51.292  20.333  21.560  0.00  0.00    -0.049 A 
ATOM     14  C   UNL     1      52.133  21.398  21.264  0.00  0.00    +0.201 A 
ATOM     17  C   UNL     1      52.430  21.721  19.945  0.00  0.00    -0.071 A 
ATOM     18  C   UNL     1      51.891  20.977  18.910  0.00  0.00    +0.224 A 
ATOM     21  C   UNL     1      51.045  19.896  19.205  0.00  0.00    -0.296 A 
ATOM     22  C   UNL     1      50.472  19.080  18.129  0.00  0.00    +0.380 C 
ATOM     23  O   UNL     1      50.864  19.167  16.983  0.00  0.00    -0.410 OA
ENDROOT
BRANCH   7   6
ATOM      3  C   UNL     1      45.672  20.246  18.901  0.00  0.00    +0.140 A 
ATOM      4  C   UNL     1      45.668  18.867  18.750  0.00  0.00    -0.078 A 
ATOM      5  C   UNL     1      46.861  18.182  18.627  0.00  0.00    +0.097 A 
ATOM      6  C   UNL     1      48.061  18.871  18.654  0.00  0.00    -0.122 A 
ATOM     24  C   UNL     1      48.067  20.245  18.805  0.00  0.00    +0.065 A 
ATOM     25  C   UNL     1      46.876  20.935  18.922  0.00  0.00    -0.013 A 
BRANCH   3   2
ATOM      1  C   UNL     1      43.296  20.161  18.889  0.00  0.00    +0.243 C 
ATOM      2  O   UNL     1      44.499  20.921  19.021  0.00  0.00    -0.315 OA
ENDBRANCH   3   2
ENDBRANCH   7   6
BRANCH   7   8
ATOM      8  O   UNL     1      49.232  17.096  17.533  0.00  0.00    -0.520 OA
ATOM      9  H   UNL     1      49.276  16.199  17.890  0.00  0.00    +0.387 HD
ENDBRANCH   7   8
BRANCH  14  15
ATOM     15  O   UNL     1      52.669  22.131  22.272  0.00  0.00    -0.489 OA
ATOM     16  H   UNL     1      53.329  22.775  21.981  0.00  0.00    +0.404 HD
ENDBRANCH  14  15
BRANCH  18  19
ATOM     19  O   UNL     1      52.176  21.291  17.622  0.00  0.00    -0.477 OA
ATOM     20  H   UNL     1      51.965  20.589  16.991  0.00  0.00    +0.404 HD
ENDBRANCH  18  19
TORSDOF 5
ENDMDL
MODEL 9
REMARK VINA RESULT:      -4.7      2.281      6.398
REMARK  Name = ZINC95486266
REMARK  6 active torsions:
REMARK  status: ('A' for Active; 'I' for Inactive)
REMARK    1  A    between atoms: C1_1  and  O1_2
REMARK    2  A    between atoms: O1_2  and  C2_3
REMARK    3  A    between atoms: C5_6  and  C8_9
REMARK    4  A    between atoms: C8_9  and  O6_22
REMARK    5  A    between atoms: C12_14  and  O5_21
REMARK    6  A    between atoms: C14_16  and  O4_20
REMARK                            x       y       z     vdW  Elec       q    Type
REMARK                         _______ _______ _______ _____ _____    ______ ____
ROOT
ATOM      7  C   UNL     1      46.753  17.709  20.588  0.00  0.00    +0.116 C 
ATOM     10  C   UNL     1      47.842  17.621  19.508  0.00  0.00    +0.260 C 
ATOM     11  O   UNL     1      47.313  16.964  18.357  0.00  0.00    -0.288 OA
ATOM     12  C   UNL     1      46.713  15.760  18.514  0.00  0.00    +0.208 A 
ATOM     13  C   UNL     1      46.611  14.894  17.439  0.00  0.00    -0.049 A 
ATOM     14  C   UNL     1      45.992  13.661  17.592  0.00  0.00    +0.201 A 
ATOM     17  C   UNL     1      45.466  13.279  18.821  0.00  0.00    -0.071 A 
ATOM     18  C   UNL     1      45.559  14.128  19.909  0.00  0.00    +0.224 A 
ATOM     21  C   UNL     1      46.189  15.374  19.761  0.00  0.00    -0.296 A 
ATOM     22  C   UNL     1      46.317  16.289  20.901  0.00  0.00    +0.380 C 
ATOM     23  O   UNL     1      46.084  15.929  22.037  0.00  0.00    -0.410 OA
ENDROOT
BRANCH   7   6
ATOM      3  C   UNL     1      43.432  19.965  19.125  0.00  0.00    +0.140 A 
ATOM      4  C   UNL     1      44.725  20.331  18.782  0.00  0.00    -0.078 A 
ATOM      5  C   UNL     1      45.798  19.601  19.257  0.00  0.00    +0.097 A 
ATOM      6  C   UNL     1      45.582  18.504  20.073  0.00  0.00    -0.122 A 
ATOM     24  C   UNL     1      44.294  18.137  20.414  0.00  0.00    +0.065 A 
ATOM     25  C   UNL     1      43.218  18.869  19.948  0.00  0.00    -0.013 A 
BRANCH   3   2
ATOM      1  C   UNL     1      41.163  19.969  18.414  0.00  0.00    +0.243 C 
ATOM      2  O   UNL     1      42.376  20.683  18.660  0.00  0.00    -0.315 OA
ENDBRANCH   3   2
ENDBRANCH   7   6
BRANCH   7   8
ATOM      8  O   UNL     1      47.281  18.326  21.764  0.00  0.00    -0.520 OA
ATOM      9  H   UNL     1      47.578  19.236  21.632  0.00  0.00    +0.387 HD
ENDBRANCH   7   8
BRANCH  14  15
ATOM     15  O   UNL     1      45.898  12.819  16.532  0.00  0.00    -0.489 OA
ATOM     16  H   UNL     1      46.172  11.912  16.724  0.00  0.00    +0.404 HD
ENDBRANCH  14  15
BRANCH  18  19
ATOM     19  O   UNL     1      45.045  13.761  21.109  0.00  0.00    -0.477 OA
ATOM     20  H   UNL     1      45.233  14.384  21.825  0.00  0.00    +0.404 HD
ENDBRANCH  18  19
TORSDOF 5
ENDMDL
