MODEL 1
REMARK VINA RESULT:      -6.6      0.000      0.000
REMARK  Name = ZINC13359177
REMARK  10 active torsions:
REMARK  status: ('A' for Active; 'I' for Inactive)
REMARK    1  A    between atoms: C1_1  and  C2_2
REMARK    2  A    between atoms: C5_5  and  C13_15
REMARK    3  A    between atoms: C8_8  and  O2_13
REMARK    4  A    between atoms: C10_10  and  O1_12
REMARK    5  A    between atoms: O2_13  and  C12_14
REMARK    6  A    between atoms: C14_16  and  O4_30
REMARK    7  A    between atoms: C16_18  and  O3_28
REMARK    8  A    between atoms: C20_22  and  C23_27
REMARK    9  A    between atoms: C21_25  and  C22_26
REMARK   10  A    between atoms: O3_28  and  C24_29
REMARK                            x       y       z     vdW  Elec       q    Type
REMARK                         _______ _______ _______ _____ _____    ______ ____
ROOT
ATOM      6  C   UNL     1      46.570  18.731  18.698  0.00  0.00    -0.103 A 
ATOM      7  C   UNL     1      46.840  17.734  17.746  0.00  0.00    +0.182 A 
ATOM     10  C   UNL     1      48.145  17.459  17.376  0.00  0.00    -0.103 A 
ATOM     11  C   UNL     1      49.196  18.166  17.941  0.00  0.00    +0.187 A 
ATOM     14  C   UNL     1      48.934  19.160  18.890  0.00  0.00    -0.158 A 
ATOM     15  C   UNL     1      50.022  19.933  19.510  0.00  0.00    +0.227 C 
ATOM     16  C   UNL     1      51.379  19.984  18.858  0.00  0.00    +0.139 C 
ATOM     17  N   UNL     1      49.809  20.579  20.606  0.00  0.00    -0.518 NA
ATOM     18  C   UNL     1      48.518  20.549  21.286  0.00  0.00    +0.151 C 
ATOM     19  C   UNL     1      48.387  21.794  22.166  0.00  0.00    +0.053 C 
ATOM     20  C   UNL     1      47.367  20.522  20.283  0.00  0.00    +0.076 C 
ATOM     21  C   UNL     1      47.616  19.443  19.262  0.00  0.00    +0.007 A 
ENDROOT
BRANCH   6   5
ATOM      1  C   UNL     1      45.375  15.464  22.503  0.00  0.00    +0.095 C 
ATOM      2  C   UNL     1      44.626  16.559  21.790  0.00  0.00    -0.050 A 
ATOM      3  C   UNL     1      45.243  17.259  20.798  0.00  0.00    +0.003 A 
ATOM      4  C   UNL     1      44.554  18.281  20.128  0.00  0.00    +0.022 A 
ATOM      5  C   UNL     1      45.172  19.023  19.093  0.00  0.00    -0.069 A 
ATOM     22  C   UNL     1      44.463  20.023  18.453  0.00  0.00    +0.070 A 
ATOM     23  C   UNL     1      43.152  20.309  18.815  0.00  0.00    -0.098 A 
ATOM     24  C   UNL     1      42.525  19.601  19.818  0.00  0.00    +0.162 A 
ATOM     27  C   UNL     1      43.218  18.575  20.491  0.00  0.00    -0.102 A 
ATOM     28  C   UNL     1      42.603  17.837  21.521  0.00  0.00    +0.146 A 
ATOM     31  C   UNL     1      43.311  16.837  22.153  0.00  0.00    -0.026 A 
BRANCH  24  25
ATOM     25  O   UNL     1      41.244  19.895  20.159  0.00  0.00    -0.295 OA
ATOM     26  C   UNL     1      40.518  20.754  19.277  0.00  0.00    +0.240 C 
ENDBRANCH  24  25
BRANCH  28  29
ATOM     29  O   UNL     1      41.323  18.104  21.885  0.00  0.00    -0.480 OA
ATOM     30  H   UNL     1      41.097  17.805  22.777  0.00  0.00    +0.391 HD
ENDBRANCH  28  29
ENDBRANCH   6   5
BRANCH   7   8
ATOM      8  O   UNL     1      45.818  17.037  17.188  0.00  0.00    -0.487 OA
ATOM      9  H   UNL     1      45.754  17.136  16.228  0.00  0.00    +0.395 HD
ENDBRANCH   7   8
BRANCH  11  12
ATOM     12  O   UNL     1      50.474  17.893  17.576  0.00  0.00    -0.299 OA
ATOM     13  C   UNL     1      50.787  16.531  17.276  0.00  0.00    +0.243 C 
ENDBRANCH  11  12
TORSDOF 5
ENDMDL
MODEL 2
REMARK VINA RESULT:      -6.4      2.871      5.441
REMARK  Name = ZINC13359177
REMARK  10 active torsions:
REMARK  status: ('A' for Active; 'I' for Inactive)
REMARK    1  A    between atoms: C1_1  and  C2_2
REMARK    2  A    between atoms: C5_5  and  C13_15
REMARK    3  A    between atoms: C8_8  and  O2_13
REMARK    4  A    between atoms: C10_10  and  O1_12
REMARK    5  A    between atoms: O2_13  and  C12_14
REMARK    6  A    between atoms: C14_16  and  O4_30
REMARK    7  A    between atoms: C16_18  and  O3_28
REMARK    8  A    between atoms: C20_22  and  C23_27
REMARK    9  A    between atoms: C21_25  and  C22_26
REMARK   10  A    between atoms: O3_28  and  C24_29
REMARK                            x       y       z     vdW  Elec       q    Type
REMARK                         _______ _______ _______ _____ _____    ______ ____
ROOT
ATOM      6  C   UNL     1      44.933  18.280  20.450  0.00  0.00    -0.103 A 
ATOM      7  C   UNL     1      44.307  17.668  21.549  0.00  0.00    +0.182 A 
ATOM     10  C   UNL     1      44.286  16.288  21.659  0.00  0.00    -0.103 A 
ATOM     11  C   UNL     1      44.881  15.499  20.687  0.00  0.00    +0.187 A 
ATOM     14  C   UNL     1      45.505  16.102  19.589  0.00  0.00    -0.158 A 
ATOM     15  C   UNL     1      46.146  15.298  18.536  0.00  0.00    +0.227 C 
ATOM     16  C   UNL     1      45.794  13.842  18.377  0.00  0.00    +0.139 C 
ATOM     17  N   UNL     1      47.000  15.846  17.738  0.00  0.00    -0.518 NA
ATOM     18  C   UNL     1      47.387  17.247  17.860  0.00  0.00    +0.151 C 
ATOM     19  C   UNL     1      47.917  17.739  16.511  0.00  0.00    +0.053 C 
ATOM     20  C   UNL     1      46.201  18.114  18.277  0.00  0.00    +0.076 C 
ATOM     21  C   UNL     1      45.524  17.496  19.473  0.00  0.00    +0.007 A 
ENDROOT
BRANCH   6   5
ATOM      1  C   UNL     1      40.450  19.680  18.323  0.00  0.00    +0.095 C 
ATOM      2  C   UNL     1      41.662  20.435  18.802  0.00  0.00    -0.050 A 
ATOM      3  C   UNL     1      42.714  19.750  19.331  0.00  0.00    +0.003 A 
ATOM      4  C   UNL     1      43.847  20.444  19.780  0.00  0.00    +0.022 A 
ATOM      5  C   UNL     1      44.954  19.757  20.333  0.00  0.00    -0.069 A 
ATOM     22  C   UNL     1      46.056  20.472  20.765  0.00  0.00    +0.070 A 
ATOM     23  C   UNL     1      46.089  21.858  20.663  0.00  0.00    -0.098 A 
ATOM     24  C   UNL     1      45.026  22.553  20.127  0.00  0.00    +0.162 A 
ATOM     27  C   UNL     1      43.887  21.855  19.678  0.00  0.00    -0.102 A 
ATOM     28  C   UNL     1      42.785  22.539  19.127  0.00  0.00    +0.146 A 
ATOM     31  C   UNL     1      41.692  21.822  18.692  0.00  0.00    -0.026 A 
BRANCH  24  25
ATOM     25  O   UNL     1      45.075  23.907  20.036  0.00  0.00    -0.295 OA
ATOM     26  C   UNL     1      45.918  24.590  20.965  0.00  0.00    +0.240 C 
ENDBRANCH  24  25
BRANCH  28  29
ATOM     29  O   UNL     1      42.803  23.893  19.020  0.00  0.00    -0.480 OA
ATOM     30  H   UNL     1      42.061  24.257  18.518  0.00  0.00    +0.391 HD
ENDBRANCH  28  29
ENDBRANCH   6   5
BRANCH   7   8
ATOM      8  O   UNL     1      43.722  18.433  22.505  0.00  0.00    -0.487 OA
ATOM      9  H   UNL     1      44.299  18.632  23.255  0.00  0.00    +0.395 HD
ENDBRANCH   7   8
BRANCH  11  12
ATOM     12  O   UNL     1      44.859  14.147  20.800  0.00  0.00    -0.299 OA
ATOM     13  C   UNL     1      45.266  13.594  22.053  0.00  0.00    +0.243 C 
ENDBRANCH  11  12
TORSDOF 5
ENDMDL
MODEL 3
REMARK VINA RESULT:      -5.9      2.401      4.957
REMARK  Name = ZINC13359177
REMARK  10 active torsions:
REMARK  status: ('A' for Active; 'I' for Inactive)
REMARK    1  A    between atoms: C1_1  and  C2_2
REMARK    2  A    between atoms: C5_5  and  C13_15
REMARK    3  A    between atoms: C8_8  and  O2_13
REMARK    4  A    between atoms: C10_10  and  O1_12
REMARK    5  A    between atoms: O2_13  and  C12_14
REMARK    6  A    between atoms: C14_16  and  O4_30
REMARK    7  A    between atoms: C16_18  and  O3_28
REMARK    8  A    between atoms: C20_22  and  C23_27
REMARK    9  A    between atoms: C21_25  and  C22_26
REMARK   10  A    between atoms: O3_28  and  C24_29
REMARK                            x       y       z     vdW  Elec       q    Type
REMARK                         _______ _______ _______ _____ _____    ______ ____
ROOT
ATOM      6  C   UNL     1      46.084  19.146  19.046  0.00  0.00    -0.103 A 
ATOM      7  C   UNL     1      44.940  19.905  18.749  0.00  0.00    +0.182 A 
ATOM     10  C   UNL     1      44.782  21.169  19.293  0.00  0.00    -0.103 A 
ATOM     11  C   UNL     1      45.750  21.695  20.135  0.00  0.00    +0.187 A 
ATOM     14  C   UNL     1      46.892  20.943  20.435  0.00  0.00    -0.158 A 
ATOM     15  C   UNL     1      47.940  21.466  21.326  0.00  0.00    +0.227 C 
ATOM     16  C   UNL     1      47.638  22.609  22.261  0.00  0.00    +0.139 C 
ATOM     17  N   UNL     1      49.116  20.935  21.317  0.00  0.00    -0.518 NA
ATOM     18  C   UNL     1      49.465  19.839  20.421  0.00  0.00    +0.151 C 
ATOM     19  C   UNL     1      50.652  19.071  21.007  0.00  0.00    +0.053 C 
ATOM     20  C   UNL     1      48.291  18.880  20.237  0.00  0.00    +0.076 C 
ATOM     21  C   UNL     1      47.052  19.665  19.891  0.00  0.00    +0.007 A 
ENDROOT
BRANCH   6   5
ATOM      1  C   UNL     1      44.231  15.789  22.492  0.00  0.00    +0.095 C 
ATOM      2  C   UNL     1      44.853  15.652  21.126  0.00  0.00    -0.050 A 
ATOM      3  C   UNL     1      45.250  16.768  20.454  0.00  0.00    +0.003 A 
ATOM      4  C   UNL     1      45.830  16.651  19.182  0.00  0.00    +0.022 A 
ATOM      5  C   UNL     1      46.252  17.795  18.463  0.00  0.00    -0.069 A 
ATOM     22  C   UNL     1      46.821  17.643  17.211  0.00  0.00    +0.070 A 
ATOM     23  C   UNL     1      46.982  16.381  16.652  0.00  0.00    -0.098 A 
ATOM     24  C   UNL     1      46.582  15.250  17.331  0.00  0.00    +0.162 A 
ATOM     27  C   UNL     1      45.998  15.369  18.608  0.00  0.00    -0.102 A 
ATOM     28  C   UNL     1      45.579  14.231  19.325  0.00  0.00    +0.146 A 
ATOM     31  C   UNL     1      45.018  14.386  20.574  0.00  0.00    -0.026 A 
BRANCH  24  25
ATOM     25  O   UNL     1      46.747  14.025  16.768  0.00  0.00    -0.295 OA
ATOM     26  C   UNL     1      48.032  13.732  16.218  0.00  0.00    +0.240 C 
ENDBRANCH  24  25
BRANCH  28  29
ATOM     29  O   UNL     1      45.731  12.991  18.791  0.00  0.00    -0.480 OA
ATOM     30  H   UNL     1      45.586  12.272  19.421  0.00  0.00    +0.391 HD
ENDBRANCH  28  29
ENDBRANCH   6   5
BRANCH   7   8
ATOM      8  O   UNL     1      43.988  19.399  17.926  0.00  0.00    -0.487 OA
ATOM      9  H   UNL     1      43.578  20.058  17.349  0.00  0.00    +0.395 HD
ENDBRANCH   7   8
BRANCH  11  12
ATOM     12  O   UNL     1      45.592  22.934  20.665  0.00  0.00    -0.299 OA
ATOM     13  C   UNL     1      44.828  23.872  19.904  0.00  0.00    +0.243 C 
ENDBRANCH  11  12
TORSDOF 5
ENDMDL
MODEL 4
REMARK VINA RESULT:      -5.7      2.911      7.517
REMARK  Name = ZINC13359177
REMARK  10 active torsions:
REMARK  status: ('A' for Active; 'I' for Inactive)
REMARK    1  A    between atoms: C1_1  and  C2_2
REMARK    2  A    between atoms: C5_5  and  C13_15
REMARK    3  A    between atoms: C8_8  and  O2_13
REMARK    4  A    between atoms: C10_10  and  O1_12
REMARK    5  A    between atoms: O2_13  and  C12_14
REMARK    6  A    between atoms: C14_16  and  O4_30
REMARK    7  A    between atoms: C16_18  and  O3_28
REMARK    8  A    between atoms: C20_22  and  C23_27
REMARK    9  A    between atoms: C21_25  and  C22_26
REMARK   10  A    between atoms: O3_28  and  C24_29
REMARK                            x       y       z     vdW  Elec       q    Type
REMARK                         _______ _______ _______ _____ _____    ______ ____
ROOT
ATOM      6  C   UNL     1      46.201  16.220  18.549  0.00  0.00    -0.103 A 
ATOM      7  C   UNL     1      45.884  17.504  18.076  0.00  0.00    +0.182 A 
ATOM     10  C   UNL     1      45.068  18.340  18.820  0.00  0.00    -0.103 A 
ATOM     11  C   UNL     1      44.557  17.915  20.038  0.00  0.00    +0.187 A 
ATOM     14  C   UNL     1      44.868  16.637  20.514  0.00  0.00    -0.158 A 
ATOM     15  C   UNL     1      44.343  16.151  21.801  0.00  0.00    +0.227 C 
ATOM     16  C   UNL     1      43.146  16.816  22.428  0.00  0.00    +0.139 C 
ATOM     17  N   UNL     1      44.900  15.144  22.384  0.00  0.00    -0.518 NA
ATOM     18  C   UNL     1      46.071  14.475  21.826  0.00  0.00    +0.151 C 
ATOM     19  C   UNL     1      46.143  13.050  22.378  0.00  0.00    +0.053 C 
ATOM     20  C   UNL     1      46.001  14.418  20.302  0.00  0.00    +0.076 C 
ATOM     21  C   UNL     1      45.688  15.790  19.762  0.00  0.00    +0.007 A 
ENDROOT
BRANCH   6   5
ATOM      1  C   UNL     1      51.068  17.528  19.633  0.00  0.00    +0.095 C 
ATOM      2  C   UNL     1      50.437  16.497  18.735  0.00  0.00    -0.050 A 
ATOM      3  C   UNL     1      49.079  16.403  18.671  0.00  0.00    +0.003 A 
ATOM      4  C   UNL     1      48.482  15.446  17.837  0.00  0.00    +0.022 A 
ATOM      5  C   UNL     1      47.074  15.328  17.752  0.00  0.00    -0.069 A 
ATOM     22  C   UNL     1      46.517  14.374  16.919  0.00  0.00    +0.070 A 
ATOM     23  C   UNL     1      47.326  13.529  16.167  0.00  0.00    -0.098 A 
ATOM     24  C   UNL     1      48.699  13.623  16.230  0.00  0.00    +0.162 A 
ATOM     27  C   UNL     1      49.299  14.584  17.068  0.00  0.00    -0.102 A 
ATOM     28  C   UNL     1      50.700  14.702  17.153  0.00  0.00    +0.146 A 
ATOM     31  C   UNL     1      51.250  15.658  17.979  0.00  0.00    -0.026 A 
BRANCH  24  25
ATOM     25  O   UNL     1      49.472  12.789  15.488  0.00  0.00    -0.295 OA
ATOM     26  C   UNL     1      49.064  12.553  14.139  0.00  0.00    +0.240 C 
ENDBRANCH  24  25
BRANCH  28  29
ATOM     29  O   UNL     1      51.502  13.884  16.423  0.00  0.00    -0.480 OA
ATOM     30  H   UNL     1      51.029  13.167  15.977  0.00  0.00    +0.391 HD
ENDBRANCH  28  29
ENDBRANCH   6   5
BRANCH   7   8
ATOM      8  O   UNL     1      46.380  17.928  16.886  0.00  0.00    -0.487 OA
ATOM      9  H   UNL     1      46.079  17.409  16.128  0.00  0.00    +0.395 HD
ENDBRANCH   7   8
BRANCH  11  12
ATOM     12  O   UNL     1      43.759  18.738  20.764  0.00  0.00    -0.299 OA
ATOM     13  C   UNL     1      42.892  19.611  20.037  0.00  0.00    +0.243 C 
ENDBRANCH  11  12
TORSDOF 5
ENDMDL
MODEL 5
REMARK VINA RESULT:      -5.6      4.347      8.117
REMARK  Name = ZINC13359177
REMARK  10 active torsions:
REMARK  status: ('A' for Active; 'I' for Inactive)
REMARK    1  A    between atoms: C1_1  and  C2_2
REMARK    2  A    between atoms: C5_5  and  C13_15
REMARK    3  A    between atoms: C8_8  and  O2_13
REMARK    4  A    between atoms: C10_10  and  O1_12
REMARK    5  A    between atoms: O2_13  and  C12_14
REMARK    6  A    between atoms: C14_16  and  O4_30
REMARK    7  A    between atoms: C16_18  and  O3_28
REMARK    8  A    between atoms: C20_22  and  C23_27
REMARK    9  A    between atoms: C21_25  and  C22_26
REMARK   10  A    between atoms: O3_28  and  C24_29
REMARK                            x       y       z     vdW  Elec       q    Type
REMARK                         _______ _______ _______ _____ _____    ______ ____
ROOT
ATOM      6  C   UNL     1      47.155  15.162  18.038  0.00  0.00    -0.103 A 
ATOM      7  C   UNL     1      46.512  16.288  17.498  0.00  0.00    +0.182 A 
ATOM     10  C   UNL     1      45.633  17.027  18.272  0.00  0.00    -0.103 A 
ATOM     11  C   UNL     1      45.380  16.661  19.585  0.00  0.00    +0.187 A 
ATOM     14  C   UNL     1      46.017  15.540  20.129  0.00  0.00    -0.158 A 
ATOM     15  C   UNL     1      45.773  15.119  21.518  0.00  0.00    +0.227 C 
ATOM     16  C   UNL     1      44.547  15.600  22.249  0.00  0.00    +0.139 C 
ATOM     17  N   UNL     1      46.603  14.324  22.105  0.00  0.00    -0.518 NA
ATOM     18  C   UNL     1      47.813  13.843  21.448  0.00  0.00    +0.151 C 
ATOM     19  C   UNL     1      48.260  12.540  22.114  0.00  0.00    +0.053 C 
ATOM     20  C   UNL     1      47.570  13.587  19.962  0.00  0.00    +0.076 C 
ATOM     21  C   UNL     1      46.902  14.790  19.348  0.00  0.00    +0.007 A 
ENDROOT
BRANCH   6   5
ATOM      1  C   UNL     1      44.491  11.186  16.123  0.00  0.00    +0.095 C 
ATOM      2  C   UNL     1      45.921  11.645  15.999  0.00  0.00    -0.050 A 
ATOM      3  C   UNL     1      46.323  12.771  16.650  0.00  0.00    +0.003 A 
ATOM      4  C   UNL     1      47.652  13.207  16.541  0.00  0.00    +0.022 A 
ATOM      5  C   UNL     1      48.096  14.374  17.208  0.00  0.00    -0.069 A 
ATOM     22  C   UNL     1      49.414  14.775  17.080  0.00  0.00    +0.070 A 
ATOM     23  C   UNL     1      50.306  14.045  16.303  0.00  0.00    -0.098 A 
ATOM     24  C   UNL     1      49.901  12.904  15.644  0.00  0.00    +0.162 A 
ATOM     27  C   UNL     1      48.565  12.468  15.753  0.00  0.00    -0.102 A 
ATOM     28  C   UNL     1      48.123  11.306  15.090  0.00  0.00    +0.146 A 
ATOM     31  C   UNL     1      46.811  10.907  15.225  0.00  0.00    -0.026 A 
BRANCH  24  25
ATOM     25  O   UNL     1      50.787  12.205  14.889  0.00  0.00    -0.295 OA
ATOM     26  C   UNL     1      51.666  12.959  14.053  0.00  0.00    +0.240 C 
ENDBRANCH  24  25
BRANCH  28  29
ATOM     29  O   UNL     1      48.984  10.583  14.328  0.00  0.00    -0.480 OA
ATOM     30  H   UNL     1      48.838  10.675  13.376  0.00  0.00    +0.391 HD
ENDBRANCH  28  29
ENDBRANCH   6   5
BRANCH   7   8
ATOM      8  O   UNL     1      46.753  16.654  16.214  0.00  0.00    -0.487 OA
ATOM      9  H   UNL     1      46.832  17.609  16.086  0.00  0.00    +0.395 HD
ENDBRANCH   7   8
BRANCH  11  12
ATOM     12  O   UNL     1      44.518  17.387  20.340  0.00  0.00    -0.299 OA
ATOM     13  C   UNL     1      44.083  18.640  19.806  0.00  0.00    +0.243 C 
ENDBRANCH  11  12
TORSDOF 5
ENDMDL
MODEL 6
REMARK VINA RESULT:      -5.6      2.383      5.515
REMARK  Name = ZINC13359177
REMARK  10 active torsions:
REMARK  status: ('A' for Active; 'I' for Inactive)
REMARK    1  A    between atoms: C1_1  and  C2_2
REMARK    2  A    between atoms: C5_5  and  C13_15
REMARK    3  A    between atoms: C8_8  and  O2_13
REMARK    4  A    between atoms: C10_10  and  O1_12
REMARK    5  A    between atoms: O2_13  and  C12_14
REMARK    6  A    between atoms: C14_16  and  O4_30
REMARK    7  A    between atoms: C16_18  and  O3_28
REMARK    8  A    between atoms: C20_22  and  C23_27
REMARK    9  A    between atoms: C21_25  and  C22_26
REMARK   10  A    between atoms: O3_28  and  C24_29
REMARK                            x       y       z     vdW  Elec       q    Type
REMARK                         _______ _______ _______ _____ _____    ______ ____
ROOT
ATOM      6  C   UNL     1      44.490  18.968  20.650  0.00  0.00    -0.103 A 
ATOM      7  C   UNL     1      43.275  19.500  20.187  0.00  0.00    +0.182 A 
ATOM     10  C   UNL     1      43.131  20.867  20.022  0.00  0.00    -0.103 A 
ATOM     11  C   UNL     1      44.184  21.722  20.313  0.00  0.00    +0.187 A 
ATOM     14  C   UNL     1      45.396  21.198  20.776  0.00  0.00    -0.158 A 
ATOM     15  C   UNL     1      46.535  22.073  21.097  0.00  0.00    +0.227 C 
ATOM     16  C   UNL     1      46.313  23.542  21.347  0.00  0.00    +0.139 C 
ATOM     17  N   UNL     1      47.724  21.578  21.180  0.00  0.00    -0.518 NA
ATOM     18  C   UNL     1      47.995  20.166  20.932  0.00  0.00    +0.151 C 
ATOM     19  C   UNL     1      49.295  19.774  21.637  0.00  0.00    +0.053 C 
ATOM     20  C   UNL     1      46.860  19.286  21.450  0.00  0.00    +0.076 C 
ATOM     21  C   UNL     1      45.543  19.818  20.947  0.00  0.00    +0.007 A 
ENDROOT
BRANCH   6   5
ATOM      1  C   UNL     1      46.882  17.196  16.441  0.00  0.00    +0.095 C 
ATOM      2  C   UNL     1      46.360  16.550  17.698  0.00  0.00    -0.050 A 
ATOM      3  C   UNL     1      45.760  17.320  18.648  0.00  0.00    +0.003 A 
ATOM      4  C   UNL     1      45.271  16.728  19.823  0.00  0.00    +0.022 A 
ATOM      5  C   UNL     1      44.642  17.505  20.825  0.00  0.00    -0.069 A 
ATOM     22  C   UNL     1      44.170  16.889  21.971  0.00  0.00    +0.070 A 
ATOM     23  C   UNL     1      44.308  15.517  22.149  0.00  0.00    -0.098 A 
ATOM     24  C   UNL     1      44.915  14.737  21.188  0.00  0.00    +0.162 A 
ATOM     27  C   UNL     1      45.407  15.332  20.009  0.00  0.00    -0.102 A 
ATOM     28  C   UNL     1      46.033  14.560  19.011  0.00  0.00    +0.146 A 
ATOM     31  C   UNL     1      46.496  15.176  17.869  0.00  0.00    -0.026 A 
BRANCH  24  25
ATOM     25  O   UNL     1      45.042  13.399  21.380  0.00  0.00    -0.295 OA
ATOM     26  C   UNL     1      45.811  12.974  22.505  0.00  0.00    +0.240 C 
ENDBRANCH  24  25
BRANCH  28  29
ATOM     29  O   UNL     1      46.174  13.218  19.171  0.00  0.00    -0.480 OA
ATOM     30  H   UNL     1      45.637  12.850  19.886  0.00  0.00    +0.391 HD
ENDBRANCH  28  29
ENDBRANCH   6   5
BRANCH   7   8
ATOM      8  O   UNL     1      42.240  18.672  19.899  0.00  0.00    -0.487 OA
ATOM      9  H   UNL     1      42.097  17.979  20.558  0.00  0.00    +0.395 HD
ENDBRANCH   7   8
BRANCH  11  12
ATOM     12  O   UNL     1      44.039  23.061  20.149  0.00  0.00    -0.299 OA
ATOM     13  C   UNL     1      43.170  23.496  19.102  0.00  0.00    +0.243 C 
ENDBRANCH  11  12
TORSDOF 5
ENDMDL
MODEL 7
REMARK VINA RESULT:      -5.6      3.225      6.197
REMARK  Name = ZINC13359177
REMARK  10 active torsions:
REMARK  status: ('A' for Active; 'I' for Inactive)
REMARK    1  A    between atoms: C1_1  and  C2_2
REMARK    2  A    between atoms: C5_5  and  C13_15
REMARK    3  A    between atoms: C8_8  and  O2_13
REMARK    4  A    between atoms: C10_10  and  O1_12
REMARK    5  A    between atoms: O2_13  and  C12_14
REMARK    6  A    between atoms: C14_16  and  O4_30
REMARK    7  A    between atoms: C16_18  and  O3_28
REMARK    8  A    between atoms: C20_22  and  C23_27
REMARK    9  A    between atoms: C21_25  and  C22_26
REMARK   10  A    between atoms: O3_28  and  C24_29
REMARK                            x       y       z     vdW  Elec       q    Type
REMARK                         _______ _______ _______ _____ _____    ______ ____
ROOT
ATOM      6  C   UNL     1      44.973  19.430  20.988  0.00  0.00    -0.103 A 
ATOM      7  C   UNL     1      45.982  20.130  21.670  0.00  0.00    +0.182 A 
ATOM     10  C   UNL     1      46.029  21.513  21.617  0.00  0.00    -0.103 A 
ATOM     11  C   UNL     1      45.080  22.218  20.891  0.00  0.00    +0.187 A 
ATOM     14  C   UNL     1      44.073  21.527  20.209  0.00  0.00    -0.158 A 
ATOM     15  C   UNL     1      43.051  22.239  19.426  0.00  0.00    +0.227 C 
ATOM     16  C   UNL     1      43.289  23.660  18.987  0.00  0.00    +0.139 C 
ATOM     17  N   UNL     1      41.954  21.640  19.103  0.00  0.00    -0.518 NA
ATOM     18  C   UNL     1      41.667  20.271  19.517  0.00  0.00    +0.151 C 
ATOM     19  C   UNL     1      40.643  19.662  18.558  0.00  0.00    +0.053 C 
ATOM     20  C   UNL     1      42.931  19.415  19.509  0.00  0.00    +0.076 C 
ATOM     21  C   UNL     1      44.027  20.129  20.257  0.00  0.00    +0.007 A 
ENDROOT
BRANCH   6   5
ATOM      1  C   UNL     1      47.206  17.690  16.680  0.00  0.00    +0.095 C 
ATOM      2  C   UNL     1      46.574  17.023  17.874  0.00  0.00    -0.050 A 
ATOM      3  C   UNL     1      46.059  17.789  18.875  0.00  0.00    +0.003 A 
ATOM      4  C   UNL     1      45.468  17.178  19.992  0.00  0.00    +0.022 A 
ATOM      5  C   UNL     1      44.925  17.951  21.046  0.00  0.00    -0.069 A 
ATOM     22  C   UNL     1      44.349  17.316  22.132  0.00  0.00    +0.070 A 
ATOM     23  C   UNL     1      44.299  15.928  22.199  0.00  0.00    -0.098 A 
ATOM     24  C   UNL     1      44.819  15.152  21.186  0.00  0.00    +0.162 A 
ATOM     27  C   UNL     1      45.413  15.766  20.066  0.00  0.00    -0.102 A 
ATOM     28  C   UNL     1      45.954  14.998  19.016  0.00  0.00    +0.146 A 
ATOM     31  C   UNL     1      46.521  15.634  17.934  0.00  0.00    -0.026 A 
BRANCH  24  25
ATOM     25  O   UNL     1      44.762  13.798  21.270  0.00  0.00    -0.295 OA
ATOM     26  C   UNL     1      45.167  13.206  22.505  0.00  0.00    +0.240 C 
ENDBRANCH  24  25
BRANCH  28  29
ATOM     29  O   UNL     1      45.912  13.641  19.068  0.00  0.00    -0.480 OA
ATOM     30  H   UNL     1      46.144  13.274  19.932  0.00  0.00    +0.391 HD
ENDBRANCH  28  29
ENDBRANCH   6   5
BRANCH   7   8
ATOM      8  O   UNL     1      46.914  19.449  22.383  0.00  0.00    -0.487 OA
ATOM      9  H   UNL     1      47.813  19.787  22.278  0.00  0.00    +0.395 HD
ENDBRANCH   7   8
BRANCH  11  12
ATOM     12  O   UNL     1      45.129  23.573  20.843  0.00  0.00    -0.299 OA
ATOM     13  C   UNL     1      46.337  24.196  21.285  0.00  0.00    +0.243 C 
ENDBRANCH  11  12
TORSDOF 5
ENDMDL
MODEL 8
REMARK VINA RESULT:      -5.5      2.857      6.965
REMARK  Name = ZINC13359177
REMARK  10 active torsions:
REMARK  status: ('A' for Active; 'I' for Inactive)
REMARK    1  A    between atoms: C1_1  and  C2_2
REMARK    2  A    between atoms: C5_5  and  C13_15
REMARK    3  A    between atoms: C8_8  and  O2_13
REMARK    4  A    between atoms: C10_10  and  O1_12
REMARK    5  A    between atoms: O2_13  and  C12_14
REMARK    6  A    between atoms: C14_16  and  O4_30
REMARK    7  A    between atoms: C16_18  and  O3_28
REMARK    8  A    between atoms: C20_22  and  C23_27
REMARK    9  A    between atoms: C21_25  and  C22_26
REMARK   10  A    between atoms: O3_28  and  C24_29
REMARK                            x       y       z     vdW  Elec       q    Type
REMARK                         _______ _______ _______ _____ _____    ______ ____
ROOT
ATOM      6  C   UNL     1      47.558  18.965  18.972  0.00  0.00    -0.103 A 
ATOM      7  C   UNL     1      46.340  19.260  18.338  0.00  0.00    +0.182 A 
ATOM     10  C   UNL     1      45.543  20.291  18.806  0.00  0.00    -0.103 A 
ATOM     11  C   UNL     1      45.940  21.039  19.904  0.00  0.00    +0.187 A 
ATOM     14  C   UNL     1      47.152  20.749  20.540  0.00  0.00    -0.158 A 
ATOM     15  C   UNL     1      47.606  21.520  21.710  0.00  0.00    +0.227 C 
ATOM     16  C   UNL     1      46.621  22.336  22.505  0.00  0.00    +0.139 C 
ATOM     17  N   UNL     1      48.847  21.483  22.062  0.00  0.00    -0.518 NA
ATOM     18  C   UNL     1      49.842  20.721  21.316  0.00  0.00    +0.151 C 
ATOM     19  C   UNL     1      51.020  20.399  22.239  0.00  0.00    +0.053 C 
ATOM     20  C   UNL     1      49.254  19.417  20.782  0.00  0.00    +0.076 C 
ATOM     21  C   UNL     1      47.957  19.706  20.072  0.00  0.00    +0.007 A 
ENDROOT
BRANCH   6   5
ATOM      1  C   UNL     1      51.529  21.143  16.508  0.00  0.00    +0.095 C 
ATOM      2  C   UNL     1      51.121  19.718  16.782  0.00  0.00    -0.050 A 
ATOM      3  C   UNL     1      49.980  19.470  17.483  0.00  0.00    +0.003 A 
ATOM      4  C   UNL     1      49.591  18.147  17.743  0.00  0.00    +0.022 A 
ATOM      5  C   UNL     1      48.410  17.862  18.469  0.00  0.00    -0.069 A 
ATOM     22  C   UNL     1      48.056  16.546  18.707  0.00  0.00    +0.070 A 
ATOM     23  C   UNL     1      48.847  15.502  18.242  0.00  0.00    -0.098 A 
ATOM     24  C   UNL     1      50.002  15.751  17.532  0.00  0.00    +0.162 A 
ATOM     27  C   UNL     1      50.392  17.080  17.272  0.00  0.00    -0.102 A 
ATOM     28  C   UNL     1      51.567  17.365  16.549  0.00  0.00    +0.146 A 
ATOM     31  C   UNL     1      51.913  18.677  16.309  0.00  0.00    -0.026 A 
BRANCH  24  25
ATOM     25  O   UNL     1      50.762  14.718  17.087  0.00  0.00    -0.295 OA
ATOM     26  C   UNL     1      50.092  13.680  16.370  0.00  0.00    +0.240 C 
ENDBRANCH  24  25
BRANCH  28  29
ATOM     29  O   UNL     1      52.350  16.355  16.089  0.00  0.00    -0.480 OA
ATOM     30  H   UNL     1      52.342  15.566  16.648  0.00  0.00    +0.391 HD
ENDBRANCH  28  29
ENDBRANCH   6   5
BRANCH   7   8
ATOM      8  O   UNL     1      45.944  18.533  17.262  0.00  0.00    -0.487 OA
ATOM      9  H   UNL     1      46.393  18.772  16.441  0.00  0.00    +0.395 HD
ENDBRANCH   7   8
BRANCH  11  12
ATOM     12  O   UNL     1      45.156  22.048  20.359  0.00  0.00    -0.299 OA
ATOM     13  C   UNL     1      43.835  22.138  19.821  0.00  0.00    +0.243 C 
ENDBRANCH  11  12
TORSDOF 5
ENDMDL
MODEL 9
REMARK VINA RESULT:      -5.5      4.404      7.580
REMARK  Name = ZINC13359177
REMARK  10 active torsions:
REMARK  status: ('A' for Active; 'I' for Inactive)
REMARK    1  A    between atoms: C1_1  and  C2_2
REMARK    2  A    between atoms: C5_5  and  C13_15
REMARK    3  A    between atoms: C8_8  and  O2_13
REMARK    4  A    between atoms: C10_10  and  O1_12
REMARK    5  A    between atoms: O2_13  and  C12_14
REMARK    6  A    between atoms: C14_16  and  O4_30
REMARK    7  A    between atoms: C16_18  and  O3_28
REMARK    8  A    between atoms: C20_22  and  C23_27
REMARK    9  A    between atoms: C21_25  and  C22_26
REMARK   10  A    between atoms: O3_28  and  C24_29
REMARK                            x       y       z     vdW  Elec       q    Type
REMARK                         _______ _______ _______ _____ _____    ______ ____
ROOT
ATOM      6  C   UNL     1      50.432  16.435  18.501  0.00  0.00    -0.103 A 
ATOM      7  C   UNL     1      51.371  15.476  18.085  0.00  0.00    +0.182 A 
ATOM     10  C   UNL     1      50.972  14.402  17.307  0.00  0.00    -0.103 A 
ATOM     11  C   UNL     1      49.644  14.263  16.934  0.00  0.00    +0.187 A 
ATOM     14  C   UNL     1      48.704  15.214  17.346  0.00  0.00    -0.158 A 
ATOM     15  C   UNL     1      47.285  15.099  16.972  0.00  0.00    +0.227 C 
ATOM     16  C   UNL     1      46.728  13.777  16.513  0.00  0.00    +0.139 C 
ATOM     17  N   UNL     1      46.513  16.131  17.051  0.00  0.00    -0.518 NA
ATOM     18  C   UNL     1      47.006  17.437  17.474  0.00  0.00    +0.151 C 
ATOM     19  C   UNL     1      45.835  18.263  18.012  0.00  0.00    +0.053 C 
ATOM     20  C   UNL     1      48.065  17.302  18.565  0.00  0.00    +0.076 C 
ATOM     21  C   UNL     1      49.103  16.298  18.135  0.00  0.00    +0.007 A 
ENDROOT
BRANCH   6   5
ATOM      1  C   UNL     1      51.745  20.222  15.260  0.00  0.00    +0.095 C 
ATOM      2  C   UNL     1      51.721  20.090  16.760  0.00  0.00    -0.050 A 
ATOM      3  C   UNL     1      51.309  18.921  17.325  0.00  0.00    +0.003 A 
ATOM      4  C   UNL     1      51.284  18.787  18.721  0.00  0.00    +0.022 A 
ATOM      5  C   UNL     1      50.860  17.583  19.333  0.00  0.00    -0.069 A 
ATOM     22  C   UNL     1      50.849  17.485  20.712  0.00  0.00    +0.070 A 
ATOM     23  C   UNL     1      51.247  18.556  21.504  0.00  0.00    -0.098 A 
ATOM     24  C   UNL     1      51.664  19.740  20.935  0.00  0.00    +0.162 A 
ATOM     27  C   UNL     1      51.689  19.873  19.532  0.00  0.00    -0.102 A 
ATOM     28  C   UNL     1      52.110  21.072  18.923  0.00  0.00    +0.146 A 
ATOM     31  C   UNL     1      52.126  21.163  17.548  0.00  0.00    -0.026 A 
BRANCH  24  25
ATOM     25  O   UNL     1      52.049  20.775  21.725  0.00  0.00    -0.295 OA
ATOM     26  C   UNL     1      51.034  21.409  22.505  0.00  0.00    +0.240 C 
ENDBRANCH  24  25
BRANCH  28  29
ATOM     29  O   UNL     1      52.502  22.126  19.684  0.00  0.00    -0.480 OA
ATOM     30  H   UNL     1      53.272  22.597  19.336  0.00  0.00    +0.391 HD
ENDBRANCH  28  29
ENDBRANCH   6   5
BRANCH   7   8
ATOM      8  O   UNL     1      52.673  15.604  18.445  0.00  0.00    -0.487 OA
ATOM      9  H   UNL     1      52.802  16.018  19.309  0.00  0.00    +0.395 HD
ENDBRANCH   7   8
BRANCH  11  12
ATOM     12  O   UNL     1      49.258  13.210  16.171  0.00  0.00    -0.299 OA
ATOM     13  C   UNL     1      50.180  12.755  15.178  0.00  0.00    +0.243 C 
ENDBRANCH  11  12
TORSDOF 5
ENDMDL
