MODEL 1
REMARK VINA RESULT:      -6.4      0.000      0.000
REMARK  Name = ZINC40393112
REMARK  6 active torsions:
REMARK  status: ('A' for Active; 'I' for Inactive)
REMARK    1  A    between atoms: C1_1  and  C2_2
REMARK    2  A    between atoms: C2_2  and  C3_4
REMARK    3  A    between atoms: C5_7  and  O2_30
REMARK    4  A    between atoms: C7_11  and  C21_29
REMARK    5  A    between atoms: C15_21  and  C20_28
REMARK    6  A    between atoms: C18_24  and  N1_27
REMARK                            x       y       z     vdW  Elec       q    Type
REMARK                         _______ _______ _______ _____ _____    ______ ____
ROOT
ATOM      3  C   UNL     1      45.401  16.206  19.466  0.00  0.00    -0.027 C 
ATOM      4  C   UNL     1      44.919  17.277  20.483  0.00  0.00    +0.013 C 
ATOM      5  C   UNL     1      45.825  18.516  20.275  0.00  0.00    +0.171 C 
ATOM      8  C   UNL     1      46.730  18.161  19.100  0.00  0.00    +0.013 C 
ATOM      9  C   UNL     1      48.134  18.733  19.129  0.00  0.00    +0.016 C 
ATOM     10  C   UNL     1      48.068  20.263  19.067  0.00  0.00    +0.076 C 
ATOM     11  C   UNL     1      49.457  20.812  18.923  0.00  0.00    +0.002 C 
ATOM     12  C   UNL     1      50.433  20.142  18.385  0.00  0.00    -0.167 C 
ATOM     13  C   UNL     1      50.292  18.745  17.838  0.00  0.00    -0.013 C 
ATOM     14  C   UNL     1      51.146  17.821  18.707  0.00  0.00    +0.035 C 
ATOM     15  C   UNL     1      50.847  18.679  16.411  0.00  0.00    +0.030 C 
ATOM     16  C   UNL     1      52.280  19.215  16.399  0.00  0.00    +0.059 C 
ATOM     17  C   UNL     1      52.282  20.688  16.814  0.00  0.00    +0.174 C 
ATOM     22  C   UNL     1      51.796  20.807  18.289  0.00  0.00    +0.112 C 
ATOM     23  C   UNL     1      48.862  18.232  17.863  0.00  0.00    +0.002 C 
ATOM     24  C   UNL     1      48.857  16.709  17.773  0.00  0.00    +0.020 C 
ATOM     25  C   UNL     1      47.435  16.136  17.874  0.00  0.00    +0.036 C 
ATOM     26  C   UNL     1      46.854  16.614  19.194  0.00  0.00    -0.046 C 
ATOM     27  C   UNL     1      47.750  16.218  20.368  0.00  0.00    +0.038 C 
ENDROOT
BRANCH  17  18
ATOM     18  N   UNL     1      51.391  21.448  15.929  0.00  0.00    -0.636 N 
ATOM     19  H   UNL     1      50.906  22.153  16.464  0.00  0.00    +0.435 HD
ATOM     20  H   UNL     1      50.718  20.823  15.510  0.00  0.00    +0.434 HD
ATOM     21  H   UNL     1      51.935  21.892  15.204  0.00  0.00    +0.432 HD
ENDBRANCH  17  18
BRANCH   3   2
ATOM      1  C   UNL     1      45.442  13.611  19.190  0.00  0.00    +0.062 C 
ATOM      2  C   UNL     1      45.339  14.828  20.072  0.00  0.00    +0.363 C 
ATOM     28  O   UNL     1      45.208  14.699  21.266  0.00  0.00    -0.451 OA
ENDBRANCH   3   2
BRANCH   5   6
ATOM      6  O   UNL     1      45.030  19.662  19.960  0.00  0.00    -0.565 OA
ATOM      7  H   UNL     1      44.817  20.214  20.724  0.00  0.00    +0.383 HD
ENDBRANCH   5   6
TORSDOF 3
ENDMDL
MODEL 2
REMARK VINA RESULT:      -5.9      3.223      6.291
REMARK  Name = ZINC40393112
REMARK  6 active torsions:
REMARK  status: ('A' for Active; 'I' for Inactive)
REMARK    1  A    between atoms: C1_1  and  C2_2
REMARK    2  A    between atoms: C2_2  and  C3_4
REMARK    3  A    between atoms: C5_7  and  O2_30
REMARK    4  A    between atoms: C7_11  and  C21_29
REMARK    5  A    between atoms: C15_21  and  C20_28
REMARK    6  A    between atoms: C18_24  and  N1_27
REMARK                            x       y       z     vdW  Elec       q    Type
REMARK                         _______ _______ _______ _____ _____    ______ ____
ROOT
ATOM      3  C   UNL     1      51.048  18.249  17.708  0.00  0.00    -0.027 C 
ATOM      4  C   UNL     1      50.678  16.742  17.637  0.00  0.00    +0.013 C 
ATOM      5  C   UNL     1      49.145  16.659  17.847  0.00  0.00    +0.171 C 
ATOM      8  C   UNL     1      48.672  18.105  17.941  0.00  0.00    +0.013 C 
ATOM      9  C   UNL     1      47.494  18.375  18.857  0.00  0.00    +0.016 C 
ATOM     10  C   UNL     1      46.256  17.638  18.335  0.00  0.00    +0.076 C 
ATOM     11  C   UNL     1      45.059  18.045  19.145  0.00  0.00    +0.002 C 
ATOM     12  C   UNL     1      44.973  19.189  19.757  0.00  0.00    -0.167 C 
ATOM     13  C   UNL     1      46.050  20.243  19.726  0.00  0.00    -0.013 C 
ATOM     14  C   UNL     1      46.598  20.385  21.147  0.00  0.00    +0.035 C 
ATOM     15  C   UNL     1      45.453  21.595  19.324  0.00  0.00    +0.030 C 
ATOM     16  C   UNL     1      44.280  21.926  20.247  0.00  0.00    +0.059 C 
ATOM     17  C   UNL     1      43.178  20.879  20.074  0.00  0.00    +0.174 C 
ATOM     22  C   UNL     1      43.708  19.491  20.542  0.00  0.00    +0.112 C 
ATOM     23  C   UNL     1      47.207  19.891  18.805  0.00  0.00    +0.002 C 
ATOM     24  C   UNL     1      48.436  20.712  19.181  0.00  0.00    +0.020 C 
ATOM     25  C   UNL     1      49.657  20.336  18.328  0.00  0.00    +0.036 C 
ATOM     26  C   UNL     1      49.902  18.850  18.530  0.00  0.00    -0.046 C 
ATOM     27  C   UNL     1      50.073  18.514  20.012  0.00  0.00    +0.038 C 
ENDROOT
BRANCH  17  18
ATOM     18  N   UNL     1      42.779  20.815  18.663  0.00  0.00    -0.636 N 
ATOM     19  H   UNL     1      42.019  21.459  18.498  0.00  0.00    +0.435 HD
ATOM     20  H   UNL     1      42.480  19.877  18.439  0.00  0.00    +0.434 HD
ATOM     21  H   UNL     1      43.564  21.065  18.080  0.00  0.00    +0.432 HD
ENDBRANCH  17  18
BRANCH   3   2
ATOM      1  C   UNL     1      53.021  17.283  19.116  0.00  0.00    +0.062 C 
ATOM      2  C   UNL     1      52.367  18.442  18.410  0.00  0.00    +0.363 C 
ATOM     28  O   UNL     1      52.900  19.526  18.408  0.00  0.00    -0.451 OA
ENDBRANCH   3   2
BRANCH   5   6
ATOM      6  O   UNL     1      48.529  16.006  16.734  0.00  0.00    -0.565 OA
ATOM      7  H   UNL     1      47.782  16.491  16.359  0.00  0.00    +0.383 HD
ENDBRANCH   5   6
TORSDOF 3
ENDMDL
MODEL 3
REMARK VINA RESULT:      -5.8      2.988      3.958
REMARK  Name = ZINC40393112
REMARK  6 active torsions:
REMARK  status: ('A' for Active; 'I' for Inactive)
REMARK    1  A    between atoms: C1_1  and  C2_2
REMARK    2  A    between atoms: C2_2  and  C3_4
REMARK    3  A    between atoms: C5_7  and  O2_30
REMARK    4  A    between atoms: C7_11  and  C21_29
REMARK    5  A    between atoms: C15_21  and  C20_28
REMARK    6  A    between atoms: C18_24  and  N1_27
REMARK                            x       y       z     vdW  Elec       q    Type
REMARK                         _______ _______ _______ _____ _____    ______ ____
ROOT
ATOM      3  C   UNL     1      44.042  21.014  19.857  0.00  0.00    -0.027 C 
ATOM      4  C   UNL     1      43.882  21.333  21.369  0.00  0.00    +0.013 C 
ATOM      5  C   UNL     1      45.311  21.578  21.916  0.00  0.00    +0.171 C 
ATOM      8  C   UNL     1      46.229  21.483  20.703  0.00  0.00    +0.013 C 
ATOM      9  C   UNL     1      47.616  20.919  20.945  0.00  0.00    +0.016 C 
ATOM     10  C   UNL     1      48.389  21.841  21.894  0.00  0.00    +0.076 C 
ATOM     11  C   UNL     1      49.811  21.370  21.993  0.00  0.00    +0.002 C 
ATOM     12  C   UNL     1      50.403  20.700  21.049  0.00  0.00    -0.167 C 
ATOM     13  C   UNL     1      49.745  20.320  19.748  0.00  0.00    -0.013 C 
ATOM     14  C   UNL     1      49.632  18.795  19.717  0.00  0.00    +0.035 C 
ATOM     15  C   UNL     1      50.628  20.742  18.569  0.00  0.00    +0.030 C 
ATOM     16  C   UNL     1      52.032  20.163  18.754  0.00  0.00    +0.059 C 
ATOM     17  C   UNL     1      52.665  20.744  20.019  0.00  0.00    +0.174 C 
ATOM     22  C   UNL     1      51.849  20.283  21.262  0.00  0.00    +0.112 C 
ATOM     23  C   UNL     1      48.351  20.903  19.588  0.00  0.00    +0.002 C 
ATOM     24  C   UNL     1      47.578  20.113  18.536  0.00  0.00    +0.020 C 
ATOM     25  C   UNL     1      46.133  20.615  18.393  0.00  0.00    +0.036 C 
ATOM     26  C   UNL     1      45.482  20.498  19.761  0.00  0.00    -0.046 C 
ATOM     27  C   UNL     1      45.576  19.068  20.297  0.00  0.00    +0.038 C 
ENDROOT
BRANCH  17  18
ATOM     18  N   UNL     1      52.669  22.210  19.937  0.00  0.00    -0.636 N 
ATOM     19  H   UNL     1      53.117  22.592  20.757  0.00  0.00    +0.435 HD
ATOM     20  H   UNL     1      51.719  22.547  19.884  0.00  0.00    +0.434 HD
ATOM     21  H   UNL     1      53.175  22.500  19.112  0.00  0.00    +0.432 HD
ENDBRANCH  17  18
BRANCH   3   2
ATOM      1  C   UNL     1      42.471  19.018  20.456  0.00  0.00    +0.062 C 
ATOM      2  C   UNL     1      43.065  19.949  19.431  0.00  0.00    +0.363 C 
ATOM     28  O   UNL     1      42.757  19.842  18.268  0.00  0.00    -0.451 OA
ENDBRANCH   3   2
BRANCH   5   6
ATOM      6  O   UNL     1      45.399  22.879  22.504  0.00  0.00    -0.565 OA
ATOM      7  H   UNL     1      46.211  23.029  23.006  0.00  0.00    +0.383 HD
ENDBRANCH   5   6
TORSDOF 3
ENDMDL
MODEL 4
REMARK VINA RESULT:      -5.7      1.395      1.768
REMARK  Name = ZINC40393112
REMARK  6 active torsions:
REMARK  status: ('A' for Active; 'I' for Inactive)
REMARK    1  A    between atoms: C1_1  and  C2_2
REMARK    2  A    between atoms: C2_2  and  C3_4
REMARK    3  A    between atoms: C5_7  and  O2_30
REMARK    4  A    between atoms: C7_11  and  C21_29
REMARK    5  A    between atoms: C15_21  and  C20_28
REMARK    6  A    between atoms: C18_24  and  N1_27
REMARK                            x       y       z     vdW  Elec       q    Type
REMARK                         _______ _______ _______ _____ _____    ______ ____
ROOT
ATOM      3  C   UNL     1      44.776  17.123  20.284  0.00  0.00    -0.027 C 
ATOM      4  C   UNL     1      44.153  18.536  20.455  0.00  0.00    +0.013 C 
ATOM      5  C   UNL     1      45.221  19.546  19.966  0.00  0.00    +0.171 C 
ATOM      8  C   UNL     1      46.376  18.695  19.451  0.00  0.00    +0.013 C 
ATOM      9  C   UNL     1      47.770  19.263  19.631  0.00  0.00    +0.016 C 
ATOM     10  C   UNL     1      47.906  20.558  18.823  0.00  0.00    +0.076 C 
ATOM     11  C   UNL     1      49.333  21.021  18.867  0.00  0.00    +0.002 C 
ATOM     12  C   UNL     1      50.336  20.213  19.048  0.00  0.00    -0.167 C 
ATOM     13  C   UNL     1      50.194  18.724  19.229  0.00  0.00    -0.013 C 
ATOM     14  C   UNL     1      50.647  18.386  20.650  0.00  0.00    +0.035 C 
ATOM     15  C   UNL     1      51.122  17.985  18.260  0.00  0.00    +0.030 C 
ATOM     16  C   UNL     1      52.551  18.503  18.432  0.00  0.00    +0.059 C 
ATOM     17  C   UNL     1      52.608  19.987  18.065  0.00  0.00    +0.174 C 
ATOM     22  C   UNL     1      51.738  20.799  19.068  0.00  0.00    +0.112 C 
ATOM     23  C   UNL     1      48.766  18.232  19.057  0.00  0.00    +0.002 C 
ATOM     24  C   UNL     1      48.606  16.865  19.715  0.00  0.00    +0.020 C 
ATOM     25  C   UNL     1      47.158  16.360  19.637  0.00  0.00    +0.036 C 
ATOM     26  C   UNL     1      46.284  17.403  20.311  0.00  0.00    -0.046 C 
ATOM     27  C   UNL     1      46.752  17.676  21.741  0.00  0.00    +0.038 C 
ENDROOT
BRANCH  17  18
ATOM     18  N   UNL     1      52.105  20.173  16.698  0.00  0.00    -0.636 N 
ATOM     19  H   UNL     1      51.443  20.935  16.684  0.00  0.00    +0.435 HD
ATOM     20  H   UNL     1      51.650  19.327  16.388  0.00  0.00    +0.434 HD
ATOM     21  H   UNL     1      52.875  20.386  16.082  0.00  0.00    +0.432 HD
ENDBRANCH  17  18
BRANCH   3   2
ATOM      1  C   UNL     1      43.424  16.719  22.479  0.00  0.00    +0.062 C 
ATOM      2  C   UNL     1      44.381  16.224  21.427  0.00  0.00    +0.363 C 
ATOM     28  O   UNL     1      44.831  15.105  21.498  0.00  0.00    -0.451 OA
ENDBRANCH   3   2
BRANCH   5   6
ATOM      6  O   UNL     1      44.691  20.354  18.912  0.00  0.00    -0.565 OA
ATOM      7  H   UNL     1      44.983  20.089  18.030  0.00  0.00    +0.383 HD
ENDBRANCH   5   6
TORSDOF 3
ENDMDL
MODEL 5
REMARK VINA RESULT:      -5.7      3.287      6.749
REMARK  Name = ZINC40393112
REMARK  6 active torsions:
REMARK  status: ('A' for Active; 'I' for Inactive)
REMARK    1  A    between atoms: C1_1  and  C2_2
REMARK    2  A    between atoms: C2_2  and  C3_4
REMARK    3  A    between atoms: C5_7  and  O2_30
REMARK    4  A    between atoms: C7_11  and  C21_29
REMARK    5  A    between atoms: C15_21  and  C20_28
REMARK    6  A    between atoms: C18_24  and  N1_27
REMARK                            x       y       z     vdW  Elec       q    Type
REMARK                         _______ _______ _______ _____ _____    ______ ____
ROOT
ATOM      3  C   UNL     1      50.417  19.213  17.808  0.00  0.00    -0.027 C 
ATOM      4  C   UNL     1      50.252  17.768  17.263  0.00  0.00    +0.013 C 
ATOM      5  C   UNL     1      48.828  17.309  17.664  0.00  0.00    +0.171 C 
ATOM      8  C   UNL     1      48.190  18.519  18.339  0.00  0.00    +0.013 C 
ATOM      9  C   UNL     1      47.212  18.232  19.462  0.00  0.00    +0.016 C 
ATOM     10  C   UNL     1      46.005  17.465  18.909  0.00  0.00    +0.076 C 
ATOM     11  C   UNL     1      44.967  17.335  19.985  0.00  0.00    +0.002 C 
ATOM     12  C   UNL     1      44.857  18.177  20.970  0.00  0.00    -0.167 C 
ATOM     13  C   UNL     1      45.745  19.381  21.151  0.00  0.00    -0.013 C 
ATOM     14  C   UNL     1      46.561  19.165  22.426  0.00  0.00    +0.035 C 
ATOM     15  C   UNL     1      44.894  20.638  21.355  0.00  0.00    +0.030 C 
ATOM     16  C   UNL     1      43.913  20.405  22.505  0.00  0.00    +0.059 C 
ATOM     17  C   UNL     1      42.956  19.269  22.143  0.00  0.00    +0.174 C 
ATOM     22  C   UNL     1      43.761  17.944  21.997  0.00  0.00    +0.112 C 
ATOM     23  C   UNL     1      46.713  19.591  19.998  0.00  0.00    +0.002 C 
ATOM     24  C   UNL     1      47.869  20.479  20.447  0.00  0.00    +0.020 C 
ATOM     25  C   UNL     1      48.917  20.657  19.339  0.00  0.00    +0.036 C 
ATOM     26  C   UNL     1      49.403  19.269  18.957  0.00  0.00    -0.046 C 
ATOM     27  C   UNL     1      49.935  18.515  20.177  0.00  0.00    +0.038 C 
ENDROOT
BRANCH  17  18
ATOM     18  N   UNL     1      42.275  19.584  20.881  0.00  0.00    -0.636 N 
ATOM     19  H   UNL     1      42.871  20.170  20.315  0.00  0.00    +0.435 HD
ATOM     20  H   UNL     1      41.412  20.070  21.076  0.00  0.00    +0.434 HD
ATOM     21  H   UNL     1      42.073  18.729  20.384  0.00  0.00    +0.432 HD
ENDBRANCH  17  18
BRANCH   3   2
ATOM      1  C   UNL     1      52.257  20.813  18.737  0.00  0.00    +0.062 C 
ATOM      2  C   UNL     1      51.816  19.434  18.321  0.00  0.00    +0.363 C 
ATOM     28  O   UNL     1      52.585  18.506  18.397  0.00  0.00    -0.451 OA
ENDBRANCH   3   2
BRANCH   5   6
ATOM      6  O   UNL     1      48.082  16.939  16.501  0.00  0.00    -0.565 OA
ATOM      7  H   UNL     1      47.718  16.045  16.537  0.00  0.00    +0.383 HD
ENDBRANCH   5   6
TORSDOF 3
ENDMDL
MODEL 6
REMARK VINA RESULT:      -5.5      3.567      5.355
REMARK  Name = ZINC40393112
REMARK  6 active torsions:
REMARK  status: ('A' for Active; 'I' for Inactive)
REMARK    1  A    between atoms: C1_1  and  C2_2
REMARK    2  A    between atoms: C2_2  and  C3_4
REMARK    3  A    between atoms: C5_7  and  O2_30
REMARK    4  A    between atoms: C7_11  and  C21_29
REMARK    5  A    between atoms: C15_21  and  C20_28
REMARK    6  A    between atoms: C18_24  and  N1_27
REMARK                            x       y       z     vdW  Elec       q    Type
REMARK                         _______ _______ _______ _____ _____    ______ ____
ROOT
ATOM      3  C   UNL     1      46.891  13.545  17.191  0.00  0.00    -0.027 C 
ATOM      4  C   UNL     1      46.703  12.757  18.516  0.00  0.00    +0.013 C 
ATOM      5  C   UNL     1      46.074  13.747  19.527  0.00  0.00    +0.171 C 
ATOM      8  C   UNL     1      45.839  15.032  18.741  0.00  0.00    +0.013 C 
ATOM      9  C   UNL     1      45.980  16.332  19.508  0.00  0.00    +0.016 C 
ATOM     10  C   UNL     1      44.916  16.398  20.609  0.00  0.00    +0.076 C 
ATOM     11  C   UNL     1      44.951  17.755  21.250  0.00  0.00    +0.002 C 
ATOM     12  C   UNL     1      45.373  18.820  20.634  0.00  0.00    -0.167 C 
ATOM     13  C   UNL     1      45.870  18.827  19.211  0.00  0.00    -0.013 C 
ATOM     14  C   UNL     1      47.357  19.181  19.243  0.00  0.00    +0.035 C 
ATOM     15  C   UNL     1      45.152  19.918  18.409  0.00  0.00    +0.030 C 
ATOM     16  C   UNL     1      45.300  21.258  19.130  0.00  0.00    +0.059 C 
ATOM     17  C   UNL     1      44.618  21.185  20.497  0.00  0.00    +0.174 C 
ATOM     22  C   UNL     1      45.356  20.140  21.386  0.00  0.00    +0.112 C 
ATOM     23  C   UNL     1      45.716  17.485  18.516  0.00  0.00    +0.002 C 
ATOM     24  C   UNL     1      46.649  17.417  17.310  0.00  0.00    +0.020 C 
ATOM     25  C   UNL     1      46.589  16.046  16.618  0.00  0.00    +0.036 C 
ATOM     26  C   UNL     1      46.955  15.003  17.660  0.00  0.00    -0.046 C 
ATOM     27  C   UNL     1      48.317  15.304  18.288  0.00  0.00    +0.038 C 
ENDROOT
BRANCH  17  18
ATOM     18  N   UNL     1      43.213  20.793  20.324  0.00  0.00    -0.636 N 
ATOM     19  H   UNL     1      43.169  19.895  19.866  0.00  0.00    +0.435 HD
ATOM     20  H   UNL     1      42.738  21.482  19.759  0.00  0.00    +0.434 HD
ATOM     21  H   UNL     1      42.766  20.732  21.227  0.00  0.00    +0.432 HD
ENDBRANCH  17  18
BRANCH   3   2
ATOM      1  C   UNL     1      49.175  12.284  17.235  0.00  0.00    +0.062 C 
ATOM      2  C   UNL     1      48.175  13.147  16.511  0.00  0.00    +0.363 C 
ATOM     28  O   UNL     1      48.404  13.521  15.385  0.00  0.00    -0.451 OA
ENDBRANCH   3   2
BRANCH   5   6
ATOM      6  O   UNL     1      44.834  13.231  20.018  0.00  0.00    -0.565 OA
ATOM      7  H   UNL     1      44.907  12.363  20.437  0.00  0.00    +0.383 HD
ENDBRANCH   5   6
TORSDOF 3
ENDMDL
MODEL 7
REMARK VINA RESULT:      -5.4      3.317      6.887
REMARK  Name = ZINC40393112
REMARK  6 active torsions:
REMARK  status: ('A' for Active; 'I' for Inactive)
REMARK    1  A    between atoms: C1_1  and  C2_2
REMARK    2  A    between atoms: C2_2  and  C3_4
REMARK    3  A    between atoms: C5_7  and  O2_30
REMARK    4  A    between atoms: C7_11  and  C21_29
REMARK    5  A    between atoms: C15_21  and  C20_28
REMARK    6  A    between atoms: C18_24  and  N1_27
REMARK                            x       y       z     vdW  Elec       q    Type
REMARK                         _______ _______ _______ _____ _____    ______ ____
ROOT
ATOM      3  C   UNL     1      50.807  19.705  17.987  0.00  0.00    -0.027 C 
ATOM      4  C   UNL     1      52.123  19.039  17.501  0.00  0.00    +0.013 C 
ATOM      5  C   UNL     1      51.769  17.569  17.160  0.00  0.00    +0.171 C 
ATOM      8  C   UNL     1      50.263  17.458  17.372  0.00  0.00    +0.013 C 
ATOM      9  C   UNL     1      49.744  16.124  17.871  0.00  0.00    +0.016 C 
ATOM     10  C   UNL     1      50.030  15.038  16.828  0.00  0.00    +0.076 C 
ATOM     11  C   UNL     1      49.365  13.760  17.249  0.00  0.00    +0.002 C 
ATOM     12  C   UNL     1      48.310  13.726  18.009  0.00  0.00    -0.167 C 
ATOM     13  C   UNL     1      47.624  14.953  18.551  0.00  0.00    -0.013 C 
ATOM     14  C   UNL     1      47.786  14.938  20.072  0.00  0.00    +0.035 C 
ATOM     15  C   UNL     1      46.124  14.897  18.246  0.00  0.00    +0.030 C 
ATOM     16  C   UNL     1      45.550  13.578  18.765  0.00  0.00    +0.059 C 
ATOM     17  C   UNL     1      46.203  12.407  18.028  0.00  0.00    +0.174 C 
ATOM     22  C   UNL     1      47.723  12.370  18.364  0.00  0.00    +0.112 C 
ATOM     23  C   UNL     1      48.213  16.251  18.024  0.00  0.00    +0.002 C 
ATOM     24  C   UNL     1      47.832  17.405  18.947  0.00  0.00    +0.020 C 
ATOM     25  C   UNL     1      48.470  18.729  18.500  0.00  0.00    +0.036 C 
ATOM     26  C   UNL     1      49.974  18.514  18.476  0.00  0.00    -0.046 C 
ATOM     27  C   UNL     1      50.484  18.024  19.832  0.00  0.00    +0.038 C 
ENDROOT
BRANCH  17  18
ATOM     18  N   UNL     1      46.012  12.570  16.582  0.00  0.00    -0.636 N 
ATOM     19  H   UNL     1      46.426  13.441  16.284  0.00  0.00    +0.435 HD
ATOM     20  H   UNL     1      45.025  12.577  16.371  0.00  0.00    +0.434 HD
ATOM     21  H   UNL     1      46.454  11.804  16.095  0.00  0.00    +0.432 HD
ENDBRANCH  17  18
BRANCH   3   2
ATOM      1  C   UNL     1      52.499  20.989  19.503  0.00  0.00    +0.062 C 
ATOM      2  C   UNL     1      51.080  20.664  19.117  0.00  0.00    +0.363 C 
ATOM     28  O   UNL     1      50.161  21.172  19.714  0.00  0.00    -0.451 OA
ENDBRANCH   3   2
BRANCH   5   6
ATOM      6  O   UNL     1      52.101  17.283  15.800  0.00  0.00    -0.565 OA
ATOM      7  H   UNL     1      51.847  17.979  15.178  0.00  0.00    +0.383 HD
ENDBRANCH   5   6
TORSDOF 3
ENDMDL
MODEL 8
REMARK VINA RESULT:      -5.4      3.327      6.021
REMARK  Name = ZINC40393112
REMARK  6 active torsions:
REMARK  status: ('A' for Active; 'I' for Inactive)
REMARK    1  A    between atoms: C1_1  and  C2_2
REMARK    2  A    between atoms: C2_2  and  C3_4
REMARK    3  A    between atoms: C5_7  and  O2_30
REMARK    4  A    between atoms: C7_11  and  C21_29
REMARK    5  A    between atoms: C15_21  and  C20_28
REMARK    6  A    between atoms: C18_24  and  N1_27
REMARK                            x       y       z     vdW  Elec       q    Type
REMARK                         _______ _______ _______ _____ _____    ______ ____
ROOT
ATOM      3  C   UNL     1      51.452  17.668  18.616  0.00  0.00    -0.027 C 
ATOM      4  C   UNL     1      51.830  18.997  17.905  0.00  0.00    +0.013 C 
ATOM      5  C   UNL     1      50.632  19.957  18.111  0.00  0.00    +0.171 C 
ATOM      8  C   UNL     1      49.652  19.196  18.997  0.00  0.00    +0.013 C 
ATOM      9  C   UNL     1      48.178  19.464  18.764  0.00  0.00    +0.016 C 
ATOM     10  C   UNL     1      47.865  20.931  19.079  0.00  0.00    +0.076 C 
ATOM     11  C   UNL     1      46.381  21.146  19.012  0.00  0.00    +0.002 C 
ATOM     12  C   UNL     1      45.517  20.196  19.220  0.00  0.00    -0.167 C 
ATOM     13  C   UNL     1      45.893  18.776  19.557  0.00  0.00    -0.013 C 
ATOM     14  C   UNL     1      45.444  17.891  18.393  0.00  0.00    +0.035 C 
ATOM     15  C   UNL     1      45.136  18.314  20.807  0.00  0.00    +0.030 C 
ATOM     16  C   UNL     1      43.636  18.533  20.601  0.00  0.00    +0.059 C 
ATOM     17  C   UNL     1      43.353  20.026  20.432  0.00  0.00    +0.174 C 
ATOM     22  C   UNL     1      44.039  20.537  19.130  0.00  0.00    +0.112 C 
ATOM     23  C   UNL     1      47.387  18.581  19.753  0.00  0.00    +0.002 C 
ATOM     24  C   UNL     1      47.741  17.105  19.601  0.00  0.00    +0.020 C 
ATOM     25  C   UNL     1      49.254  16.867  19.712  0.00  0.00    +0.036 C 
ATOM     26  C   UNL     1      49.920  17.708  18.637  0.00  0.00    -0.046 C 
ATOM     27  C   UNL     1      49.356  17.382  17.252  0.00  0.00    +0.038 C 
ENDROOT
BRANCH  17  18
ATOM     18  N   UNL     1      43.873  20.759  21.594  0.00  0.00    -0.636 N 
ATOM     19  H   UNL     1      44.157  21.684  21.308  0.00  0.00    +0.435 HD
ATOM     20  H   UNL     1      44.666  20.265  21.976  0.00  0.00    +0.434 HD
ATOM     21  H   UNL     1      43.152  20.831  22.297  0.00  0.00    +0.432 HD
ENDBRANCH  17  18
BRANCH   3   2
ATOM      1  C   UNL     1      52.097  15.142  18.497  0.00  0.00    +0.062 C 
ATOM      2  C   UNL     1      51.943  16.482  17.826  0.00  0.00    +0.363 C 
ATOM     28  O   UNL     1      52.213  16.606  16.655  0.00  0.00    -0.451 OA
ENDBRANCH   3   2
BRANCH   5   6
ATOM      6  O   UNL     1      51.065  21.154  18.762  0.00  0.00    -0.565 OA
ATOM      7  H   UNL     1      50.434  21.501  19.407  0.00  0.00    +0.383 HD
ENDBRANCH   5   6
TORSDOF 3
ENDMDL
MODEL 9
REMARK VINA RESULT:      -5.2      2.886      5.629
REMARK  Name = ZINC40393112
REMARK  6 active torsions:
REMARK  status: ('A' for Active; 'I' for Inactive)
REMARK    1  A    between atoms: C1_1  and  C2_2
REMARK    2  A    between atoms: C2_2  and  C3_4
REMARK    3  A    between atoms: C5_7  and  O2_30
REMARK    4  A    between atoms: C7_11  and  C21_29
REMARK    5  A    between atoms: C15_21  and  C20_28
REMARK    6  A    between atoms: C18_24  and  N1_27
REMARK                            x       y       z     vdW  Elec       q    Type
REMARK                         _______ _______ _______ _____ _____    ______ ____
ROOT
ATOM      3  C   UNL     1      47.467  20.573  19.046  0.00  0.00    -0.027 C 
ATOM      4  C   UNL     1      48.976  20.798  19.339  0.00  0.00    +0.013 C 
ATOM      5  C   UNL     1      49.720  19.567  18.765  0.00  0.00    +0.171 C 
ATOM      8  C   UNL     1      48.644  18.724  18.089  0.00  0.00    +0.013 C 
ATOM      9  C   UNL     1      48.837  17.221  18.124  0.00  0.00    +0.016 C 
ATOM     10  C   UNL     1      50.108  16.847  17.353  0.00  0.00    +0.076 C 
ATOM     11  C   UNL     1      50.200  15.352  17.247  0.00  0.00    +0.002 C 
ATOM     12  C   UNL     1      49.159  14.573  17.280  0.00  0.00    -0.167 C 
ATOM     13  C   UNL     1      47.743  15.068  17.423  0.00  0.00    -0.013 C 
ATOM     14  C   UNL     1      47.213  14.569  18.768  0.00  0.00    +0.035 C 
ATOM     15  C   UNL     1      46.861  14.462  16.326  0.00  0.00    +0.030 C 
ATOM     16  C   UNL     1      46.998  12.939  16.349  0.00  0.00    +0.059 C 
ATOM     17  C   UNL     1      48.442  12.547  16.031  0.00  0.00    +0.174 C 
ATOM     22  C   UNL     1      49.379  13.074  17.158  0.00  0.00    +0.112 C 
ATOM     23  C   UNL     1      47.632  16.583  17.401  0.00  0.00    +0.002 C 
ATOM     24  C   UNL     1      46.307  17.014  18.024  0.00  0.00    +0.020 C 
ATOM     25  C   UNL     1      46.181  18.543  18.097  0.00  0.00    +0.036 C 
ATOM     26  C   UNL     1      47.363  19.050  18.906  0.00  0.00    -0.046 C 
ATOM     27  C   UNL     1      47.419  18.381  20.281  0.00  0.00    +0.038 C 
ENDROOT
BRANCH  17  18
ATOM     18  N   UNL     1      48.835  13.126  14.740  0.00  0.00    -0.636 N 
ATOM     19  H   UNL     1      49.487  12.509  14.279  0.00  0.00    +0.435 HD
ATOM     20  H   UNL     1      49.271  14.024  14.892  0.00  0.00    +0.434 HD
ATOM     21  H   UNL     1      48.016  13.244  14.161  0.00  0.00    +0.432 HD
ENDBRANCH  17  18
BRANCH   3   2
ATOM      1  C   UNL     1      47.278  21.636  21.422  0.00  0.00    +0.062 C 
ATOM      2  C   UNL     1      46.621  21.062  20.193  0.00  0.00    +0.363 C 
ATOM     28  O   UNL     1      45.417  20.994  20.129  0.00  0.00    -0.451 OA
ENDBRANCH   3   2
BRANCH   5   6
ATOM      6  O   UNL     1      50.699  19.982  17.810  0.00  0.00    -0.565 OA
ATOM      7  H   UNL     1      51.595  19.677  18.007  0.00  0.00    +0.383 HD
ENDBRANCH   5   6
TORSDOF 3
ENDMDL
