MODEL 1
REMARK VINA RESULT:      -6.5      0.000      0.000
REMARK  Name = ZINC14686464
REMARK  9 active torsions:
REMARK  status: ('A' for Active; 'I' for Inactive)
REMARK    1  A    between atoms: C1_1  and  N1_2
REMARK    2  A    between atoms: C14_16  and  O2_17
REMARK    3  A    between atoms: C15_19  and  C17_22
REMARK    4  A    between atoms: C17_22  and  C18_23
REMARK    5  A    between atoms: C17_22  and  C19_25
REMARK    6  A    between atoms: C17_22  and  O7_29
REMARK    7  A    between atoms: C18_23  and  O4_24
REMARK    8  A    between atoms: C19_25  and  O6_27
REMARK    9  A    between atoms: O6_27  and  C20_28
REMARK                            x       y       z     vdW  Elec       q    Type
REMARK                         _______ _______ _______ _____ _____    ______ ____
ROOT
ATOM      1  C   UNL     1      48.506  20.920  20.076  0.00  0.00    +0.308 C 
ATOM      2  N   UNL     1      48.948  19.849  19.180  0.00  0.00    -0.519 N 
ATOM      3  C   UNL     1      50.272  19.808  18.798  0.00  0.00    +0.216 A 
ATOM      4  C   UNL     1      51.163  20.773  19.265  0.00  0.00    -0.051 A 
ATOM      5  C   UNL     1      52.485  20.733  18.883  0.00  0.00    +0.085 A 
ATOM      6  C   UNL     1      52.948  19.738  18.033  0.00  0.00    -0.032 A 
ATOM      7  C   UNL     1      52.086  18.775  17.559  0.00  0.00    +0.118 A 
ATOM      8  C   UNL     1      50.742  18.803  17.937  0.00  0.00    -0.207 A 
ATOM      9  C   UNL     1      49.800  17.781  17.443  0.00  0.00    +0.440 A 
ATOM     10  C   UNL     1      48.403  17.873  17.889  0.00  0.00    -0.271 A 
ATOM     11  C   UNL     1      47.450  16.935  17.467  0.00  0.00    +0.248 A 
ATOM     14  C   UNL     1      46.143  17.042  17.895  0.00  0.00    -0.065 A 
ATOM     15  C   UNL     1      45.758  18.079  18.749  0.00  0.00    +0.205 A 
ATOM     16  O   UNL     1      44.533  18.360  19.268  0.00  0.00    -0.274 OA
ATOM     17  C   UNL     1      44.686  19.219  20.411  0.00  0.00    +0.197 C 
ATOM     28  C   UNL     1      45.998  19.976  20.095  0.00  0.00    +0.089 C 
ATOM     29  C   UNL     1      46.705  19.002  19.172  0.00  0.00    -0.262 A 
ATOM     30  O   UNL     1      50.166  16.893  16.695  0.00  0.00    -0.454 OA
ATOM     31  C   UNL     1      48.023  18.918  18.753  0.00  0.00    +0.296 A 
ENDROOT
BRANCH  11  12
ATOM     12  O   UNL     1      47.812  15.924  16.638  0.00  0.00    -0.471 OA
ATOM     13  H   UNL     1      48.678  16.045  16.224  0.00  0.00    +0.404 HD
ENDBRANCH  11  12
BRANCH  17  18
ATOM     18  C   UNL     1      43.511  20.193  20.519  0.00  0.00    +0.160 C 
BRANCH  18  19
ATOM     19  O   UNL     1      43.170  20.377  21.894  0.00  0.00    -0.519 OA
ATOM     20  H   UNL     1      42.307  20.014  22.137  0.00  0.00    +0.389 HD
ENDBRANCH  18  19
BRANCH  18  21
ATOM     21  C   UNL     1      42.325  19.633  19.777  0.00  0.00    +0.445 C 
ATOM     24  O   UNL     1      41.579  18.858  20.328  0.00  0.00    -0.480 OA
BRANCH  21  22
ATOM     22  O   UNL     1      42.097  19.994  18.504  0.00  0.00    -0.345 OA
ATOM     23  C   UNL     1      40.713  20.018  18.064  0.00  0.00    +0.272 C 
ENDBRANCH  21  22
ENDBRANCH  18  21
BRANCH  18  25
ATOM     25  C   UNL     1      43.906  21.539  19.906  0.00  0.00    +0.247 C 
BRANCH  25  26
ATOM     26  O   UNL     1      42.771  22.408  19.898  0.00  0.00    -0.564 OA
ATOM     27  H   UNL     1      42.103  22.188  20.562  0.00  0.00    +0.397 HD
ENDBRANCH  25  26
ENDBRANCH  18  25
ENDBRANCH  17  18
TORSDOF 7
ENDMDL
MODEL 2
REMARK VINA RESULT:      -6.2      2.007      3.897
REMARK  Name = ZINC14686464
REMARK  9 active torsions:
REMARK  status: ('A' for Active; 'I' for Inactive)
REMARK    1  A    between atoms: C1_1  and  N1_2
REMARK    2  A    between atoms: C14_16  and  O2_17
REMARK    3  A    between atoms: C15_19  and  C17_22
REMARK    4  A    between atoms: C17_22  and  C18_23
REMARK    5  A    between atoms: C17_22  and  C19_25
REMARK    6  A    between atoms: C17_22  and  O7_29
REMARK    7  A    between atoms: C18_23  and  O4_24
REMARK    8  A    between atoms: C19_25  and  O6_27
REMARK    9  A    between atoms: O6_27  and  C20_28
REMARK                            x       y       z     vdW  Elec       q    Type
REMARK                         _______ _______ _______ _____ _____    ______ ____
ROOT
ATOM      1  C   UNL     1      45.842  17.280  18.096  0.00  0.00    +0.308 C 
ATOM      2  N   UNL     1      47.305  17.301  18.019  0.00  0.00    -0.519 N 
ATOM      3  C   UNL     1      47.958  16.200  17.508  0.00  0.00    +0.216 A 
ATOM      4  C   UNL     1      47.227  15.096  17.072  0.00  0.00    -0.051 A 
ATOM      5  C   UNL     1      47.879  13.995  16.562  0.00  0.00    +0.085 A 
ATOM      6  C   UNL     1      49.264  13.970  16.473  0.00  0.00    -0.032 A 
ATOM      7  C   UNL     1      50.005  15.049  16.897  0.00  0.00    +0.118 A 
ATOM      8  C   UNL     1      49.359  16.172  17.418  0.00  0.00    -0.207 A 
ATOM      9  C   UNL     1      50.133  17.341  17.877  0.00  0.00    +0.440 A 
ATOM     10  C   UNL     1      49.381  18.486  18.408  0.00  0.00    -0.271 A 
ATOM     11  C   UNL     1      50.047  19.636  18.859  0.00  0.00    +0.248 A 
ATOM     14  C   UNL     1      49.322  20.699  19.357  0.00  0.00    -0.065 A 
ATOM     15  C   UNL     1      47.927  20.641  19.416  0.00  0.00    +0.205 A 
ATOM     16  O   UNL     1      47.043  21.568  19.876  0.00  0.00    -0.274 OA
ATOM     17  C   UNL     1      45.737  21.283  19.347  0.00  0.00    +0.197 C 
ATOM     28  C   UNL     1      45.783  19.752  19.130  0.00  0.00    +0.089 C 
ATOM     29  C   UNL     1      47.270  19.506  18.961  0.00  0.00    -0.262 A 
ATOM     30  O   UNL     1      51.349  17.356  17.818  0.00  0.00    -0.454 OA
ATOM     31  C   UNL     1      47.976  18.423  18.460  0.00  0.00    +0.296 A 
ENDROOT
BRANCH  11  12
ATOM     12  O   UNL     1      51.400  19.702  18.807  0.00  0.00    -0.471 OA
ATOM     13  H   UNL     1      51.825  18.875  18.542  0.00  0.00    +0.404 HD
ENDBRANCH  11  12
BRANCH  17  18
ATOM     18  C   UNL     1      44.650  21.655  20.357  0.00  0.00    +0.160 C 
BRANCH  18  19
ATOM     19  O   UNL     1      44.344  20.519  21.168  0.00  0.00    -0.519 OA
ATOM     20  H   UNL     1      44.855  19.728  20.946  0.00  0.00    +0.389 HD
ENDBRANCH  18  19
BRANCH  18  21
ATOM     21  C   UNL     1      43.411  22.095  19.622  0.00  0.00    +0.445 C 
ATOM     24  O   UNL     1      43.193  23.272  19.456  0.00  0.00    -0.480 OA
BRANCH  21  22
ATOM     22  O   UNL     1      42.548  21.180  19.153  0.00  0.00    -0.345 OA
ATOM     23  C   UNL     1      41.229  21.653  18.769  0.00  0.00    +0.272 C 
ENDBRANCH  21  22
ENDBRANCH  18  21
BRANCH  18  25
ATOM     25  C   UNL     1      45.148  22.797  21.246  0.00  0.00    +0.247 C 
BRANCH  25  26
ATOM     26  O   UNL     1      44.090  23.227  22.105  0.00  0.00    -0.564 OA
ATOM     27  H   UNL     1      43.257  23.400  21.645  0.00  0.00    +0.397 HD
ENDBRANCH  25  26
ENDBRANCH  18  25
ENDBRANCH  17  18
TORSDOF 7
ENDMDL
MODEL 3
REMARK VINA RESULT:      -6.2      2.921      6.458
REMARK  Name = ZINC14686464
REMARK  9 active torsions:
REMARK  status: ('A' for Active; 'I' for Inactive)
REMARK    1  A    between atoms: C1_1  and  N1_2
REMARK    2  A    between atoms: C14_16  and  O2_17
REMARK    3  A    between atoms: C15_19  and  C17_22
REMARK    4  A    between atoms: C17_22  and  C18_23
REMARK    5  A    between atoms: C17_22  and  C19_25
REMARK    6  A    between atoms: C17_22  and  O7_29
REMARK    7  A    between atoms: C18_23  and  O4_24
REMARK    8  A    between atoms: C19_25  and  O6_27
REMARK    9  A    between atoms: O6_27  and  C20_28
REMARK                            x       y       z     vdW  Elec       q    Type
REMARK                         _______ _______ _______ _____ _____    ______ ____
ROOT
ATOM      1  C   UNL     1      50.712  16.536  17.085  0.00  0.00    +0.308 C 
ATOM      2  N   UNL     1      49.920  17.597  17.713  0.00  0.00    -0.519 N 
ATOM      3  C   UNL     1      50.545  18.778  18.052  0.00  0.00    +0.216 A 
ATOM      4  C   UNL     1      51.904  18.946  17.794  0.00  0.00    -0.051 A 
ATOM      5  C   UNL     1      52.529  20.126  18.134  0.00  0.00    +0.085 A 
ATOM      6  C   UNL     1      51.819  21.157  18.734  0.00  0.00    -0.032 A 
ATOM      7  C   UNL     1      50.476  21.012  18.997  0.00  0.00    +0.118 A 
ATOM      8  C   UNL     1      49.829  19.822  18.660  0.00  0.00    -0.207 A 
ATOM      9  C   UNL     1      48.390  19.644  18.932  0.00  0.00    +0.440 A 
ATOM     10  C   UNL     1      47.779  18.366  18.543  0.00  0.00    -0.271 A 
ATOM     11  C   UNL     1      46.414  18.125  18.764  0.00  0.00    +0.248 A 
ATOM     14  C   UNL     1      45.861  16.916  18.394  0.00  0.00    -0.065 A 
ATOM     15  C   UNL     1      46.649  15.927  17.799  0.00  0.00    +0.205 A 
ATOM     16  O   UNL     1      46.299  14.682  17.378  0.00  0.00    -0.274 OA
ATOM     17  C   UNL     1      47.287  14.198  16.452  0.00  0.00    +0.197 C 
ATOM     28  C   UNL     1      48.569  14.937  16.903  0.00  0.00    +0.089 C 
ATOM     29  C   UNL     1      47.997  16.172  17.574  0.00  0.00    -0.262 A 
ATOM     30  O   UNL     1      47.733  20.524  19.458  0.00  0.00    -0.454 OA
ATOM     31  C   UNL     1      48.577  17.376  17.940  0.00  0.00    +0.296 A 
ENDROOT
BRANCH  11  12
ATOM     12  O   UNL     1      45.641  19.077  19.342  0.00  0.00    -0.471 OA
ATOM     13  H   UNL     1      45.489  19.853  18.784  0.00  0.00    +0.404 HD
ENDBRANCH  11  12
BRANCH  17  18
ATOM     18  C   UNL     1      47.458  12.684  16.584  0.00  0.00    +0.160 C 
BRANCH  18  19
ATOM     19  O   UNL     1      48.642  12.402  17.333  0.00  0.00    -0.519 OA
ATOM     20  H   UNL     1      48.473  12.088  18.232  0.00  0.00    +0.389 HD
ENDBRANCH  18  19
BRANCH  18  21
ATOM     21  C   UNL     1      47.575  12.070  15.213  0.00  0.00    +0.445 C 
ATOM     24  O   UNL     1      47.253  10.919  15.036  0.00  0.00    -0.480 OA
BRANCH  21  22
ATOM     22  O   UNL     1      48.037  12.802  14.186  0.00  0.00    -0.345 OA
ATOM     23  C   UNL     1      49.448  12.673  13.866  0.00  0.00    +0.272 C 
ENDBRANCH  21  22
ENDBRANCH  18  21
BRANCH  18  25
ATOM     25  C   UNL     1      46.245  12.094  17.305  0.00  0.00    +0.247 C 
BRANCH  25  26
ATOM     26  O   UNL     1      45.104  12.157  16.446  0.00  0.00    -0.564 OA
ATOM     27  H   UNL     1      44.291  12.437  16.893  0.00  0.00    +0.397 HD
ENDBRANCH  25  26
ENDBRANCH  18  25
ENDBRANCH  17  18
TORSDOF 7
ENDMDL
MODEL 4
REMARK VINA RESULT:      -5.9      2.011      3.769
REMARK  Name = ZINC14686464
REMARK  9 active torsions:
REMARK  status: ('A' for Active; 'I' for Inactive)
REMARK    1  A    between atoms: C1_1  and  N1_2
REMARK    2  A    between atoms: C14_16  and  O2_17
REMARK    3  A    between atoms: C15_19  and  C17_22
REMARK    4  A    between atoms: C17_22  and  C18_23
REMARK    5  A    between atoms: C17_22  and  C19_25
REMARK    6  A    between atoms: C17_22  and  O7_29
REMARK    7  A    between atoms: C18_23  and  O4_24
REMARK    8  A    between atoms: C19_25  and  O6_27
REMARK    9  A    between atoms: O6_27  and  C20_28
REMARK                            x       y       z     vdW  Elec       q    Type
REMARK                         _______ _______ _______ _____ _____    ______ ____
ROOT
ATOM      1  C   UNL     1      46.112  16.773  17.738  0.00  0.00    +0.308 C 
ATOM      2  N   UNL     1      47.532  17.117  17.840  0.00  0.00    -0.519 N 
ATOM      3  C   UNL     1      48.469  16.194  17.428  0.00  0.00    +0.216 A 
ATOM      4  C   UNL     1      48.059  14.962  16.922  0.00  0.00    -0.051 A 
ATOM      5  C   UNL     1      48.995  14.039  16.510  0.00  0.00    +0.085 A 
ATOM      6  C   UNL     1      50.352  14.321  16.592  0.00  0.00    -0.032 A 
ATOM      7  C   UNL     1      50.779  15.532  17.088  0.00  0.00    +0.118 A 
ATOM      8  C   UNL     1      49.842  16.477  17.510  0.00  0.00    -0.207 A 
ATOM      9  C   UNL     1      50.277  17.782  18.044  0.00  0.00    +0.440 A 
ATOM     10  C   UNL     1      49.232  18.726  18.463  0.00  0.00    -0.271 A 
ATOM     11  C   UNL     1      49.567  19.988  18.976  0.00  0.00    +0.248 A 
ATOM     14  C   UNL     1      48.570  20.858  19.367  0.00  0.00    -0.065 A 
ATOM     15  C   UNL     1      47.226  20.493  19.255  0.00  0.00    +0.205 A 
ATOM     16  O   UNL     1      46.110  21.195  19.591  0.00  0.00    -0.274 OA
ATOM     17  C   UNL     1      44.973  20.636  18.911  0.00  0.00    +0.197 C 
ATOM     28  C   UNL     1      45.383  19.156  18.723  0.00  0.00    +0.089 C 
ATOM     29  C   UNL     1      46.896  19.246  18.740  0.00  0.00    -0.262 A 
ATOM     30  O   UNL     1      51.458  18.066  18.134  0.00  0.00    -0.454 OA
ATOM     31  C   UNL     1      47.880  18.354  18.344  0.00  0.00    +0.296 A 
ENDROOT
BRANCH  11  12
ATOM     12  O   UNL     1      50.868  20.352  19.089  0.00  0.00    -0.471 OA
ATOM     13  H   UNL     1      51.494  19.630  18.938  0.00  0.00    +0.404 HD
ENDBRANCH  11  12
BRANCH  17  18
ATOM     18  C   UNL     1      43.716  20.745  19.775  0.00  0.00    +0.160 C 
BRANCH  18  19
ATOM     19  O   UNL     1      43.638  22.056  20.339  0.00  0.00    -0.519 OA
ATOM     20  H   UNL     1      43.964  22.755  19.756  0.00  0.00    +0.389 HD
ENDBRANCH  18  19
BRANCH  18  21
ATOM     21  C   UNL     1      43.779  19.725  20.883  0.00  0.00    +0.445 C 
ATOM     24  O   UNL     1      44.434  19.948  21.874  0.00  0.00    -0.480 OA
BRANCH  21  22
ATOM     22  O   UNL     1      43.107  18.568  20.770  0.00  0.00    -0.345 OA
ATOM     23  C   UNL     1      42.761  17.882  22.002  0.00  0.00    +0.272 C 
ENDBRANCH  21  22
ENDBRANCH  18  21
BRANCH  18  25
ATOM     25  C   UNL     1      42.479  20.485  18.913  0.00  0.00    +0.247 C 
BRANCH  25  26
ATOM     26  O   UNL     1      41.302  20.659  19.705  0.00  0.00    -0.564 OA
ATOM     27  H   UNL     1      40.650  19.951  19.601  0.00  0.00    +0.397 HD
ENDBRANCH  25  26
ENDBRANCH  18  25
ENDBRANCH  17  18
TORSDOF 7
ENDMDL
MODEL 5
REMARK VINA RESULT:      -5.8      4.091      7.400
REMARK  Name = ZINC14686464
REMARK  9 active torsions:
REMARK  status: ('A' for Active; 'I' for Inactive)
REMARK    1  A    between atoms: C1_1  and  N1_2
REMARK    2  A    between atoms: C14_16  and  O2_17
REMARK    3  A    between atoms: C15_19  and  C17_22
REMARK    4  A    between atoms: C17_22  and  C18_23
REMARK    5  A    between atoms: C17_22  and  C19_25
REMARK    6  A    between atoms: C17_22  and  O7_29
REMARK    7  A    between atoms: C18_23  and  O4_24
REMARK    8  A    between atoms: C19_25  and  O6_27
REMARK    9  A    between atoms: O6_27  and  C20_28
REMARK                            x       y       z     vdW  Elec       q    Type
REMARK                         _______ _______ _______ _____ _____    ______ ____
ROOT
ATOM      1  C   UNL     1      46.223  16.712  17.441  0.00  0.00    +0.308 C 
ATOM      2  N   UNL     1      47.421  17.427  17.883  0.00  0.00    -0.519 N 
ATOM      3  C   UNL     1      47.275  18.667  18.469  0.00  0.00    +0.216 A 
ATOM      4  C   UNL     1      46.004  19.215  18.632  0.00  0.00    -0.051 A 
ATOM      5  C   UNL     1      45.858  20.454  19.216  0.00  0.00    +0.085 A 
ATOM      6  C   UNL     1      46.966  21.170  19.648  0.00  0.00    -0.032 A 
ATOM      7  C   UNL     1      48.230  20.648  19.496  0.00  0.00    +0.118 A 
ATOM      8  C   UNL     1      48.395  19.393  18.905  0.00  0.00    -0.207 A 
ATOM      9  C   UNL     1      49.740  18.813  18.733  0.00  0.00    +0.440 A 
ATOM     10  C   UNL     1      49.832  17.487  18.108  0.00  0.00    -0.271 A 
ATOM     11  C   UNL     1      51.076  16.868  17.915  0.00  0.00    +0.248 A 
ATOM     14  C   UNL     1      51.141  15.624  17.323  0.00  0.00    -0.065 A 
ATOM     15  C   UNL     1      49.974  14.972  16.912  0.00  0.00    +0.205 A 
ATOM     16  O   UNL     1      49.829  13.762  16.307  0.00  0.00    -0.274 OA
ATOM     17  C   UNL     1      48.475  13.308  16.471  0.00  0.00    +0.197 C 
ATOM     28  C   UNL     1      47.683  14.632  16.591  0.00  0.00    +0.089 C 
ATOM     29  C   UNL     1      48.744  15.583  17.111  0.00  0.00    -0.262 A 
ATOM     30  O   UNL     1      50.737  19.410  19.097  0.00  0.00    -0.454 OA
ATOM     31  C   UNL     1      48.654  16.834  17.700  0.00  0.00    +0.296 A 
ENDROOT
BRANCH  11  12
ATOM     12  O   UNL     1      52.214  17.491  18.309  0.00  0.00    -0.471 OA
ATOM     13  H   UNL     1      52.380  18.331  17.858  0.00  0.00    +0.404 HD
ENDBRANCH  11  12
BRANCH  17  18
ATOM     18  C   UNL     1      48.018  12.512  15.247  0.00  0.00    +0.160 C 
BRANCH  18  19
ATOM     19  O   UNL     1      47.397  13.393  14.310  0.00  0.00    -0.519 OA
ATOM     20  H   UNL     1      47.982  13.687  13.599  0.00  0.00    +0.389 HD
ENDBRANCH  18  19
BRANCH  18  21
ATOM     21  C   UNL     1      47.031  11.457  15.674  0.00  0.00    +0.445 C 
ATOM     24  O   UNL     1      47.062  11.021  16.801  0.00  0.00    -0.480 OA
BRANCH  21  22
ATOM     22  O   UNL     1      46.116  11.000  14.803  0.00  0.00    -0.345 OA
ATOM     23  C   UNL     1      44.983  10.279  15.354  0.00  0.00    +0.272 C 
ENDBRANCH  21  22
ENDBRANCH  18  21
BRANCH  18  25
ATOM     25  C   UNL     1      49.229  11.842  14.593  0.00  0.00    +0.247 C 
BRANCH  25  26
ATOM     26  O   UNL     1      48.942  10.460  14.366  0.00  0.00    -0.564 OA
ATOM     27  H   UNL     1      49.455  10.066  13.646  0.00  0.00    +0.397 HD
ENDBRANCH  25  26
ENDBRANCH  18  25
ENDBRANCH  17  18
TORSDOF 7
ENDMDL
MODEL 6
REMARK VINA RESULT:      -5.5      3.913      7.718
REMARK  Name = ZINC14686464
REMARK  9 active torsions:
REMARK  status: ('A' for Active; 'I' for Inactive)
REMARK    1  A    between atoms: C1_1  and  N1_2
REMARK    2  A    between atoms: C14_16  and  O2_17
REMARK    3  A    between atoms: C15_19  and  C17_22
REMARK    4  A    between atoms: C17_22  and  C18_23
REMARK    5  A    between atoms: C17_22  and  C19_25
REMARK    6  A    between atoms: C17_22  and  O7_29
REMARK    7  A    between atoms: C18_23  and  O4_24
REMARK    8  A    between atoms: C19_25  and  O6_27
REMARK    9  A    between atoms: O6_27  and  C20_28
REMARK                            x       y       z     vdW  Elec       q    Type
REMARK                         _______ _______ _______ _____ _____    ______ ____
ROOT
ATOM      1  C   UNL     1      50.818  14.372  16.112  0.00  0.00    +0.308 C 
ATOM      2  N   UNL     1      49.436  14.103  16.515  0.00  0.00    -0.519 N 
ATOM      3  C   UNL     1      48.868  12.896  16.171  0.00  0.00    +0.216 A 
ATOM      4  C   UNL     1      49.608  11.956  15.455  0.00  0.00    -0.051 A 
ATOM      5  C   UNL     1      49.040  10.749  15.109  0.00  0.00    +0.085 A 
ATOM      6  C   UNL     1      47.732  10.453  15.467  0.00  0.00    -0.032 A 
ATOM      7  C   UNL     1      46.983  11.366  16.174  0.00  0.00    +0.118 A 
ATOM      8  C   UNL     1      47.544  12.594  16.531  0.00  0.00    -0.207 A 
ATOM      9  C   UNL     1      46.761  13.588  17.289  0.00  0.00    +0.440 A 
ATOM     10  C   UNL     1      47.422  14.854  17.632  0.00  0.00    -0.271 A 
ATOM     11  C   UNL     1      46.744  15.846  18.357  0.00  0.00    +0.248 A 
ATOM     14  C   UNL     1      47.382  17.029  18.665  0.00  0.00    -0.065 A 
ATOM     15  C   UNL     1      48.702  17.250  18.262  0.00  0.00    +0.205 A 
ATOM     16  O   UNL     1      49.493  18.340  18.456  0.00  0.00    -0.274 OA
ATOM     17  C   UNL     1      50.870  17.967  18.274  0.00  0.00    +0.197 C 
ATOM     28  C   UNL     1      50.774  16.782  17.284  0.00  0.00    +0.089 C 
ATOM     29  C   UNL     1      49.374  16.264  17.552  0.00  0.00    -0.262 A 
ATOM     30  O   UNL     1      45.610  13.366  17.620  0.00  0.00    -0.454 OA
ATOM     31  C   UNL     1      48.753  15.068  17.227  0.00  0.00    +0.296 A 
ENDROOT
BRANCH  11  12
ATOM     12  O   UNL     1      45.463  15.642  18.752  0.00  0.00    -0.471 OA
ATOM     13  H   UNL     1      45.343  15.638  19.712  0.00  0.00    +0.404 HD
ENDBRANCH  11  12
BRANCH  17  18
ATOM     18  C   UNL     1      51.668  19.120  17.663  0.00  0.00    +0.160 C 
BRANCH  18  19
ATOM     19  O   UNL     1      53.060  18.923  17.916  0.00  0.00    -0.519 OA
ATOM     20  H   UNL     1      53.280  18.038  18.237  0.00  0.00    +0.389 HD
ENDBRANCH  18  19
BRANCH  18  21
ATOM     21  C   UNL     1      51.225  20.421  18.283  0.00  0.00    +0.445 C 
ATOM     24  O   UNL     1      50.691  21.264  17.602  0.00  0.00    -0.480 OA
BRANCH  21  22
ATOM     22  O   UNL     1      51.425  20.643  19.592  0.00  0.00    -0.345 OA
ATOM     23  C   UNL     1      52.424  21.635  19.948  0.00  0.00    +0.272 C 
ENDBRANCH  21  22
ENDBRANCH  18  21
BRANCH  18  25
ATOM     25  C   UNL     1      51.424  19.167  16.153  0.00  0.00    +0.247 C 
BRANCH  25  26
ATOM     26  O   UNL     1      52.273  20.155  15.565  0.00  0.00    -0.564 OA
ATOM     27  H   UNL     1      52.330  20.099  14.600  0.00  0.00    +0.397 HD
ENDBRANCH  25  26
ENDBRANCH  18  25
ENDBRANCH  17  18
TORSDOF 7
ENDMDL
MODEL 7
REMARK VINA RESULT:      -5.4      3.489      6.919
REMARK  Name = ZINC14686464
REMARK  9 active torsions:
REMARK  status: ('A' for Active; 'I' for Inactive)
REMARK    1  A    between atoms: C1_1  and  N1_2
REMARK    2  A    between atoms: C14_16  and  O2_17
REMARK    3  A    between atoms: C15_19  and  C17_22
REMARK    4  A    between atoms: C17_22  and  C18_23
REMARK    5  A    between atoms: C17_22  and  C19_25
REMARK    6  A    between atoms: C17_22  and  O7_29
REMARK    7  A    between atoms: C18_23  and  O4_24
REMARK    8  A    between atoms: C19_25  and  O6_27
REMARK    9  A    between atoms: O6_27  and  C20_28
REMARK                            x       y       z     vdW  Elec       q    Type
REMARK                         _______ _______ _______ _____ _____    ______ ____
ROOT
ATOM      1  C   UNL     1      45.567  17.069  19.081  0.00  0.00    +0.308 C 
ATOM      2  N   UNL     1      46.592  18.113  19.147  0.00  0.00    -0.519 N 
ATOM      3  C   UNL     1      46.294  19.296  19.790  0.00  0.00    +0.216 A 
ATOM      4  C   UNL     1      45.037  19.479  20.365  0.00  0.00    -0.051 A 
ATOM      5  C   UNL     1      44.738  20.661  21.007  0.00  0.00    +0.085 A 
ATOM      6  C   UNL     1      45.677  21.679  21.091  0.00  0.00    -0.032 A 
ATOM      7  C   UNL     1      46.924  21.519  20.530  0.00  0.00    +0.118 A 
ATOM      8  C   UNL     1      47.242  20.328  19.875  0.00  0.00    -0.207 A 
ATOM      9  C   UNL     1      48.572  20.134  19.268  0.00  0.00    +0.440 A 
ATOM     10  C   UNL     1      48.833  18.851  18.602  0.00  0.00    -0.271 A 
ATOM     11  C   UNL     1      50.076  18.590  18.006  0.00  0.00    +0.248 A 
ATOM     14  C   UNL     1      50.299  17.380  17.382  0.00  0.00    -0.065 A 
ATOM     15  C   UNL     1      49.296  16.408  17.338  0.00  0.00    +0.205 A 
ATOM     16  O   UNL     1      49.315  15.172  16.769  0.00  0.00    -0.274 OA
ATOM     17  C   UNL     1      48.264  14.372  17.336  0.00  0.00    +0.197 C 
ATOM     28  C   UNL     1      47.212  15.430  17.744  0.00  0.00    +0.089 C 
ATOM     29  C   UNL     1      48.069  16.666  17.936  0.00  0.00    -0.262 A 
ATOM     30  O   UNL     1      49.423  21.004  19.319  0.00  0.00    -0.454 OA
ATOM     31  C   UNL     1      47.820  17.875  18.565  0.00  0.00    +0.296 A 
ENDROOT
BRANCH  11  12
ATOM     12  O   UNL     1      51.057  19.526  18.041  0.00  0.00    -0.471 OA
ATOM     13  H   UNL     1      51.055  20.128  17.283  0.00  0.00    +0.404 HD
ENDBRANCH  11  12
BRANCH  17  18
ATOM     18  C   UNL     1      47.692  13.411  16.293  0.00  0.00    +0.160 C 
BRANCH  18  19
ATOM     19  O   UNL     1      46.831  14.128  15.406  0.00  0.00    -0.519 OA
ATOM     20  H   UNL     1      46.030  13.645  15.159  0.00  0.00    +0.389 HD
ENDBRANCH  18  19
BRANCH  18  21
ATOM     21  C   UNL     1      46.908  12.327  16.986  0.00  0.00    +0.445 C 
ATOM     24  O   UNL     1      47.362  11.784  17.965  0.00  0.00    -0.480 OA
BRANCH  21  22
ATOM     22  O   UNL     1      45.704  11.963  16.515  0.00  0.00    -0.345 OA
ATOM     23  C   UNL     1      45.644  10.742  15.730  0.00  0.00    +0.272 C 
ENDBRANCH  21  22
ENDBRANCH  18  21
BRANCH  18  25
ATOM     25  C   UNL     1      48.836  12.782  15.495  0.00  0.00    +0.247 C 
BRANCH  25  26
ATOM     26  O   UNL     1      49.863  12.353  16.394  0.00  0.00    -0.564 OA
ATOM     27  H   UNL     1      50.259  11.502  16.160  0.00  0.00    +0.397 HD
ENDBRANCH  25  26
ENDBRANCH  18  25
ENDBRANCH  17  18
TORSDOF 7
ENDMDL
MODEL 8
REMARK VINA RESULT:      -5.3      3.584      8.378
REMARK  Name = ZINC14686464
REMARK  9 active torsions:
REMARK  status: ('A' for Active; 'I' for Inactive)
REMARK    1  A    between atoms: C1_1  and  N1_2
REMARK    2  A    between atoms: C14_16  and  O2_17
REMARK    3  A    between atoms: C15_19  and  C17_22
REMARK    4  A    between atoms: C17_22  and  C18_23
REMARK    5  A    between atoms: C17_22  and  C19_25
REMARK    6  A    between atoms: C17_22  and  O7_29
REMARK    7  A    between atoms: C18_23  and  O4_24
REMARK    8  A    between atoms: C19_25  and  O6_27
REMARK    9  A    between atoms: O6_27  and  C20_28
REMARK                            x       y       z     vdW  Elec       q    Type
REMARK                         _______ _______ _______ _____ _____    ______ ____
ROOT
ATOM      1  C   UNL     1      47.005  16.341  17.328  0.00  0.00    +0.308 C 
ATOM      2  N   UNL     1      47.721  17.513  17.836  0.00  0.00    -0.519 N 
ATOM      3  C   UNL     1      46.992  18.602  18.266  0.00  0.00    +0.216 A 
ATOM      4  C   UNL     1      45.600  18.572  18.215  0.00  0.00    -0.051 A 
ATOM      5  C   UNL     1      44.871  19.660  18.643  0.00  0.00    +0.085 A 
ATOM      6  C   UNL     1      45.508  20.793  19.129  0.00  0.00    -0.032 A 
ATOM      7  C   UNL     1      46.882  20.844  19.188  0.00  0.00    +0.118 A 
ATOM      8  C   UNL     1      47.635  19.750  18.756  0.00  0.00    -0.207 A 
ATOM      9  C   UNL     1      49.108  19.782  18.811  0.00  0.00    +0.440 A 
ATOM     10  C   UNL     1      49.830  18.590  18.345  0.00  0.00    -0.271 A 
ATOM     11  C   UNL     1      51.232  18.543  18.371  0.00  0.00    +0.248 A 
ATOM     14  C   UNL     1      51.891  17.416  17.925  0.00  0.00    -0.065 A 
ATOM     15  C   UNL     1      51.172  16.317  17.446  0.00  0.00    +0.205 A 
ATOM     16  O   UNL     1      51.630  15.132  16.959  0.00  0.00    -0.274 OA
ATOM     17  C   UNL     1      50.572  14.159  17.003  0.00  0.00    +0.197 C 
ATOM     28  C   UNL     1      49.300  15.032  16.886  0.00  0.00    +0.089 C 
ATOM     29  C   UNL     1      49.784  16.363  17.429  0.00  0.00    -0.262 A 
ATOM     30  O   UNL     1      49.705  20.758  19.229  0.00  0.00    -0.454 OA
ATOM     31  C   UNL     1      49.101  17.485  17.868  0.00  0.00    +0.296 A 
ENDROOT
BRANCH  11  12
ATOM     12  O   UNL     1      51.940  19.604  18.833  0.00  0.00    -0.471 OA
ATOM     13  H   UNL     1      51.450  20.438  18.822  0.00  0.00    +0.404 HD
ENDBRANCH  11  12
BRANCH  17  18
ATOM     18  C   UNL     1      50.676  13.191  15.823  0.00  0.00    +0.160 C 
BRANCH  18  19
ATOM     19  O   UNL     1      49.389  13.027  15.226  0.00  0.00    -0.519 OA
ATOM     20  H   UNL     1      48.698  12.759  15.848  0.00  0.00    +0.389 HD
ENDBRANCH  18  19
BRANCH  18  21
ATOM     21  C   UNL     1      51.176  11.856  16.312  0.00  0.00    +0.445 C 
ATOM     24  O   UNL     1      50.646  10.838  15.936  0.00  0.00    -0.480 OA
BRANCH  21  22
ATOM     22  O   UNL     1      52.211  11.798  17.166  0.00  0.00    -0.345 OA
ATOM     23  C   UNL     1      53.094  10.650  17.055  0.00  0.00    +0.272 C 
ENDBRANCH  21  22
ENDBRANCH  18  21
BRANCH  18  25
ATOM     25  C   UNL     1      51.652  13.752  14.787  0.00  0.00    +0.247 C 
BRANCH  25  26
ATOM     26  O   UNL     1      52.440  12.687  14.249  0.00  0.00    -0.564 OA
ATOM     27  H   UNL     1      53.320  12.960  13.954  0.00  0.00    +0.397 HD
ENDBRANCH  25  26
ENDBRANCH  18  25
ENDBRANCH  17  18
TORSDOF 7
ENDMDL
MODEL 9
REMARK VINA RESULT:      -5.3      3.677      7.454
REMARK  Name = ZINC14686464
REMARK  9 active torsions:
REMARK  status: ('A' for Active; 'I' for Inactive)
REMARK    1  A    between atoms: C1_1  and  N1_2
REMARK    2  A    between atoms: C14_16  and  O2_17
REMARK    3  A    between atoms: C15_19  and  C17_22
REMARK    4  A    between atoms: C17_22  and  C18_23
REMARK    5  A    between atoms: C17_22  and  C19_25
REMARK    6  A    between atoms: C17_22  and  O7_29
REMARK    7  A    between atoms: C18_23  and  O4_24
REMARK    8  A    between atoms: C19_25  and  O6_27
REMARK    9  A    between atoms: O6_27  and  C20_28
REMARK                            x       y       z     vdW  Elec       q    Type
REMARK                         _______ _______ _______ _____ _____    ______ ____
ROOT
ATOM      1  C   UNL     1      46.348  18.109  17.538  0.00  0.00    +0.308 C 
ATOM      2  N   UNL     1      45.679  18.065  18.840  0.00  0.00    -0.519 N 
ATOM      3  C   UNL     1      45.261  19.248  19.412  0.00  0.00    +0.216 A 
ATOM      4  C   UNL     1      45.476  20.456  18.750  0.00  0.00    -0.051 A 
ATOM      5  C   UNL     1      45.060  21.638  19.321  0.00  0.00    +0.085 A 
ATOM      6  C   UNL     1      44.424  21.645  20.555  0.00  0.00    -0.032 A 
ATOM      7  C   UNL     1      44.202  20.463  21.226  0.00  0.00    +0.118 A 
ATOM      8  C   UNL     1      44.619  19.257  20.660  0.00  0.00    -0.207 A 
ATOM      9  C   UNL     1      44.390  17.979  21.361  0.00  0.00    +0.440 A 
ATOM     10  C   UNL     1      44.852  16.751  20.700  0.00  0.00    -0.271 A 
ATOM     11  C   UNL     1      44.666  15.497  21.300  0.00  0.00    +0.248 A 
ATOM     14  C   UNL     1      45.111  14.357  20.664  0.00  0.00    -0.065 A 
ATOM     15  C   UNL     1      45.747  14.439  19.422  0.00  0.00    +0.205 A 
ATOM     16  O   UNL     1      46.260  13.445  18.648  0.00  0.00    -0.274 OA
ATOM     17  C   UNL     1      46.408  13.921  17.299  0.00  0.00    +0.197 C 
ATOM     28  C   UNL     1      46.611  15.443  17.496  0.00  0.00    +0.089 C 
ATOM     29  C   UNL     1      45.923  15.680  18.826  0.00  0.00    -0.262 A 
ATOM     30  O   UNL     1      43.838  17.942  22.445  0.00  0.00    -0.454 OA
ATOM     31  C   UNL     1      45.488  16.840  19.447  0.00  0.00    +0.296 A 
ENDROOT
BRANCH  11  12
ATOM     12  O   UNL     1      44.051  15.405  22.505  0.00  0.00    -0.471 OA
ATOM     13  H   UNL     1      44.622  15.083  23.216  0.00  0.00    +0.404 HD
ENDBRANCH  11  12
BRANCH  17  18
ATOM     18  C   UNL     1      47.633  13.292  16.634  0.00  0.00    +0.160 C 
BRANCH  18  19
ATOM     19  O   UNL     1      47.819  13.865  15.338  0.00  0.00    -0.519 OA
ATOM     20  H   UNL     1      48.034  14.808  15.352  0.00  0.00    +0.389 HD
ENDBRANCH  18  19
BRANCH  18  21
ATOM     21  C   UNL     1      47.424  11.806  16.500  0.00  0.00    +0.445 C 
ATOM     24  O   UNL     1      47.946  11.049  17.284  0.00  0.00    -0.480 OA
BRANCH  21  22
ATOM     22  O   UNL     1      46.658  11.322  15.509  0.00  0.00    -0.345 OA
ATOM     23  C   UNL     1      45.301  10.938  15.853  0.00  0.00    +0.272 C 
ENDBRANCH  21  22
ENDBRANCH  18  21
BRANCH  18  25
ATOM     25  C   UNL     1      48.873  13.557  17.491  0.00  0.00    +0.247 C 
BRANCH  25  26
ATOM     26  O   UNL     1      49.991  13.824  16.641  0.00  0.00    -0.564 OA
ATOM     27  H   UNL     1      50.848  13.740  17.082  0.00  0.00    +0.397 HD
ENDBRANCH  25  26
ENDBRANCH  18  25
ENDBRANCH  17  18
TORSDOF 7
ENDMDL
