MODEL 1
REMARK VINA RESULT:      -4.7      0.000      0.000
REMARK  Name = ZINC95486313
REMARK  14 active torsions:
REMARK  status: ('A' for Active; 'I' for Inactive)
REMARK    1  A    between atoms: C1_1  and  C2_2
REMARK    2  A    between atoms: C2_2  and  C3_3
REMARK    3  A    between atoms: C3_3  and  C4_5
REMARK    4  A    between atoms: C3_3  and  C5_6
REMARK    5  A    between atoms: C5_6  and  O2_8
REMARK    6  A    between atoms: O2_8  and  C6_9
REMARK    7  A    between atoms: C10_16  and  C18_28
REMARK    8  A    between atoms: C13_19  and  C17_26
REMARK    9  A    between atoms: C14_20  and  O3_22
REMARK   10  A    between atoms: O3_22  and  C15_23
REMARK   11  A    between atoms: C15_23  and  C16_25
REMARK   12  A    between atoms: C18_28  and  O6_29
REMARK   13  A    between atoms: O6_29  and  C19_30
REMARK   14  A    between atoms: C19_30  and  C20_32
REMARK                            x       y       z     vdW  Elec       q    Type
REMARK                         _______ _______ _______ _____ _____    ______ ____
ROOT
ATOM      6  C   UNL     1      47.767  18.571  20.068  0.00  0.00    +0.208 C 
ATOM      7  C   UNL     1      46.981  19.511  19.137  0.00  0.00    +0.051 C 
ATOM      8  C   UNL     1      46.050  18.741  18.140  0.00  0.00    +0.214 C 
ATOM      9  O   UNL     1      45.070  18.064  18.883  0.00  0.00    -0.337 OA
ATOM     10  C   UNL     1      44.071  18.882  19.487  0.00  0.00    +0.253 C 
ATOM     11  C   UNL     1      44.696  20.053  20.206  0.00  0.00    +0.361 C 
ATOM     12  O   UNL     1      44.025  20.713  20.995  0.00  0.00    -0.456 OA
ATOM     13  C   UNL     1      47.093  17.875  17.471  0.00  0.00    +0.026 C 
ATOM     14  C   UNL     1      47.226  16.621  17.739  0.00  0.00    -0.103 C 
ATOM     20  C   UNL     1      48.535  15.979  17.312  0.00  0.00    +0.128 C 
ATOM     21  C   UNL     1      49.146  15.736  18.681  0.00  0.00    +0.080 C 
ATOM     22  C   UNL     1      49.388  16.693  19.588  0.00  0.00    -0.238 C 
ATOM     25  C   UNL     1      46.103  20.410  19.973  0.00  0.00    -0.217 C 
ATOM     26  C   UNL     1      46.606  21.542  20.499  0.00  0.00    +0.165 C 
ATOM     27  C   UNL     1      49.162  18.198  19.479  0.00  0.00    +0.233 C 
ENDROOT
BRANCH  22  23
ATOM     23  C   UNL     1      49.961  16.217  20.864  0.00  0.00    +0.437 C 
ATOM     24  O   UNL     1      50.462  17.007  21.637  0.00  0.00    -0.417 OA
ENDBRANCH  22  23
BRANCH   6   5
ATOM      5  O   UNL     1      47.016  17.422  20.428  0.00  0.00    -0.307 OA
BRANCH   5   4
ATOM      4  C   UNL     1      46.684  17.292  21.722  0.00  0.00    +0.443 C 
ATOM     32  O   UNL     1      46.941  18.177  22.503  0.00  0.00    -0.476 OA
BRANCH   4   3
ATOM      3  C   UNL     1      45.992  16.041  22.199  0.00  0.00    +0.023 C 
ATOM     33  C   UNL     1      46.796  14.816  21.762  0.00  0.00    +0.061 C 
BRANCH   3   2
ATOM      1  C   UNL     1      43.604  16.709  22.505  0.00  0.00    +0.024 C 
ATOM      2  C   UNL     1      44.587  15.972  21.595  0.00  0.00    +0.031 C 
ENDBRANCH   3   2
ENDBRANCH   4   3
ENDBRANCH   5   4
ENDBRANCH   6   5
BRANCH  14  15
ATOM     15  C   UNL     1      46.167  15.727  18.318  0.00  0.00    +0.287 C 
BRANCH  15  16
ATOM     16  O   UNL     1      46.156  14.484  17.615  0.00  0.00    -0.355 OA
BRANCH  16  17
ATOM     17  C   UNL     1      46.018  13.369  18.351  0.00  0.00    +0.458 C 
ATOM     18  C   UNL     1      47.159  12.390  18.456  0.00  0.00    +0.150 C 
ATOM     19  O   UNL     1      44.980  13.151  18.927  0.00  0.00    -0.507 OA
ENDBRANCH  16  17
ENDBRANCH  15  16
ENDBRANCH  14  15
BRANCH  27  28
ATOM     28  O   UNL     1      49.362  18.675  18.157  0.00  0.00    -0.332 OA
BRANCH  28  29
ATOM     29  C   UNL     1      50.503  19.341  17.916  0.00  0.00    +0.451 C 
ATOM     30  C   UNL     1      50.587  20.817  18.201  0.00  0.00    +0.159 C 
ATOM     31  O   UNL     1      51.462  18.756  17.471  0.00  0.00    -0.499 OA
ENDBRANCH  28  29
ENDBRANCH  27  28
TORSDOF 10
ENDMDL
MODEL 2
REMARK VINA RESULT:      -4.5      1.944      5.739
REMARK  Name = ZINC95486313
REMARK  14 active torsions:
REMARK  status: ('A' for Active; 'I' for Inactive)
REMARK    1  A    between atoms: C1_1  and  C2_2
REMARK    2  A    between atoms: C2_2  and  C3_3
REMARK    3  A    between atoms: C3_3  and  C4_5
REMARK    4  A    between atoms: C3_3  and  C5_6
REMARK    5  A    between atoms: C5_6  and  O2_8
REMARK    6  A    between atoms: O2_8  and  C6_9
REMARK    7  A    between atoms: C10_16  and  C18_28
REMARK    8  A    between atoms: C13_19  and  C17_26
REMARK    9  A    between atoms: C14_20  and  O3_22
REMARK   10  A    between atoms: O3_22  and  C15_23
REMARK   11  A    between atoms: C15_23  and  C16_25
REMARK   12  A    between atoms: C18_28  and  O6_29
REMARK   13  A    between atoms: O6_29  and  C19_30
REMARK   14  A    between atoms: C19_30  and  C20_32
REMARK                            x       y       z     vdW  Elec       q    Type
REMARK                         _______ _______ _______ _____ _____    ______ ____
ROOT
ATOM      6  C   UNL     1      46.546  18.078  19.589  0.00  0.00    +0.208 C 
ATOM      7  C   UNL     1      47.207  18.476  18.257  0.00  0.00    +0.051 C 
ATOM      8  C   UNL     1      48.539  19.277  18.455  0.00  0.00    +0.214 C 
ATOM      9  O   UNL     1      49.471  18.438  19.087  0.00  0.00    -0.337 OA
ATOM     10  C   UNL     1      49.998  17.382  18.289  0.00  0.00    +0.253 C 
ATOM     11  C   UNL     1      48.895  16.649  17.566  0.00  0.00    +0.361 C 
ATOM     12  O   UNL     1      49.124  15.561  17.044  0.00  0.00    -0.456 OA
ATOM     13  C   UNL     1      48.000  20.418  19.288  0.00  0.00    +0.026 C 
ATOM     14  C   UNL     1      48.195  20.498  20.560  0.00  0.00    -0.103 C 
ATOM     20  C   UNL     1      47.285  21.449  21.319  0.00  0.00    +0.128 C 
ATOM     21  C   UNL     1      46.468  20.434  22.100  0.00  0.00    +0.080 C 
ATOM     22  C   UNL     1      45.738  19.456  21.546  0.00  0.00    -0.238 C 
ATOM     25  C   UNL     1      47.544  17.224  17.483  0.00  0.00    -0.217 C 
ATOM     26  C   UNL     1      46.610  16.640  16.710  0.00  0.00    +0.165 C 
ATOM     27  C   UNL     1      45.514  19.143  20.069  0.00  0.00    +0.233 C 
ENDROOT
BRANCH  22  23
ATOM     23  C   UNL     1      45.049  18.568  22.505  0.00  0.00    +0.437 C 
ATOM     24  O   UNL     1      44.023  18.006  22.184  0.00  0.00    -0.417 OA
ENDBRANCH  22  23
BRANCH   6   5
ATOM      5  O   UNL     1      47.502  17.772  20.592  0.00  0.00    -0.307 OA
BRANCH   5   4
ATOM      4  C   UNL     1      47.593  16.489  20.976  0.00  0.00    +0.443 C 
ATOM     32  O   UNL     1      48.616  16.078  21.474  0.00  0.00    -0.476 OA
BRANCH   4   3
ATOM      3  C   UNL     1      46.422  15.560  20.786  0.00  0.00    +0.023 C 
ATOM     33  C   UNL     1      45.998  14.991  22.141  0.00  0.00    +0.061 C 
BRANCH   3   2
ATOM      1  C   UNL     1      45.594  13.919  19.095  0.00  0.00    +0.024 C 
ATOM      2  C   UNL     1      46.825  14.414  19.855  0.00  0.00    +0.031 C 
ENDBRANCH   3   2
ENDBRANCH   4   3
ENDBRANCH   5   4
ENDBRANCH   6   5
BRANCH  14  15
ATOM     15  C   UNL     1      49.305  19.835  21.324  0.00  0.00    +0.287 C 
BRANCH  15  16
ATOM     16  O   UNL     1      50.393  20.749  21.472  0.00  0.00    -0.355 OA
BRANCH  16  17
ATOM     17  C   UNL     1      51.501  20.497  20.757  0.00  0.00    +0.458 C 
ATOM     18  C   UNL     1      51.743  21.227  19.461  0.00  0.00    +0.150 C 
ATOM     19  O   UNL     1      52.304  19.685  21.152  0.00  0.00    -0.507 OA
ENDBRANCH  16  17
ENDBRANCH  15  16
ENDBRANCH  14  15
BRANCH  27  28
ATOM     28  O   UNL     1      45.500  20.316  19.270  0.00  0.00    -0.332 OA
BRANCH  28  29
ATOM     29  C   UNL     1      44.332  20.970  19.168  0.00  0.00    +0.451 C 
ATOM     30  C   UNL     1      44.248  22.425  19.550  0.00  0.00    +0.159 C 
ATOM     31  O   UNL     1      43.348  20.392  18.770  0.00  0.00    -0.499 OA
ENDBRANCH  28  29
ENDBRANCH  27  28
TORSDOF 10
ENDMDL
MODEL 3
REMARK VINA RESULT:      -4.5      1.698      5.022
REMARK  Name = ZINC95486313
REMARK  14 active torsions:
REMARK  status: ('A' for Active; 'I' for Inactive)
REMARK    1  A    between atoms: C1_1  and  C2_2
REMARK    2  A    between atoms: C2_2  and  C3_3
REMARK    3  A    between atoms: C3_3  and  C4_5
REMARK    4  A    between atoms: C3_3  and  C5_6
REMARK    5  A    between atoms: C5_6  and  O2_8
REMARK    6  A    between atoms: O2_8  and  C6_9
REMARK    7  A    between atoms: C10_16  and  C18_28
REMARK    8  A    between atoms: C13_19  and  C17_26
REMARK    9  A    between atoms: C14_20  and  O3_22
REMARK   10  A    between atoms: O3_22  and  C15_23
REMARK   11  A    between atoms: C15_23  and  C16_25
REMARK   12  A    between atoms: C18_28  and  O6_29
REMARK   13  A    between atoms: O6_29  and  C19_30
REMARK   14  A    between atoms: C19_30  and  C20_32
REMARK                            x       y       z     vdW  Elec       q    Type
REMARK                         _______ _______ _______ _____ _____    ______ ____
ROOT
ATOM      6  C   UNL     1      48.489  16.952  19.672  0.00  0.00    +0.208 C 
ATOM      7  C   UNL     1      47.689  17.040  20.984  0.00  0.00    +0.051 C 
ATOM      8  C   UNL     1      46.701  18.255  21.012  0.00  0.00    +0.214 C 
ATOM      9  O   UNL     1      45.734  18.063  20.011  0.00  0.00    -0.337 OA
ATOM     10  C   UNL     1      44.781  17.033  20.256  0.00  0.00    +0.253 C 
ATOM     11  C   UNL     1      45.462  15.765  20.712  0.00  0.00    +0.361 C 
ATOM     12  O   UNL     1      44.839  14.707  20.718  0.00  0.00    -0.456 OA
ATOM     13  C   UNL     1      47.695  19.369  20.772  0.00  0.00    +0.026 C 
ATOM     14  C   UNL     1      47.808  19.960  19.633  0.00  0.00    -0.103 C 
ATOM     20  C   UNL     1      49.083  20.758  19.415  0.00  0.00    +0.128 C 
ATOM     21  C   UNL     1      49.742  19.881  18.364  0.00  0.00    +0.080 C 
ATOM     22  C   UNL     1      50.043  18.585  18.532  0.00  0.00    -0.238 C 
ATOM     25  C   UNL     1      46.867  15.784  21.144  0.00  0.00    -0.217 C 
ATOM     26  C   UNL     1      47.418  14.685  21.691  0.00  0.00    +0.165 C 
ATOM     27  C   UNL     1      49.850  17.707  19.765  0.00  0.00    +0.233 C 
ENDROOT
BRANCH  22  23
ATOM     23  C   UNL     1      50.655  17.927  17.360  0.00  0.00    +0.437 C 
ATOM     24  O   UNL     1      50.753  18.525  16.309  0.00  0.00    -0.417 OA
ENDBRANCH  22  23
BRANCH   6   5
ATOM      5  O   UNL     1      47.725  17.366  18.550  0.00  0.00    -0.307 OA
BRANCH   5   4
ATOM      4  C   UNL     1      47.447  16.434  17.624  0.00  0.00    +0.443 C 
ATOM     32  O   UNL     1      46.841  16.739  16.624  0.00  0.00    -0.476 OA
BRANCH   4   3
ATOM      3  C   UNL     1      47.890  15.009  17.832  0.00  0.00    +0.023 C 
ATOM     33  C   UNL     1      48.973  14.658  16.811  0.00  0.00    +0.061 C 
BRANCH   3   2
ATOM      1  C   UNL     1      46.902  12.813  18.495  0.00  0.00    +0.024 C 
ATOM      2  C   UNL     1      46.694  14.071  17.651  0.00  0.00    +0.031 C 
ENDBRANCH   3   2
ENDBRANCH   4   3
ENDBRANCH   5   4
ENDBRANCH   6   5
BRANCH  14  15
ATOM     15  C   UNL     1      46.752  20.029  18.567  0.00  0.00    +0.287 C 
BRANCH  15  16
ATOM     16  O   UNL     1      46.217  21.353  18.511  0.00  0.00    -0.355 OA
BRANCH  16  17
ATOM     17  C   UNL     1      45.139  21.608  19.270  0.00  0.00    +0.458 C 
ATOM     18  C   UNL     1      45.161  22.753  20.248  0.00  0.00    +0.150 C 
ATOM     19  O   UNL     1      44.153  20.919  19.168  0.00  0.00    -0.507 OA
ENDBRANCH  16  17
ENDBRANCH  15  16
ENDBRANCH  14  15
BRANCH  27  28
ATOM     28  O   UNL     1      50.008  18.437  20.972  0.00  0.00    -0.332 OA
BRANCH  28  29
ATOM     29  C   UNL     1      51.233  18.447  21.521  0.00  0.00    +0.451 C 
ATOM     30  C   UNL     1      52.018  19.731  21.587  0.00  0.00    +0.159 C 
ATOM     31  O   UNL     1      51.706  17.426  21.963  0.00  0.00    -0.499 OA
ENDBRANCH  28  29
ENDBRANCH  27  28
TORSDOF 10
ENDMDL
MODEL 4
REMARK VINA RESULT:      -4.3      2.325      3.368
REMARK  Name = ZINC95486313
REMARK  14 active torsions:
REMARK  status: ('A' for Active; 'I' for Inactive)
REMARK    1  A    between atoms: C1_1  and  C2_2
REMARK    2  A    between atoms: C2_2  and  C3_3
REMARK    3  A    between atoms: C3_3  and  C4_5
REMARK    4  A    between atoms: C3_3  and  C5_6
REMARK    5  A    between atoms: C5_6  and  O2_8
REMARK    6  A    between atoms: O2_8  and  C6_9
REMARK    7  A    between atoms: C10_16  and  C18_28
REMARK    8  A    between atoms: C13_19  and  C17_26
REMARK    9  A    between atoms: C14_20  and  O3_22
REMARK   10  A    between atoms: O3_22  and  C15_23
REMARK   11  A    between atoms: C15_23  and  C16_25
REMARK   12  A    between atoms: C18_28  and  O6_29
REMARK   13  A    between atoms: O6_29  and  C19_30
REMARK   14  A    between atoms: C19_30  and  C20_32
REMARK                            x       y       z     vdW  Elec       q    Type
REMARK                         _______ _______ _______ _____ _____    ______ ____
ROOT
ATOM      6  C   UNL     1      48.979  18.272  19.536  0.00  0.00    +0.208 C 
ATOM      7  C   UNL     1      47.937  18.482  18.423  0.00  0.00    +0.051 C 
ATOM      8  C   UNL     1      47.988  17.367  17.324  0.00  0.00    +0.214 C 
ATOM      9  O   UNL     1      47.642  16.143  17.918  0.00  0.00    -0.337 OA
ATOM     10  C   UNL     1      46.272  15.993  18.282  0.00  0.00    +0.253 C 
ATOM     11  C   UNL     1      45.776  17.207  19.029  0.00  0.00    +0.361 C 
ATOM     12  O   UNL     1      44.714  17.154  19.643  0.00  0.00    -0.456 OA
ATOM     13  C   UNL     1      49.433  17.519  16.907  0.00  0.00    +0.026 C 
ATOM     14  C   UNL     1      50.348  16.687  17.271  0.00  0.00    -0.103 C 
ATOM     20  C   UNL     1      51.784  17.164  17.125  0.00  0.00    +0.128 C 
ATOM     21  C   UNL     1      52.146  17.299  18.594  0.00  0.00    +0.080 C 
ATOM     22  C   UNL     1      51.497  18.079  19.471  0.00  0.00    -0.238 C 
ATOM     25  C   UNL     1      46.555  18.454  19.032  0.00  0.00    -0.217 C 
ATOM     26  C   UNL     1      46.035  19.572  19.570  0.00  0.00    +0.165 C 
ATOM     27  C   UNL     1      50.316  19.015  19.231  0.00  0.00    +0.233 C 
ENDROOT
BRANCH  22  23
ATOM     23  C   UNL     1      52.010  18.028  20.855  0.00  0.00    +0.437 C 
ATOM     24  O   UNL     1      52.544  19.003  21.341  0.00  0.00    -0.417 OA
ENDBRANCH  22  23
BRANCH   6   5
ATOM      5  O   UNL     1      49.186  16.898  19.824  0.00  0.00    -0.307 OA
BRANCH   5   4
ATOM      4  C   UNL     1      48.833  16.471  21.046  0.00  0.00    +0.443 C 
ATOM     32  O   UNL     1      48.268  17.221  21.808  0.00  0.00    -0.476 OA
BRANCH   4   3
ATOM      3  C   UNL     1      49.142  15.058  21.470  0.00  0.00    +0.023 C 
ATOM     33  C   UNL     1      50.619  14.760  21.208  0.00  0.00    +0.061 C 
BRANCH   3   2
ATOM      1  C   UNL     1      46.903  13.958  21.333  0.00  0.00    +0.024 C 
ATOM      2  C   UNL     1      48.274  14.085  20.668  0.00  0.00    +0.031 C 
ENDBRANCH   3   2
ENDBRANCH   4   3
ENDBRANCH   5   4
ENDBRANCH   6   5
BRANCH  14  15
ATOM     15  C   UNL     1      50.126  15.266  17.703  0.00  0.00    +0.287 C 
BRANCH  15  16
ATOM     16  O   UNL     1      50.314  14.393  16.588  0.00  0.00    -0.355 OA
BRANCH  16  17
ATOM     17  C   UNL     1      51.276  13.463  16.698  0.00  0.00    +0.458 C 
ATOM     18  C   UNL     1      51.923  13.203  18.034  0.00  0.00    +0.150 C 
ATOM     19  O   UNL     1      51.622  12.834  15.727  0.00  0.00    -0.507 OA
ENDBRANCH  16  17
ENDBRANCH  15  16
ENDBRANCH  14  15
BRANCH  27  28
ATOM     28  O   UNL     1      50.353  19.604  17.940  0.00  0.00    -0.332 OA
BRANCH  28  29
ATOM     29  C   UNL     1      51.067  20.732  17.806  0.00  0.00    +0.451 C 
ATOM     30  C   UNL     1      51.599  21.130  16.454  0.00  0.00    +0.159 C 
ATOM     31  O   UNL     1      51.283  21.429  18.769  0.00  0.00    -0.499 OA
ENDBRANCH  28  29
ENDBRANCH  27  28
TORSDOF 10
ENDMDL
MODEL 5
REMARK VINA RESULT:      -4.2      1.954      5.664
REMARK  Name = ZINC95486313
REMARK  14 active torsions:
REMARK  status: ('A' for Active; 'I' for Inactive)
REMARK    1  A    between atoms: C1_1  and  C2_2
REMARK    2  A    between atoms: C2_2  and  C3_3
REMARK    3  A    between atoms: C3_3  and  C4_5
REMARK    4  A    between atoms: C3_3  and  C5_6
REMARK    5  A    between atoms: C5_6  and  O2_8
REMARK    6  A    between atoms: O2_8  and  C6_9
REMARK    7  A    between atoms: C10_16  and  C18_28
REMARK    8  A    between atoms: C13_19  and  C17_26
REMARK    9  A    between atoms: C14_20  and  O3_22
REMARK   10  A    between atoms: O3_22  and  C15_23
REMARK   11  A    between atoms: C15_23  and  C16_25
REMARK   12  A    between atoms: C18_28  and  O6_29
REMARK   13  A    between atoms: O6_29  and  C19_30
REMARK   14  A    between atoms: C19_30  and  C20_32
REMARK                            x       y       z     vdW  Elec       q    Type
REMARK                         _______ _______ _______ _____ _____    ______ ____
ROOT
ATOM      6  C   UNL     1      47.212  15.383  19.605  0.00  0.00    +0.208 C 
ATOM      7  C   UNL     1      46.302  15.223  18.374  0.00  0.00    +0.051 C 
ATOM      8  C   UNL     1      46.924  15.837  17.074  0.00  0.00    +0.214 C 
ATOM      9  O   UNL     1      48.089  15.118  16.759  0.00  0.00    -0.337 OA
ATOM     10  C   UNL     1      47.890  13.794  16.272  0.00  0.00    +0.253 C 
ATOM     11  C   UNL     1      46.913  13.040  17.140  0.00  0.00    +0.361 C 
ATOM     12  O   UNL     1      46.816  11.821  17.033  0.00  0.00    -0.456 OA
ATOM     13  C   UNL     1      47.129  17.253  17.561  0.00  0.00    +0.026 C 
ATOM     14  C   UNL     1      48.288  17.710  17.890  0.00  0.00    -0.103 C 
ATOM     20  C   UNL     1      48.296  18.981  18.723  0.00  0.00    +0.128 C 
ATOM     21  C   UNL     1      48.798  18.409  20.037  0.00  0.00    +0.080 C 
ATOM     22  C   UNL     1      48.195  17.425  20.720  0.00  0.00    -0.238 C 
ATOM     25  C   UNL     1      46.076  13.753  18.116  0.00  0.00    -0.217 C 
ATOM     26  C   UNL     1      45.103  13.097  18.775  0.00  0.00    +0.165 C 
ATOM     27  C   UNL     1      46.899  16.688  20.398  0.00  0.00    +0.233 C 
ENDROOT
BRANCH  22  23
ATOM     23  C   UNL     1      48.882  17.010  21.960  0.00  0.00    +0.437 C 
ATOM     24  O   UNL     1      50.084  16.840  21.962  0.00  0.00    -0.417 OA
ENDBRANCH  22  23
BRANCH   6   5
ATOM      5  O   UNL     1      48.587  15.278  19.271  0.00  0.00    -0.307 OA
BRANCH   5   4
ATOM      4  C   UNL     1      49.255  14.222  19.762  0.00  0.00    +0.443 C 
ATOM     32  O   UNL     1      50.404  14.030  19.437  0.00  0.00    -0.476 OA
BRANCH   4   3
ATOM      3  C   UNL     1      48.573  13.276  20.715  0.00  0.00    +0.023 C 
ATOM     33  C   UNL     1      49.263  13.341  22.079  0.00  0.00    +0.061 C 
BRANCH   3   2
ATOM      1  C   UNL     1      49.315  10.942  21.210  0.00  0.00    +0.024 C 
ATOM      2  C   UNL     1      48.659  11.849  20.167  0.00  0.00    +0.031 C 
ENDBRANCH   3   2
ENDBRANCH   4   3
ENDBRANCH   5   4
ENDBRANCH   6   5
BRANCH  14  15
ATOM     15  C   UNL     1      49.611  17.173  17.426  0.00  0.00    +0.287 C 
BRANCH  15  16
ATOM     16  O   UNL     1      50.179  18.066  16.466  0.00  0.00    -0.355 OA
BRANCH  16  17
ATOM     17  C   UNL     1      51.415  18.525  16.717  0.00  0.00    +0.458 C 
ATOM     18  C   UNL     1      52.039  19.547  15.803  0.00  0.00    +0.150 C 
ATOM     19  O   UNL     1      52.027  18.119  17.676  0.00  0.00    -0.507 OA
ENDBRANCH  16  17
ENDBRANCH  15  16
ENDBRANCH  14  15
BRANCH  27  28
ATOM     28  O   UNL     1      45.953  17.527  19.752  0.00  0.00    -0.332 OA
BRANCH  28  29
ATOM     29  C   UNL     1      45.014  18.094  20.526  0.00  0.00    +0.451 C 
ATOM     30  C   UNL     1      45.094  19.562  20.853  0.00  0.00    +0.159 C 
ATOM     31  O   UNL     1      44.104  17.427  20.961  0.00  0.00    -0.499 OA
ENDBRANCH  28  29
ENDBRANCH  27  28
TORSDOF 10
ENDMDL
MODEL 6
REMARK VINA RESULT:      -4.2      1.891      5.213
REMARK  Name = ZINC95486313
REMARK  14 active torsions:
REMARK  status: ('A' for Active; 'I' for Inactive)
REMARK    1  A    between atoms: C1_1  and  C2_2
REMARK    2  A    between atoms: C2_2  and  C3_3
REMARK    3  A    between atoms: C3_3  and  C4_5
REMARK    4  A    between atoms: C3_3  and  C5_6
REMARK    5  A    between atoms: C5_6  and  O2_8
REMARK    6  A    between atoms: O2_8  and  C6_9
REMARK    7  A    between atoms: C10_16  and  C18_28
REMARK    8  A    between atoms: C13_19  and  C17_26
REMARK    9  A    between atoms: C14_20  and  O3_22
REMARK   10  A    between atoms: O3_22  and  C15_23
REMARK   11  A    between atoms: C15_23  and  C16_25
REMARK   12  A    between atoms: C18_28  and  O6_29
REMARK   13  A    between atoms: O6_29  and  C19_30
REMARK   14  A    between atoms: C19_30  and  C20_32
REMARK                            x       y       z     vdW  Elec       q    Type
REMARK                         _______ _______ _______ _____ _____    ______ ____
ROOT
ATOM      6  C   UNL     1      48.335  18.545  18.569  0.00  0.00    +0.208 C 
ATOM      7  C   UNL     1      48.768  19.475  19.717  0.00  0.00    +0.051 C 
ATOM      8  C   UNL     1      48.811  18.748  21.104  0.00  0.00    +0.214 C 
ATOM      9  O   UNL     1      49.800  17.751  21.051  0.00  0.00    -0.337 OA
ATOM     10  C   UNL     1      51.148  18.212  21.033  0.00  0.00    +0.253 C 
ATOM     11  C   UNL     1      51.326  19.317  20.021  0.00  0.00    +0.361 C 
ATOM     12  O   UNL     1      52.457  19.656  19.680  0.00  0.00    -0.456 OA
ATOM     13  C   UNL     1      47.380  18.262  21.156  0.00  0.00    +0.026 C 
ATOM     14  C   UNL     1      47.059  17.034  20.936  0.00  0.00    -0.103 C 
ATOM     20  C   UNL     1      45.595  16.769  20.628  0.00  0.00    +0.128 C 
ATOM     21  C   UNL     1      45.719  16.385  19.163  0.00  0.00    +0.080 C 
ATOM     22  C   UNL     1      46.247  17.169  18.212  0.00  0.00    -0.238 C 
ATOM     25  C   UNL     1      50.159  19.991  19.434  0.00  0.00    -0.217 C 
ATOM     26  C   UNL     1      50.328  21.072  18.651  0.00  0.00    +0.165 C 
ATOM     27  C   UNL     1      46.795  18.588  18.332  0.00  0.00    +0.233 C 
ENDROOT
BRANCH  22  23
ATOM     23  C   UNL     1      46.291  16.573  16.861  0.00  0.00    +0.437 C 
ATOM     24  O   UNL     1      46.665  15.429  16.713  0.00  0.00    -0.417 OA
ENDBRANCH  22  23
BRANCH   6   5
ATOM      5  O   UNL     1      48.811  17.220  18.744  0.00  0.00    -0.307 OA
BRANCH   5   4
ATOM      4  C   UNL     1      49.741  16.787  17.878  0.00  0.00    +0.443 C 
ATOM     32  O   UNL     1      49.997  17.437  16.891  0.00  0.00    -0.476 OA
BRANCH   4   3
ATOM      3  C   UNL     1      50.464  15.490  18.134  0.00  0.00    +0.023 C 
ATOM     33  C   UNL     1      51.972  15.713  18.004  0.00  0.00    +0.061 C 
BRANCH   3   2
ATOM      1  C   UNL     1      51.208  14.016  16.260  0.00  0.00    +0.024 C 
ATOM      2  C   UNL     1      50.013  14.443  17.113  0.00  0.00    +0.031 C 
ENDBRANCH   3   2
ENDBRANCH   4   3
ENDBRANCH   5   4
ENDBRANCH   6   5
BRANCH  14  15
ATOM     15  C   UNL     1      47.968  15.846  21.077  0.00  0.00    +0.287 C 
BRANCH  15  16
ATOM     16  O   UNL     1      47.385  14.904  21.979  0.00  0.00    -0.355 OA
BRANCH  16  17
ATOM     17  C   UNL     1      47.068  13.699  21.480  0.00  0.00    +0.458 C 
ATOM     18  C   UNL     1      48.067  12.945  20.641  0.00  0.00    +0.150 C 
ATOM     19  O   UNL     1      45.982  13.219  21.703  0.00  0.00    -0.507 OA
ENDBRANCH  16  17
ENDBRANCH  15  16
ENDBRANCH  14  15
BRANCH  27  28
ATOM     28  O   UNL     1      46.095  19.350  19.305  0.00  0.00    -0.332 OA
BRANCH  28  29
ATOM     29  C   UNL     1      45.245  20.284  18.850  0.00  0.00    +0.451 C 
ATOM     30  C   UNL     1      43.784  19.957  18.689  0.00  0.00    +0.159 C 
ATOM     31  O   UNL     1      45.652  21.388  18.571  0.00  0.00    -0.499 OA
ENDBRANCH  28  29
ENDBRANCH  27  28
TORSDOF 10
ENDMDL
MODEL 7
REMARK VINA RESULT:      -4.2      2.542      6.027
REMARK  Name = ZINC95486313
REMARK  14 active torsions:
REMARK  status: ('A' for Active; 'I' for Inactive)
REMARK    1  A    between atoms: C1_1  and  C2_2
REMARK    2  A    between atoms: C2_2  and  C3_3
REMARK    3  A    between atoms: C3_3  and  C4_5
REMARK    4  A    between atoms: C3_3  and  C5_6
REMARK    5  A    between atoms: C5_6  and  O2_8
REMARK    6  A    between atoms: O2_8  and  C6_9
REMARK    7  A    between atoms: C10_16  and  C18_28
REMARK    8  A    between atoms: C13_19  and  C17_26
REMARK    9  A    between atoms: C14_20  and  O3_22
REMARK   10  A    between atoms: O3_22  and  C15_23
REMARK   11  A    between atoms: C15_23  and  C16_25
REMARK   12  A    between atoms: C18_28  and  O6_29
REMARK   13  A    between atoms: O6_29  and  C19_30
REMARK   14  A    between atoms: C19_30  and  C20_32
REMARK                            x       y       z     vdW  Elec       q    Type
REMARK                         _______ _______ _______ _____ _____    ______ ____
ROOT
ATOM      6  C   UNL     1      49.558  17.757  18.879  0.00  0.00    +0.208 C 
ATOM      7  C   UNL     1      49.093  18.581  20.094  0.00  0.00    +0.051 C 
ATOM      8  C   UNL     1      49.612  18.003  21.455  0.00  0.00    +0.214 C 
ATOM      9  O   UNL     1      51.014  18.094  21.469  0.00  0.00    -0.337 OA
ATOM     10  C   UNL     1      51.550  19.408  21.599  0.00  0.00    +0.253 C 
ATOM     11  C   UNL     1      50.876  20.364  20.646  0.00  0.00    +0.361 C 
ATOM     12  O   UNL     1      51.376  21.465  20.430  0.00  0.00    -0.456 OA
ATOM     13  C   UNL     1      49.038  16.608  21.348  0.00  0.00    +0.026 C 
ATOM     14  C   UNL     1      49.763  15.583  21.058  0.00  0.00    -0.103 C 
ATOM     20  C   UNL     1      49.016  14.343  20.597  0.00  0.00    +0.128 C 
ATOM     21  C   UNL     1      49.448  14.325  19.141  0.00  0.00    +0.080 C 
ATOM     22  C   UNL     1      49.241  15.326  18.272  0.00  0.00    -0.238 C 
ATOM     25  C   UNL     1      49.627  19.988  19.967  0.00  0.00    -0.217 C 
ATOM     26  C   UNL     1      48.955  20.899  19.240  0.00  0.00    +0.165 C 
ATOM     27  C   UNL     1      48.525  16.655  18.492  0.00  0.00    +0.233 C 
ENDROOT
BRANCH  22  23
ATOM     23  C   UNL     1      49.775  15.097  16.914  0.00  0.00    +0.437 C 
ATOM     24  O   UNL     1      50.898  14.662  16.767  0.00  0.00    -0.417 OA
ENDBRANCH  22  23
BRANCH   6   5
ATOM      5  O   UNL     1      50.862  17.228  19.058  0.00  0.00    -0.307 OA
BRANCH   5   4
ATOM      4  C   UNL     1      51.845  17.763  18.316  0.00  0.00    +0.443 C 
ATOM     32  O   UNL     1      52.999  17.518  18.576  0.00  0.00    -0.476 OA
BRANCH   4   3
ATOM      3  C   UNL     1      51.507  18.670  17.161  0.00  0.00    +0.023 C 
ATOM     33  C   UNL     1      51.876  17.979  15.847  0.00  0.00    +0.061 C 
BRANCH   3   2
ATOM      1  C   UNL     1      51.543  21.098  16.575  0.00  0.00    +0.024 C 
ATOM      2  C   UNL     1      52.296  19.975  17.290  0.00  0.00    +0.031 C 
ENDBRANCH   3   2
ENDBRANCH   4   3
ENDBRANCH   5   4
ENDBRANCH   6   5
BRANCH  14  15
ATOM     15  C   UNL     1      51.248  15.471  21.251  0.00  0.00    +0.287 C 
BRANCH  15  16
ATOM     16  O   UNL     1      51.545  14.281  21.983  0.00  0.00    -0.355 OA
BRANCH  16  17
ATOM     17  C   UNL     1      52.536  13.506  21.511  0.00  0.00    +0.458 C 
ATOM     18  C   UNL     1      52.213  12.197  20.840  0.00  0.00    +0.150 C 
ATOM     19  O   UNL     1      53.685  13.860  21.625  0.00  0.00    -0.507 OA
ENDBRANCH  16  17
ENDBRANCH  15  16
ENDBRANCH  14  15
BRANCH  27  28
ATOM     28  O   UNL     1      47.452  16.538  19.414  0.00  0.00    -0.332 OA
BRANCH  28  29
ATOM     29  C   UNL     1      46.256  16.188  18.915  0.00  0.00    +0.451 C 
ATOM     30  C   UNL     1      45.433  15.131  19.603  0.00  0.00    +0.159 C 
ATOM     31  O   UNL     1      45.839  16.722  17.913  0.00  0.00    -0.499 OA
ENDBRANCH  28  29
ENDBRANCH  27  28
TORSDOF 10
ENDMDL
MODEL 8
REMARK VINA RESULT:      -4.0      1.950      5.254
REMARK  Name = ZINC95486313
REMARK  14 active torsions:
REMARK  status: ('A' for Active; 'I' for Inactive)
REMARK    1  A    between atoms: C1_1  and  C2_2
REMARK    2  A    between atoms: C2_2  and  C3_3
REMARK    3  A    between atoms: C3_3  and  C4_5
REMARK    4  A    between atoms: C3_3  and  C5_6
REMARK    5  A    between atoms: C5_6  and  O2_8
REMARK    6  A    between atoms: O2_8  and  C6_9
REMARK    7  A    between atoms: C10_16  and  C18_28
REMARK    8  A    between atoms: C13_19  and  C17_26
REMARK    9  A    between atoms: C14_20  and  O3_22
REMARK   10  A    between atoms: O3_22  and  C15_23
REMARK   11  A    between atoms: C15_23  and  C16_25
REMARK   12  A    between atoms: C18_28  and  O6_29
REMARK   13  A    between atoms: O6_29  and  C19_30
REMARK   14  A    between atoms: C19_30  and  C20_32
REMARK                            x       y       z     vdW  Elec       q    Type
REMARK                         _______ _______ _______ _____ _____    ______ ____
ROOT
ATOM      6  C   UNL     1      48.362  18.803  19.459  0.00  0.00    +0.208 C 
ATOM      7  C   UNL     1      48.404  19.436  20.862  0.00  0.00    +0.051 C 
ATOM      8  C   UNL     1      48.059  18.415  21.999  0.00  0.00    +0.214 C 
ATOM      9  O   UNL     1      49.051  17.422  22.020  0.00  0.00    -0.337 OA
ATOM     10  C   UNL     1      50.328  17.827  22.505  0.00  0.00    +0.253 C 
ATOM     11  C   UNL     1      50.761  19.124  21.866  0.00  0.00    +0.361 C 
ATOM     12  O   UNL     1      51.930  19.490  21.961  0.00  0.00    -0.456 OA
ATOM     13  C   UNL     1      46.694  17.982  21.514  0.00  0.00    +0.026 C 
ATOM     14  C   UNL     1      46.493  16.846  20.939  0.00  0.00    -0.103 C 
ATOM     20  C   UNL     1      45.196  16.709  20.160  0.00  0.00    +0.128 C 
ATOM     21  C   UNL     1      45.762  16.658  18.751  0.00  0.00    +0.080 C 
ATOM     22  C   UNL     1      46.522  17.617  18.200  0.00  0.00    -0.238 C 
ATOM     25  C   UNL     1      49.798  19.953  21.127  0.00  0.00    -0.217 C 
ATOM     26  C   UNL     1      50.155  21.175  20.692  0.00  0.00    +0.165 C 
ATOM     27  C   UNL     1      46.961  18.952  18.793  0.00  0.00    +0.233 C 
ENDROOT
BRANCH  22  23
ATOM     23  C   UNL     1      46.984  17.337  16.825  0.00  0.00    +0.437 C 
ATOM     24  O   UNL     1      47.212  16.197  16.481  0.00  0.00    -0.417 OA
ENDBRANCH  22  23
BRANCH   6   5
ATOM      5  O   UNL     1      48.810  17.456  19.465  0.00  0.00    -0.307 OA
BRANCH   5   4
ATOM      4  C   UNL     1      49.906  17.175  18.743  0.00  0.00    +0.443 C 
ATOM     32  O   UNL     1      50.310  16.037  18.677  0.00  0.00    -0.476 OA
BRANCH   4   3
ATOM      3  C   UNL     1      50.632  18.276  18.015  0.00  0.00    +0.023 C 
ATOM     33  C   UNL     1      50.633  17.981  16.514  0.00  0.00    +0.061 C 
BRANCH   3   2
ATOM      1  C   UNL     1      52.645  19.742  18.217  0.00  0.00    +0.024 C 
ATOM      2  C   UNL     1      52.075  18.355  18.520  0.00  0.00    +0.031 C 
ENDBRANCH   3   2
ENDBRANCH   4   3
ENDBRANCH   5   4
ENDBRANCH   6   5
BRANCH  14  15
ATOM     15  C   UNL     1      47.359  15.626  21.073  0.00  0.00    +0.287 C 
BRANCH  15  16
ATOM     16  O   UNL     1      46.612  14.467  20.697  0.00  0.00    -0.355 OA
BRANCH  16  17
ATOM     17  C   UNL     1      46.270  13.617  21.678  0.00  0.00    +0.458 C 
ATOM     18  C   UNL     1      45.038  13.878  22.505  0.00  0.00    +0.150 C 
ATOM     19  O   UNL     1      46.950  12.644  21.898  0.00  0.00    -0.507 OA
ENDBRANCH  16  17
ENDBRANCH  15  16
ENDBRANCH  14  15
BRANCH  27  28
ATOM     28  O   UNL     1      45.980  19.502  19.659  0.00  0.00    -0.332 OA
BRANCH  28  29
ATOM     29  C   UNL     1      45.112  20.373  19.122  0.00  0.00    +0.451 C 
ATOM     30  C   UNL     1      43.676  19.972  18.910  0.00  0.00    +0.159 C 
ATOM     31  O   UNL     1      45.482  21.480  18.809  0.00  0.00    -0.499 OA
ENDBRANCH  28  29
ENDBRANCH  27  28
TORSDOF 10
ENDMDL
MODEL 9
REMARK VINA RESULT:      -3.9      2.406      6.042
REMARK  Name = ZINC95486313
REMARK  14 active torsions:
REMARK  status: ('A' for Active; 'I' for Inactive)
REMARK    1  A    between atoms: C1_1  and  C2_2
REMARK    2  A    between atoms: C2_2  and  C3_3
REMARK    3  A    between atoms: C3_3  and  C4_5
REMARK    4  A    between atoms: C3_3  and  C5_6
REMARK    5  A    between atoms: C5_6  and  O2_8
REMARK    6  A    between atoms: O2_8  and  C6_9
REMARK    7  A    between atoms: C10_16  and  C18_28
REMARK    8  A    between atoms: C13_19  and  C17_26
REMARK    9  A    between atoms: C14_20  and  O3_22
REMARK   10  A    between atoms: O3_22  and  C15_23
REMARK   11  A    between atoms: C15_23  and  C16_25
REMARK   12  A    between atoms: C18_28  and  O6_29
REMARK   13  A    between atoms: O6_29  and  C19_30
REMARK   14  A    between atoms: C19_30  and  C20_32
REMARK                            x       y       z     vdW  Elec       q    Type
REMARK                         _______ _______ _______ _____ _____    ______ ____
ROOT
ATOM      6  C   UNL     1      49.257  16.915  18.730  0.00  0.00    +0.208 C 
ATOM      7  C   UNL     1      48.971  15.956  19.900  0.00  0.00    +0.051 C 
ATOM      8  C   UNL     1      49.674  16.394  21.230  0.00  0.00    +0.214 C 
ATOM      9  O   UNL     1      49.133  17.627  21.631  0.00  0.00    -0.337 OA
ATOM     10  C   UNL     1      47.796  17.590  22.122  0.00  0.00    +0.253 C 
ATOM     11  C   UNL     1      46.905  16.793  21.201  0.00  0.00    +0.361 C 
ATOM     12  O   UNL     1      45.684  16.867  21.317  0.00  0.00    -0.456 OA
ATOM     13  C   UNL     1      51.103  16.423  20.738  0.00  0.00    +0.026 C 
ATOM     14  C   UNL     1      51.723  17.524  20.481  0.00  0.00    -0.103 C 
ATOM     20  C   UNL     1      52.978  17.403  19.633  0.00  0.00    +0.128 C 
ATOM     21  C   UNL     1      52.481  18.071  18.363  0.00  0.00    +0.080 C 
ATOM     22  C   UNL     1      51.416  17.665  17.655  0.00  0.00    -0.238 C 
ATOM     25  C   UNL     1      47.484  15.929  20.161  0.00  0.00    -0.217 C 
ATOM     26  C   UNL     1      46.691  15.109  19.448  0.00  0.00    +0.165 C 
ATOM     27  C   UNL     1      50.500  16.470  17.900  0.00  0.00    +0.233 C 
ENDROOT
BRANCH  22  23
ATOM     23  C   UNL     1      51.102  18.487  16.469  0.00  0.00    +0.437 C 
ATOM     24  O   UNL     1      51.890  19.326  16.084  0.00  0.00    -0.417 OA
ENDBRANCH  22  23
BRANCH   6   5
ATOM      5  O   UNL     1      49.355  18.265  19.155  0.00  0.00    -0.307 OA
BRANCH   5   4
ATOM      4  C   UNL     1      48.383  19.102  18.759  0.00  0.00    +0.443 C 
ATOM     32  O   UNL     1      47.398  18.667  18.211  0.00  0.00    -0.476 OA
BRANCH   4   3
ATOM      3  C   UNL     1      48.522  20.584  18.994  0.00  0.00    +0.023 C 
ATOM     33  C   UNL     1      49.884  21.055  18.480  0.00  0.00    +0.061 C 
BRANCH   3   2
ATOM      1  C   UNL     1      46.948  21.114  20.860  0.00  0.00    +0.024 C 
ATOM      2  C   UNL     1      48.414  20.875  20.493  0.00  0.00    +0.031 C 
ENDBRANCH   3   2
ENDBRANCH   4   3
ENDBRANCH   5   4
ENDBRANCH   6   5
BRANCH  14  15
ATOM     15  C   UNL     1      51.385  18.877  21.039  0.00  0.00    +0.287 C 
BRANCH  15  16
ATOM     16  O   UNL     1      52.587  19.545  21.427  0.00  0.00    -0.355 OA
BRANCH  16  17
ATOM     17  C   UNL     1      52.550  20.887  21.472  0.00  0.00    +0.458 C 
ATOM     18  C   UNL     1      52.850  21.690  20.234  0.00  0.00    +0.150 C 
ATOM     19  O   UNL     1      52.276  21.449  22.505  0.00  0.00    -0.507 OA
ENDBRANCH  16  17
ENDBRANCH  15  16
ENDBRANCH  14  15
BRANCH  27  28
ATOM     28  O   UNL     1      51.194  15.371  18.470  0.00  0.00    -0.332 OA
BRANCH  28  29
ATOM     29  C   UNL     1      51.455  14.331  17.663  0.00  0.00    +0.451 C 
ATOM     30  C   UNL     1      52.112  13.094  18.217  0.00  0.00    +0.159 C 
ATOM     31  O   UNL     1      51.162  14.386  16.491  0.00  0.00    -0.499 OA
ENDBRANCH  28  29
ENDBRANCH  27  28
TORSDOF 10
ENDMDL
