MODEL 1
REMARK VINA RESULT:      -6.1      0.000      0.000
REMARK  Name = ZINC95486137
REMARK  5 active torsions:
REMARK  status: ('A' for Active; 'I' for Inactive)
REMARK    1  A    between atoms: C1_1  and  O1_2
REMARK    2  A    between atoms: O1_2  and  C2_3
REMARK    3  A    between atoms: C5_6  and  O7_24
REMARK    4  A    between atoms: C6_7  and  C8_9
REMARK    5  A    between atoms: C14_16  and  O4_20
REMARK                            x       y       z     vdW  Elec       q    Type
REMARK                         _______ _______ _______ _____ _____    ______ ____
ROOT
ATOM     10  C   UNL     1      47.336  20.296  19.724  0.00  0.00    -0.230 A 
ATOM     11  C   UNL     1      46.897  19.079  19.308  0.00  0.00    +0.341 A 
ATOM     12  O   UNL     1      45.601  18.775  19.206  0.00  0.00    -0.207 OA
ATOM     13  C   UNL     1      44.647  19.728  19.208  0.00  0.00    +0.175 A 
ATOM     14  C   UNL     1      43.359  19.436  18.785  0.00  0.00    +0.025 A 
ATOM     15  C   UNL     1      42.379  20.417  18.797  0.00  0.00    +0.120 A 
ATOM     16  C   UNL     1      42.676  21.708  19.236  0.00  0.00    -0.025 A 
ATOM     17  O   UNL     1      41.543  22.469  19.149  0.00  0.00    -0.293 OA
ATOM     18  C   UNL     1      40.663  21.746  18.269  0.00  0.00    +0.445 C 
ATOM     19  C   UNL     1      43.957  22.020  19.660  0.00  0.00    +0.219 A 
ATOM     22  O   UNL     1      41.063  20.373  18.435  0.00  0.00    -0.295 OA
ATOM     23  C   UNL     1      44.948  21.032  19.640  0.00  0.00    -0.243 A 
ATOM     24  C   UNL     1      46.330  21.320  20.066  0.00  0.00    +0.443 A 
ATOM     25  O   UNL     1      46.625  22.343  20.659  0.00  0.00    -0.440 OA
ENDROOT
BRANCH  10   9
ATOM      3  C   UNL     1      50.906  21.046  18.801  0.00  0.00    +0.121 A 
ATOM      4  C   UNL     1      51.499  21.123  20.053  0.00  0.00    -0.049 A 
ATOM      5  C   UNL     1      50.745  20.933  21.195  0.00  0.00    +0.033 A 
ATOM      6  C   UNL     1      49.389  20.663  21.095  0.00  0.00    +0.098 A 
ATOM      9  C   UNL     1      48.787  20.584  19.836  0.00  0.00    -0.016 A 
ATOM     26  C   UNL     1      49.551  20.782  18.689  0.00  0.00    +0.016 A 
BRANCH   3   2
ATOM      1  C   UNL     1      52.253  20.075  17.098  0.00  0.00    +0.243 C 
ATOM      2  O   UNL     1      51.655  21.234  17.682  0.00  0.00    -0.316 OA
ENDBRANCH   3   2
BRANCH   6   7
ATOM      7  O   UNL     1      48.648  20.475  22.219  0.00  0.00    -0.492 OA
ATOM      8  H   UNL     1      48.334  21.295  22.625  0.00  0.00    +0.391 HD
ENDBRANCH   6   7
ENDBRANCH  10   9
BRANCH  19  20
ATOM     20  O   UNL     1      44.248  23.275  20.092  0.00  0.00    -0.466 OA
ATOM     21  H   UNL     1      44.807  23.299  20.880  0.00  0.00    +0.404 HD
ENDBRANCH  19  20
TORSDOF 4
ENDMDL
MODEL 2
REMARK VINA RESULT:      -6.1      1.736      7.527
REMARK  Name = ZINC95486137
REMARK  5 active torsions:
REMARK  status: ('A' for Active; 'I' for Inactive)
REMARK    1  A    between atoms: C1_1  and  O1_2
REMARK    2  A    between atoms: O1_2  and  C2_3
REMARK    3  A    between atoms: C5_6  and  O7_24
REMARK    4  A    between atoms: C6_7  and  C8_9
REMARK    5  A    between atoms: C14_16  and  O4_20
REMARK                            x       y       z     vdW  Elec       q    Type
REMARK                         _______ _______ _______ _____ _____    ______ ____
ROOT
ATOM     10  C   UNL     1      45.558  19.873  19.803  0.00  0.00    -0.230 A 
ATOM     11  C   UNL     1      46.147  21.058  20.111  0.00  0.00    +0.341 A 
ATOM     12  O   UNL     1      47.467  21.248  20.037  0.00  0.00    -0.207 OA
ATOM     13  C   UNL     1      48.270  20.398  19.367  0.00  0.00    +0.175 A 
ATOM     14  C   UNL     1      49.563  20.768  19.028  0.00  0.00    +0.025 A 
ATOM     15  C   UNL     1      50.387  19.887  18.346  0.00  0.00    +0.120 A 
ATOM     16  C   UNL     1      49.929  18.616  17.995  0.00  0.00    -0.025 A 
ATOM     17  O   UNL     1      50.931  17.956  17.341  0.00  0.00    -0.293 OA
ATOM     18  C   UNL     1      51.860  18.978  16.934  0.00  0.00    +0.445 C 
ATOM     19  C   UNL     1      48.640  18.228  18.323  0.00  0.00    +0.219 A 
ATOM     22  O   UNL     1      51.674  20.019  17.910  0.00  0.00    -0.295 OA
ATOM     23  C   UNL     1      47.805  19.121  19.003  0.00  0.00    -0.243 A 
ATOM     24  C   UNL     1      46.420  18.760  19.359  0.00  0.00    +0.443 A 
ATOM     25  O   UNL     1      46.011  17.615  19.286  0.00  0.00    -0.440 OA
ENDROOT
BRANCH  10   9
ATOM      3  C   UNL     1      41.876  20.073  19.052  0.00  0.00    +0.121 A 
ATOM      4  C   UNL     1      41.341  19.379  20.127  0.00  0.00    -0.049 A 
ATOM      5  C   UNL     1      42.172  18.845  21.095  0.00  0.00    +0.033 A 
ATOM      6  C   UNL     1      43.545  19.003  20.996  0.00  0.00    +0.098 A 
ATOM      9  C   UNL     1      44.088  19.702  19.914  0.00  0.00    -0.016 A 
ATOM     26  C   UNL     1      43.247  20.232  18.939  0.00  0.00    +0.016 A 
BRANCH   3   2
ATOM      1  C   UNL     1      39.917  21.331  18.564  0.00  0.00    +0.243 C 
ATOM      2  O   UNL     1      41.052  20.595  18.104  0.00  0.00    -0.316 OA
ENDBRANCH   3   2
BRANCH   6   7
ATOM      7  O   UNL     1      44.361  18.479  21.948  0.00  0.00    -0.492 OA
ATOM      8  H   UNL     1      43.949  18.401  22.820  0.00  0.00    +0.391 HD
ENDBRANCH   6   7
ENDBRANCH  10   9
BRANCH  19  20
ATOM     20  O   UNL     1      48.192  16.991  17.986  0.00  0.00    -0.466 OA
ATOM     21  H   UNL     1      47.229  16.907  17.994  0.00  0.00    +0.404 HD
ENDBRANCH  19  20
TORSDOF 4
ENDMDL
MODEL 3
REMARK VINA RESULT:      -6.1      4.084      7.443
REMARK  Name = ZINC95486137
REMARK  5 active torsions:
REMARK  status: ('A' for Active; 'I' for Inactive)
REMARK    1  A    between atoms: C1_1  and  O1_2
REMARK    2  A    between atoms: O1_2  and  C2_3
REMARK    3  A    between atoms: C5_6  and  O7_24
REMARK    4  A    between atoms: C6_7  and  C8_9
REMARK    5  A    between atoms: C14_16  and  O4_20
REMARK                            x       y       z     vdW  Elec       q    Type
REMARK                         _______ _______ _______ _____ _____    ______ ____
ROOT
ATOM     10  C   UNL     1      43.606  18.774  20.711  0.00  0.00    -0.230 A 
ATOM     11  C   UNL     1      42.989  18.298  21.824  0.00  0.00    +0.341 A 
ATOM     12  O   UNL     1      43.145  17.044  22.255  0.00  0.00    -0.207 OA
ATOM     13  C   UNL     1      44.149  16.261  21.810  0.00  0.00    +0.175 A 
ATOM     14  C   UNL     1      44.490  15.099  22.487  0.00  0.00    +0.025 A 
ATOM     15  C   UNL     1      45.516  14.293  22.020  0.00  0.00    +0.120 A 
ATOM     16  C   UNL     1      46.217  14.638  20.863  0.00  0.00    -0.025 A 
ATOM     17  O   UNL     1      47.164  13.681  20.626  0.00  0.00    -0.293 OA
ATOM     18  C   UNL     1      47.310  12.970  21.869  0.00  0.00    +0.445 C 
ATOM     19  C   UNL     1      45.892  15.794  20.174  0.00  0.00    +0.219 A 
ATOM     22  O   UNL     1      46.028  13.124  22.505  0.00  0.00    -0.295 OA
ATOM     23  C   UNL     1      44.862  16.613  20.650  0.00  0.00    -0.243 A 
ATOM     24  C   UNL     1      44.491  17.862  19.960  0.00  0.00    +0.443 A 
ATOM     25  O   UNL     1      44.895  18.128  18.841  0.00  0.00    -0.440 OA
ENDROOT
BRANCH  10   9
ATOM      3  C   UNL     1      42.070  21.803  19.089  0.00  0.00    +0.121 A 
ATOM      4  C   UNL     1      42.994  22.784  19.417  0.00  0.00    -0.049 A 
ATOM      5  C   UNL     1      44.114  22.466  20.164  0.00  0.00    +0.033 A 
ATOM      6  C   UNL     1      44.319  21.163  20.587  0.00  0.00    +0.098 A 
ATOM      9  C   UNL     1      43.391  20.171  20.259  0.00  0.00    -0.016 A 
ATOM     26  C   UNL     1      42.262  20.498  19.513  0.00  0.00    +0.016 A 
BRANCH   3   2
ATOM      1  C   UNL     1      39.792  21.348  18.579  0.00  0.00    +0.243 C 
ATOM      2  O   UNL     1      40.971  22.123  18.355  0.00  0.00    -0.316 OA
ENDBRANCH   3   2
BRANCH   6   7
ATOM      7  O   UNL     1      45.421  20.851  21.320  0.00  0.00    -0.492 OA
ATOM      8  H   UNL     1      45.227  20.598  22.233  0.00  0.00    +0.391 HD
ENDBRANCH   6   7
ENDBRANCH  10   9
BRANCH  19  20
ATOM     20  O   UNL     1      46.569  16.131  19.045  0.00  0.00    -0.466 OA
ATOM     21  H   UNL     1      46.566  15.443  18.366  0.00  0.00    +0.404 HD
ENDBRANCH  19  20
TORSDOF 4
ENDMDL
MODEL 4
REMARK VINA RESULT:      -5.9      3.248      6.243
REMARK  Name = ZINC95486137
REMARK  5 active torsions:
REMARK  status: ('A' for Active; 'I' for Inactive)
REMARK    1  A    between atoms: C1_1  and  O1_2
REMARK    2  A    between atoms: O1_2  and  C2_3
REMARK    3  A    between atoms: C5_6  and  O7_24
REMARK    4  A    between atoms: C6_7  and  C8_9
REMARK    5  A    between atoms: C14_16  and  O4_20
REMARK                            x       y       z     vdW  Elec       q    Type
REMARK                         _______ _______ _______ _____ _____    ______ ____
ROOT
ATOM     10  C   UNL     1      45.244  19.007  19.900  0.00  0.00    -0.230 A 
ATOM     11  C   UNL     1      44.811  18.095  20.810  0.00  0.00    +0.341 A 
ATOM     12  O   UNL     1      44.736  16.789  20.544  0.00  0.00    -0.207 OA
ATOM     13  C   UNL     1      45.365  16.244  19.483  0.00  0.00    +0.175 A 
ATOM     14  C   UNL     1      45.546  14.871  19.400  0.00  0.00    +0.025 A 
ATOM     15  C   UNL     1      46.184  14.315  18.302  0.00  0.00    +0.120 A 
ATOM     16  C   UNL     1      46.650  15.128  17.267  0.00  0.00    -0.025 A 
ATOM     17  O   UNL     1      47.230  14.335  16.318  0.00  0.00    -0.293 OA
ATOM     18  C   UNL     1      47.482  13.077  16.971  0.00  0.00    +0.445 C 
ATOM     19  C   UNL     1      46.481  16.501  17.333  0.00  0.00    +0.219 A 
ATOM     22  O   UNL     1      46.476  13.017  17.999  0.00  0.00    -0.295 OA
ATOM     23  C   UNL     1      45.844  17.063  18.445  0.00  0.00    -0.243 A 
ATOM     24  C   UNL     1      45.655  18.520  18.568  0.00  0.00    +0.443 A 
ATOM     25  O   UNL     1      45.832  19.278  17.630  0.00  0.00    -0.440 OA
ENDROOT
BRANCH  10   9
ATOM      3  C   UNL     1      46.324  22.284  21.399  0.00  0.00    +0.121 A 
ATOM      4  C   UNL     1      45.388  23.153  20.856  0.00  0.00    -0.049 A 
ATOM      5  C   UNL     1      44.409  22.678  20.004  0.00  0.00    +0.033 A 
ATOM      6  C   UNL     1      44.356  21.330  19.689  0.00  0.00    +0.098 A 
ATOM      9  C   UNL     1      45.296  20.451  20.234  0.00  0.00    -0.016 A 
ATOM     26  C   UNL     1      46.284  20.936  21.086  0.00  0.00    +0.016 A 
BRANCH   3   2
ATOM      1  C   UNL     1      48.400  21.904  22.495  0.00  0.00    +0.243 C 
ATOM      2  O   UNL     1      47.285  22.759  22.236  0.00  0.00    -0.316 OA
ENDBRANCH   3   2
BRANCH   6   7
ATOM      7  O   UNL     1      43.391  20.864  18.852  0.00  0.00    -0.492 OA
ATOM      8  H   UNL     1      43.351  21.324  18.002  0.00  0.00    +0.391 HD
ENDBRANCH   6   7
ENDBRANCH  10   9
BRANCH  19  20
ATOM     20  O   UNL     1      46.929  17.294  16.326  0.00  0.00    -0.466 OA
ATOM     21  H   UNL     1      47.427  16.822  15.646  0.00  0.00    +0.404 HD
ENDBRANCH  19  20
TORSDOF 4
ENDMDL
MODEL 5
REMARK VINA RESULT:      -5.7      3.885      7.236
REMARK  Name = ZINC95486137
REMARK  5 active torsions:
REMARK  status: ('A' for Active; 'I' for Inactive)
REMARK    1  A    between atoms: C1_1  and  O1_2
REMARK    2  A    between atoms: O1_2  and  C2_3
REMARK    3  A    between atoms: C5_6  and  O7_24
REMARK    4  A    between atoms: C6_7  and  C8_9
REMARK    5  A    between atoms: C14_16  and  O4_20
REMARK                            x       y       z     vdW  Elec       q    Type
REMARK                         _______ _______ _______ _____ _____    ______ ____
ROOT
ATOM     10  C   UNL     1      45.778  18.311  18.582  0.00  0.00    -0.230 A 
ATOM     11  C   UNL     1      46.555  18.394  17.470  0.00  0.00    +0.341 A 
ATOM     12  O   UNL     1      47.159  17.333  16.930  0.00  0.00    -0.207 OA
ATOM     13  C   UNL     1      46.803  16.073  17.253  0.00  0.00    +0.175 A 
ATOM     14  C   UNL     1      47.203  15.004  16.466  0.00  0.00    +0.025 A 
ATOM     15  C   UNL     1      46.842  13.710  16.808  0.00  0.00    +0.120 A 
ATOM     16  C   UNL     1      46.075  13.467  17.948  0.00  0.00    -0.025 A 
ATOM     17  O   UNL     1      45.865  12.121  18.054  0.00  0.00    -0.293 OA
ATOM     18  C   UNL     1      46.159  11.584  16.750  0.00  0.00    +0.445 C 
ATOM     19  C   UNL     1      45.664  14.522  18.746  0.00  0.00    +0.219 A 
ATOM     22  O   UNL     1      47.108  12.516  16.202  0.00  0.00    -0.295 OA
ATOM     23  C   UNL     1      46.021  15.829  18.397  0.00  0.00    -0.243 A 
ATOM     24  C   UNL     1      45.594  16.985  19.205  0.00  0.00    +0.443 A 
ATOM     25  O   UNL     1      45.114  16.856  20.318  0.00  0.00    -0.440 OA
ENDROOT
BRANCH  10   9
ATOM      3  C   UNL     1      43.269  21.024  19.288  0.00  0.00    +0.121 A 
ATOM      4  C   UNL     1      43.946  21.781  20.234  0.00  0.00    -0.049 A 
ATOM      5  C   UNL     1      45.215  21.413  20.643  0.00  0.00    +0.033 A 
ATOM      6  C   UNL     1      45.817  20.285  20.109  0.00  0.00    +0.098 A 
ATOM      9  C   UNL     1      45.138  19.519  19.157  0.00  0.00    -0.016 A 
ATOM     26  C   UNL     1      43.859  19.891  18.752  0.00  0.00    +0.016 A 
BRANCH   3   2
ATOM      1  C   UNL     1      41.160  20.357  18.415  0.00  0.00    +0.243 C 
ATOM      2  O   UNL     1      42.022  21.393  18.891  0.00  0.00    -0.316 OA
ENDBRANCH   3   2
BRANCH   6   7
ATOM      7  O   UNL     1      47.064  19.924  20.511  0.00  0.00    -0.492 OA
ATOM      8  H   UNL     1      47.331  20.308  21.358  0.00  0.00    +0.391 HD
ENDBRANCH   6   7
ENDBRANCH  10   9
BRANCH  19  20
ATOM     20  O   UNL     1      44.921  14.289  19.859  0.00  0.00    -0.466 OA
ATOM     21  H   UNL     1      45.090  14.909  20.581  0.00  0.00    +0.404 HD
ENDBRANCH  19  20
TORSDOF 4
ENDMDL
MODEL 6
REMARK VINA RESULT:      -5.7      1.635      7.303
REMARK  Name = ZINC95486137
REMARK  5 active torsions:
REMARK  status: ('A' for Active; 'I' for Inactive)
REMARK    1  A    between atoms: C1_1  and  O1_2
REMARK    2  A    between atoms: O1_2  and  C2_3
REMARK    3  A    between atoms: C5_6  and  O7_24
REMARK    4  A    between atoms: C6_7  and  C8_9
REMARK    5  A    between atoms: C14_16  and  O4_20
REMARK                            x       y       z     vdW  Elec       q    Type
REMARK                         _______ _______ _______ _____ _____    ______ ____
ROOT
ATOM     10  C   UNL     1      45.152  19.451  19.255  0.00  0.00    -0.230 A 
ATOM     11  C   UNL     1      45.683  18.545  18.392  0.00  0.00    +0.341 A 
ATOM     12  O   UNL     1      46.980  18.521  18.079  0.00  0.00    -0.207 OA
ATOM     13  C   UNL     1      47.900  19.175  18.817  0.00  0.00    +0.175 A 
ATOM     14  C   UNL     1      49.249  18.886  18.679  0.00  0.00    +0.025 A 
ATOM     15  C   UNL     1      50.191  19.568  19.434  0.00  0.00    +0.120 A 
ATOM     16  C   UNL     1      49.795  20.555  20.337  0.00  0.00    -0.025 A 
ATOM     17  O   UNL     1      50.910  21.066  20.941  0.00  0.00    -0.293 OA
ATOM     18  C   UNL     1      51.951  20.101  20.702  0.00  0.00    +0.445 C 
ATOM     19  C   UNL     1      48.452  20.857  20.491  0.00  0.00    +0.219 A 
ATOM     22  O   UNL     1      51.552  19.462  19.476  0.00  0.00    -0.295 OA
ATOM     23  C   UNL     1      47.500  20.163  19.736  0.00  0.00    -0.243 A 
ATOM     24  C   UNL     1      46.058  20.437  19.876  0.00  0.00    +0.443 A 
ATOM     25  O   UNL     1      45.640  21.415  20.471  0.00  0.00    -0.440 OA
ENDROOT
BRANCH  10   9
ATOM      3  C   UNL     1      41.446  20.038  18.970  0.00  0.00    +0.121 A 
ATOM      4  C   UNL     1      40.987  19.450  20.140  0.00  0.00    -0.049 A 
ATOM      5  C   UNL     1      41.876  18.863  21.020  0.00  0.00    +0.033 A 
ATOM      6  C   UNL     1      43.233  18.860  20.739  0.00  0.00    +0.098 A 
ATOM      9  C   UNL     1      43.700  19.451  19.561  0.00  0.00    -0.016 A 
ATOM     26  C   UNL     1      42.799  20.036  18.675  0.00  0.00    +0.016 A 
BRANCH   3   2
ATOM      1  C   UNL     1      39.586  21.491  18.670  0.00  0.00    +0.243 C 
ATOM      2  O   UNL     1      40.565  20.614  18.109  0.00  0.00    -0.316 OA
ENDBRANCH   3   2
BRANCH   6   7
ATOM      7  O   UNL     1      44.107  18.283  21.606  0.00  0.00    -0.492 OA
ATOM      8  H   UNL     1      44.415  18.876  22.306  0.00  0.00    +0.391 HD
ENDBRANCH   6   7
ENDBRANCH  10   9
BRANCH  19  20
ATOM     20  O   UNL     1      48.063  21.820  21.366  0.00  0.00    -0.466 OA
ATOM     21  H   UNL     1      47.553  21.485  22.116  0.00  0.00    +0.404 HD
ENDBRANCH  19  20
TORSDOF 4
ENDMDL
MODEL 7
REMARK VINA RESULT:      -5.7      4.256      7.289
REMARK  Name = ZINC95486137
REMARK  5 active torsions:
REMARK  status: ('A' for Active; 'I' for Inactive)
REMARK    1  A    between atoms: C1_1  and  O1_2
REMARK    2  A    between atoms: O1_2  and  C2_3
REMARK    3  A    between atoms: C5_6  and  O7_24
REMARK    4  A    between atoms: C6_7  and  C8_9
REMARK    5  A    between atoms: C14_16  and  O4_20
REMARK                            x       y       z     vdW  Elec       q    Type
REMARK                         _______ _______ _______ _____ _____    ______ ____
ROOT
ATOM     10  C   UNL     1      43.442  18.802  20.473  0.00  0.00    -0.230 A 
ATOM     11  C   UNL     1      42.825  18.282  21.568  0.00  0.00    +0.341 A 
ATOM     12  O   UNL     1      43.092  17.060  22.034  0.00  0.00    -0.207 OA
ATOM     13  C   UNL     1      44.192  16.380  21.653  0.00  0.00    +0.175 A 
ATOM     14  C   UNL     1      44.620  15.274  22.371  0.00  0.00    +0.025 A 
ATOM     15  C   UNL     1      45.747  14.573  21.971  0.00  0.00    +0.120 A 
ATOM     16  C   UNL     1      46.462  14.969  20.840  0.00  0.00    -0.025 A 
ATOM     17  O   UNL     1      47.515  14.114  20.668  0.00  0.00    -0.293 OA
ATOM     18  C   UNL     1      47.675  13.444  21.933  0.00  0.00    +0.445 C 
ATOM     19  C   UNL     1      46.052  16.072  20.110  0.00  0.00    +0.219 A 
ATOM     22  O   UNL     1      46.355  13.473  22.505  0.00  0.00    -0.295 OA
ATOM     23  C   UNL     1      44.920  16.785  20.519  0.00  0.00    -0.243 A 
ATOM     24  C   UNL     1      44.453  17.976  19.785  0.00  0.00    +0.443 A 
ATOM     25  O   UNL     1      44.880  18.263  18.681  0.00  0.00    -0.440 OA
ENDROOT
BRANCH  10   9
ATOM      3  C   UNL     1      43.666  22.481  19.720  0.00  0.00    +0.121 A 
ATOM      4  C   UNL     1      42.464  22.697  19.060  0.00  0.00    -0.049 A 
ATOM      5  C   UNL     1      41.582  21.652  18.858  0.00  0.00    +0.033 A 
ATOM      6  C   UNL     1      41.894  20.382  19.316  0.00  0.00    +0.098 A 
ATOM      9  C   UNL     1      43.103  20.160  19.981  0.00  0.00    -0.016 A 
ATOM     26  C   UNL     1      43.990  21.215  20.177  0.00  0.00    +0.016 A 
BRANCH   3   2
ATOM      1  C   UNL     1      44.553  24.537  18.915  0.00  0.00    +0.243 C 
ATOM      2  O   UNL     1      44.528  23.515  19.914  0.00  0.00    -0.316 OA
ENDBRANCH   3   2
BRANCH   6   7
ATOM      7  O   UNL     1      41.026  19.354  19.118  0.00  0.00    -0.492 OA
ATOM      8  H   UNL     1      40.487  19.140  19.892  0.00  0.00    +0.391 HD
ENDBRANCH   6   7
ENDBRANCH  10   9
BRANCH  19  20
ATOM     20  O   UNL     1      46.743  16.458  19.007  0.00  0.00    -0.466 OA
ATOM     21  H   UNL     1      47.497  15.891  18.797  0.00  0.00    +0.404 HD
ENDBRANCH  19  20
TORSDOF 4
ENDMDL
MODEL 8
REMARK VINA RESULT:      -5.7      3.394      6.706
REMARK  Name = ZINC95486137
REMARK  5 active torsions:
REMARK  status: ('A' for Active; 'I' for Inactive)
REMARK    1  A    between atoms: C1_1  and  O1_2
REMARK    2  A    between atoms: O1_2  and  C2_3
REMARK    3  A    between atoms: C5_6  and  O7_24
REMARK    4  A    between atoms: C6_7  and  C8_9
REMARK    5  A    between atoms: C14_16  and  O4_20
REMARK                            x       y       z     vdW  Elec       q    Type
REMARK                         _______ _______ _______ _____ _____    ______ ____
ROOT
ATOM     10  C   UNL     1      45.144  18.648  19.789  0.00  0.00    -0.230 A 
ATOM     11  C   UNL     1      44.687  17.780  20.730  0.00  0.00    +0.341 A 
ATOM     12  O   UNL     1      44.662  16.459  20.541  0.00  0.00    -0.207 OA
ATOM     13  C   UNL     1      45.363  15.870  19.551  0.00  0.00    +0.175 A 
ATOM     14  C   UNL     1      45.585  14.502  19.562  0.00  0.00    +0.025 A 
ATOM     15  C   UNL     1      46.298  13.900  18.537  0.00  0.00    +0.120 A 
ATOM     16  C   UNL     1      46.798  14.663  17.480  0.00  0.00    -0.025 A 
ATOM     17  O   UNL     1      47.452  13.832  16.614  0.00  0.00    -0.293 OA
ATOM     18  C   UNL     1      47.701  12.624  17.356  0.00  0.00    +0.445 C 
ATOM     19  C   UNL     1      46.589  16.031  17.452  0.00  0.00    +0.219 A 
ATOM     22  O   UNL     1      46.642  12.595  18.330  0.00  0.00    -0.295 OA
ATOM     23  C   UNL     1      45.876  16.640  18.491  0.00  0.00    -0.243 A 
ATOM     24  C   UNL     1      45.641  18.095  18.514  0.00  0.00    +0.443 A 
ATOM     25  O   UNL     1      45.849  18.800  17.541  0.00  0.00    -0.440 OA
ENDROOT
BRANCH  10   9
ATOM      3  C   UNL     1      44.039  22.244  19.896  0.00  0.00    +0.121 A 
ATOM      4  C   UNL     1      45.135  22.846  20.498  0.00  0.00    -0.049 A 
ATOM      5  C   UNL     1      46.231  22.090  20.869  0.00  0.00    +0.033 A 
ATOM      6  C   UNL     1      46.240  20.723  20.641  0.00  0.00    +0.098 A 
ATOM      9  C   UNL     1      45.139  20.111  20.035  0.00  0.00    -0.016 A 
ATOM     26  C   UNL     1      44.036  20.877  19.669  0.00  0.00    +0.016 A 
BRANCH   3   2
ATOM      1  C   UNL     1      41.869  22.309  18.925  0.00  0.00    +0.243 C 
ATOM      2  O   UNL     1      42.965  22.995  19.534  0.00  0.00    -0.316 OA
ENDBRANCH   3   2
BRANCH   6   7
ATOM      7  O   UNL     1      47.319  19.979  21.005  0.00  0.00    -0.492 OA
ATOM      8  H   UNL     1      47.100  19.078  21.280  0.00  0.00    +0.391 HD
ENDBRANCH   6   7
ENDBRANCH  10   9
BRANCH  19  20
ATOM     20  O   UNL     1      47.070  16.776  16.423  0.00  0.00    -0.466 OA
ATOM     21  H   UNL     1      46.446  17.433  16.088  0.00  0.00    +0.404 HD
ENDBRANCH  19  20
TORSDOF 4
ENDMDL
MODEL 9
REMARK VINA RESULT:      -5.6      1.924      2.692
REMARK  Name = ZINC95486137
REMARK  5 active torsions:
REMARK  status: ('A' for Active; 'I' for Inactive)
REMARK    1  A    between atoms: C1_1  and  O1_2
REMARK    2  A    between atoms: O1_2  and  C2_3
REMARK    3  A    between atoms: C5_6  and  O7_24
REMARK    4  A    between atoms: C6_7  and  C8_9
REMARK    5  A    between atoms: C14_16  and  O4_20
REMARK                            x       y       z     vdW  Elec       q    Type
REMARK                         _______ _______ _______ _____ _____    ______ ____
ROOT
ATOM     10  C   UNL     1      47.979  18.689  19.192  0.00  0.00    -0.230 A 
ATOM     11  C   UNL     1      47.467  17.559  19.747  0.00  0.00    +0.341 A 
ATOM     12  O   UNL     1      46.230  17.496  20.246  0.00  0.00    -0.207 OA
ATOM     13  C   UNL     1      45.303  18.434  19.963  0.00  0.00    +0.175 A 
ATOM     14  C   UNL     1      43.960  18.195  20.215  0.00  0.00    +0.025 A 
ATOM     15  C   UNL     1      43.012  19.166  19.931  0.00  0.00    +0.120 A 
ATOM     16  C   UNL     1      43.396  20.394  19.391  0.00  0.00    -0.025 A 
ATOM     17  O   UNL     1      42.279  21.161  19.212  0.00  0.00    -0.293 OA
ATOM     18  C   UNL     1      41.172  20.241  19.261  0.00  0.00    +0.445 C 
ATOM     19  C   UNL     1      44.732  20.651  19.131  0.00  0.00    +0.219 A 
ATOM     22  O   UNL     1      41.656  19.166  20.086  0.00  0.00    -0.295 OA
ATOM     23  C   UNL     1      45.688  19.668  19.409  0.00  0.00    -0.243 A 
ATOM     24  C   UNL     1      47.120  19.888  19.135  0.00  0.00    +0.443 A 
ATOM     25  O   UNL     1      47.567  20.991  18.871  0.00  0.00    -0.440 OA
ENDROOT
BRANCH  10   9
ATOM      3  C   UNL     1      51.645  19.458  18.835  0.00  0.00    +0.121 A 
ATOM      4  C   UNL     1      51.955  18.768  17.671  0.00  0.00    -0.049 A 
ATOM      5  C   UNL     1      50.978  18.054  17.003  0.00  0.00    +0.033 A 
ATOM      6  C   UNL     1      49.682  18.025  17.492  0.00  0.00    +0.098 A 
ATOM      9  C   UNL     1      49.365  18.718  18.664  0.00  0.00    -0.016 A 
ATOM     26  C   UNL     1      50.355  19.430  19.336  0.00  0.00    +0.016 A 
BRANCH   3   2
ATOM      1  C   UNL     1      52.287  21.489  19.893  0.00  0.00    +0.243 C 
ATOM      2  O   UNL     1      52.612  20.158  19.486  0.00  0.00    -0.316 OA
ENDBRANCH   3   2
BRANCH   6   7
ATOM      7  O   UNL     1      48.721  17.323  16.834  0.00  0.00    -0.492 OA
ATOM      8  H   UNL     1      48.988  16.426  16.588  0.00  0.00    +0.391 HD
ENDBRANCH   6   7
ENDBRANCH  10   9
BRANCH  19  20
ATOM     20  O   UNL     1      45.110  21.847  18.609  0.00  0.00    -0.466 OA
ATOM     21  H   UNL     1      44.399  22.500  18.569  0.00  0.00    +0.404 HD
ENDBRANCH  19  20
TORSDOF 4
ENDMDL
