MODEL 1
REMARK VINA RESULT:      -4.6      0.000      0.000
REMARK  Name = ZINC05758645
REMARK  21 active torsions:
REMARK  status: ('A' for Active; 'I' for Inactive)
REMARK    1  A    between atoms: C1_1  and  C2_2
REMARK    2  A    between atoms: C2_2  and  C3_4
REMARK    3  A    between atoms: C2_2  and  C17_21
REMARK    4  A    between atoms: C3_4  and  C4_5
REMARK    5  A    between atoms: C4_5  and  C5_6
REMARK    6  A    between atoms: C5_6  and  C6_7
REMARK    7  A    between atoms: C6_7  and  C7_9
REMARK    8  A    between atoms: C6_7  and  C8_10
REMARK    9  A    between atoms: C8_10  and  C9_11
REMARK   10  A    between atoms: C9_11  and  C10_12
REMARK   11  A    between atoms: C10_12  and  C11_13
REMARK   12  A    between atoms: C11_13  and  C16_20
REMARK   13  A    between atoms: C12_14  and  C13_15
REMARK   14  A    between atoms: C13_15  and  O1_16
REMARK   15  A    between atoms: O1_16  and  C14_17
REMARK   16  A    between atoms: C14_17  and  C15_19
REMARK   17  A    between atoms: C17_21  and  C18_22
REMARK   18  A    between atoms: C18_22  and  C19_23
REMARK   19  A    between atoms: C19_23  and  C20_24
REMARK   20  A    between atoms: C20_24  and  C21_25
REMARK   21  A    between atoms: C20_24  and  C22_26
REMARK                            x       y       z     vdW  Elec       q    Type
REMARK                         _______ _______ _______ _____ _____    ______ ____
ROOT
ATOM     12  C   UNL     1      52.094  20.698  17.846  0.00  0.00    -0.024 C 
ATOM     24  C   UNL     1      51.326  21.093  16.583  0.00  0.00    +0.013 C 
ENDROOT
BRANCH  12  11
ATOM     11  C   UNL     1      52.337  19.187  17.844  0.00  0.00    +0.005 C 
BRANCH  11  10
ATOM     10  C   UNL     1      51.757  18.579  16.565  0.00  0.00    +0.003 C 
BRANCH  10   9
ATOM      9  C   UNL     1      51.076  17.250  16.896  0.00  0.00    +0.005 C 
BRANCH   9   2
ATOM      1  C   UNL     1      49.900  16.542  18.984  0.00  0.00    +0.012 C 
ATOM      2  C   UNL     1      49.866  17.507  17.798  0.00  0.00    -0.024 C 
BRANCH   2   3
ATOM      3  C   UNL     1      48.580  17.290  16.999  0.00  0.00    +0.005 C 
BRANCH   3   4
ATOM      4  C   UNL     1      47.382  17.768  17.823  0.00  0.00    +0.003 C 
BRANCH   4   5
ATOM      5  C   UNL     1      46.311  16.674  17.846  0.00  0.00    +0.005 C 
BRANCH   5   6
ATOM      6  C   UNL     1      45.646  16.642  19.224  0.00  0.00    -0.031 C 
ATOM      7  C   UNL     1      46.537  17.361  20.238  0.00  0.00    +0.012 C 
ATOM      8  C   UNL     1      45.446  15.190  19.659  0.00  0.00    +0.012 C 
ENDBRANCH   5   6
ENDBRANCH   4   5
ENDBRANCH   3   4
ENDBRANCH   2   3
ENDBRANCH   9   2
ENDBRANCH  10   9
ENDBRANCH  11  10
ENDBRANCH  12  11
BRANCH  12  13
ATOM     13  C   UNL     1      51.275  21.080  19.081  0.00  0.00    +0.008 C 
BRANCH  13  14
ATOM     14  C   UNL     1      49.785  20.915  18.776  0.00  0.00    +0.015 C 
BRANCH  14  15
ATOM     15  C   UNL     1      49.054  20.456  20.038  0.00  0.00    +0.057 C 
BRANCH  15  16
ATOM     16  C   UNL     1      47.624  20.932  19.993  0.00  0.00    -0.099 C 
ATOM     17  C   UNL     1      47.007  21.582  21.204  0.00  0.00    +0.077 C 
ATOM     18  C   UNL     1      46.919  20.781  18.900  0.00  0.00    -0.051 C 
BRANCH  18  19
ATOM     19  C   UNL     1      45.489  21.257  18.853  0.00  0.00    +0.245 C 
BRANCH  19  20
ATOM     20  O   UNL     1      44.630  20.159  18.545  0.00  0.00    -0.349 OA
BRANCH  20  21
ATOM     21  C   UNL     1      43.536  20.008  19.307  0.00  0.00    +0.458 C 
ATOM     22  C   UNL     1      42.232  20.637  18.889  0.00  0.00    +0.157 C 
ATOM     23  O   UNL     1      43.596  19.366  20.330  0.00  0.00    -0.514 OA
ENDBRANCH  20  21
ENDBRANCH  19  20
ENDBRANCH  18  19
ENDBRANCH  15  16
ENDBRANCH  14  15
ENDBRANCH  13  14
ENDBRANCH  12  13
TORSDOF 15
ENDMDL
MODEL 2
REMARK VINA RESULT:      -4.6      1.324      4.119
REMARK  Name = ZINC05758645
REMARK  21 active torsions:
REMARK  status: ('A' for Active; 'I' for Inactive)
REMARK    1  A    between atoms: C1_1  and  C2_2
REMARK    2  A    between atoms: C2_2  and  C3_4
REMARK    3  A    between atoms: C2_2  and  C17_21
REMARK    4  A    between atoms: C3_4  and  C4_5
REMARK    5  A    between atoms: C4_5  and  C5_6
REMARK    6  A    between atoms: C5_6  and  C6_7
REMARK    7  A    between atoms: C6_7  and  C7_9
REMARK    8  A    between atoms: C6_7  and  C8_10
REMARK    9  A    between atoms: C8_10  and  C9_11
REMARK   10  A    between atoms: C9_11  and  C10_12
REMARK   11  A    between atoms: C10_12  and  C11_13
REMARK   12  A    between atoms: C11_13  and  C16_20
REMARK   13  A    between atoms: C12_14  and  C13_15
REMARK   14  A    between atoms: C13_15  and  O1_16
REMARK   15  A    between atoms: O1_16  and  C14_17
REMARK   16  A    between atoms: C14_17  and  C15_19
REMARK   17  A    between atoms: C17_21  and  C18_22
REMARK   18  A    between atoms: C18_22  and  C19_23
REMARK   19  A    between atoms: C19_23  and  C20_24
REMARK   20  A    between atoms: C20_24  and  C21_25
REMARK   21  A    between atoms: C20_24  and  C22_26
REMARK                            x       y       z     vdW  Elec       q    Type
REMARK                         _______ _______ _______ _____ _____    ______ ____
ROOT
ATOM     12  C   UNL     1      49.952  16.127  18.441  0.00  0.00    -0.024 C 
ATOM     24  C   UNL     1      49.096  15.518  19.554  0.00  0.00    +0.013 C 
ENDROOT
BRANCH  12  11
ATOM     11  C   UNL     1      50.614  17.409  18.950  0.00  0.00    +0.005 C 
BRANCH  11  10
ATOM     10  C   UNL     1      52.070  17.450  18.485  0.00  0.00    +0.003 C 
BRANCH  10   9
ATOM      9  C   UNL     1      52.440  18.881  18.092  0.00  0.00    +0.005 C 
BRANCH   9   2
ATOM      1  C   UNL     1      51.984  19.171  15.652  0.00  0.00    +0.012 C 
ATOM      2  C   UNL     1      51.436  19.403  17.061  0.00  0.00    -0.024 C 
BRANCH   2   3
ATOM      3  C   UNL     1      51.210  20.899  17.282  0.00  0.00    +0.005 C 
BRANCH   3   4
ATOM      4  C   UNL     1      50.874  21.153  18.754  0.00  0.00    +0.003 C 
BRANCH   4   5
ATOM      5  C   UNL     1      49.392  20.857  18.996  0.00  0.00    +0.005 C 
BRANCH   5   6
ATOM      6  C   UNL     1      49.141  20.703  20.497  0.00  0.00    -0.031 C 
ATOM      7  C   UNL     1      50.470  20.458  21.214  0.00  0.00    +0.012 C 
ATOM      8  C   UNL     1      48.205  19.519  20.739  0.00  0.00    +0.012 C 
ENDBRANCH   5   6
ENDBRANCH   4   5
ENDBRANCH   3   4
ENDBRANCH   2   3
ENDBRANCH   9   2
ENDBRANCH  10   9
ENDBRANCH  11  10
ENDBRANCH  12  11
BRANCH  12  13
ATOM     13  C   UNL     1      49.064  16.455  17.237  0.00  0.00    +0.008 C 
BRANCH  13  14
ATOM     14  C   UNL     1      48.212  17.686  17.553  0.00  0.00    +0.015 C 
BRANCH  14  15
ATOM     15  C   UNL     1      46.753  17.401  17.193  0.00  0.00    +0.057 C 
BRANCH  15  16
ATOM     16  C   UNL     1      45.851  17.993  18.245  0.00  0.00    -0.099 C 
ATOM     17  C   UNL     1      45.294  17.118  19.339  0.00  0.00    +0.077 C 
ATOM     18  C   UNL     1      45.551  19.267  18.209  0.00  0.00    -0.051 C 
BRANCH  18  19
ATOM     19  C   UNL     1      44.649  19.860  19.262  0.00  0.00    +0.245 C 
BRANCH  19  20
ATOM     20  O   UNL     1      43.448  20.331  18.650  0.00  0.00    -0.349 OA
BRANCH  20  21
ATOM     21  C   UNL     1      42.290  19.848  19.127  0.00  0.00    +0.458 C 
ATOM     22  C   UNL     1      42.257  19.146  20.460  0.00  0.00    +0.157 C 
ATOM     23  O   UNL     1      41.273  19.977  18.487  0.00  0.00    -0.514 OA
ENDBRANCH  20  21
ENDBRANCH  19  20
ENDBRANCH  18  19
ENDBRANCH  15  16
ENDBRANCH  14  15
ENDBRANCH  13  14
ENDBRANCH  12  13
TORSDOF 15
ENDMDL
MODEL 3
REMARK VINA RESULT:      -4.4      1.674      5.309
REMARK  Name = ZINC05758645
REMARK  21 active torsions:
REMARK  status: ('A' for Active; 'I' for Inactive)
REMARK    1  A    between atoms: C1_1  and  C2_2
REMARK    2  A    between atoms: C2_2  and  C3_4
REMARK    3  A    between atoms: C2_2  and  C17_21
REMARK    4  A    between atoms: C3_4  and  C4_5
REMARK    5  A    between atoms: C4_5  and  C5_6
REMARK    6  A    between atoms: C5_6  and  C6_7
REMARK    7  A    between atoms: C6_7  and  C7_9
REMARK    8  A    between atoms: C6_7  and  C8_10
REMARK    9  A    between atoms: C8_10  and  C9_11
REMARK   10  A    between atoms: C9_11  and  C10_12
REMARK   11  A    between atoms: C10_12  and  C11_13
REMARK   12  A    between atoms: C11_13  and  C16_20
REMARK   13  A    between atoms: C12_14  and  C13_15
REMARK   14  A    between atoms: C13_15  and  O1_16
REMARK   15  A    between atoms: O1_16  and  C14_17
REMARK   16  A    between atoms: C14_17  and  C15_19
REMARK   17  A    between atoms: C17_21  and  C18_22
REMARK   18  A    between atoms: C18_22  and  C19_23
REMARK   19  A    between atoms: C19_23  and  C20_24
REMARK   20  A    between atoms: C20_24  and  C21_25
REMARK   21  A    between atoms: C20_24  and  C22_26
REMARK                            x       y       z     vdW  Elec       q    Type
REMARK                         _______ _______ _______ _____ _____    ______ ____
ROOT
ATOM     12  C   UNL     1      46.978  16.734  18.700  0.00  0.00    -0.024 C 
ATOM     24  C   UNL     1      46.280  16.957  17.356  0.00  0.00    +0.013 C 
ENDROOT
BRANCH  12  11
ATOM     11  C   UNL     1      48.494  16.717  18.490  0.00  0.00    +0.005 C 
BRANCH  11  10
ATOM     10  C   UNL     1      49.167  17.572  19.566  0.00  0.00    +0.003 C 
BRANCH  10   9
ATOM      9  C   UNL     1      48.377  18.870  19.754  0.00  0.00    +0.005 C 
BRANCH   9   2
ATOM      1  C   UNL     1      48.813  20.921  21.113  0.00  0.00    +0.012 C 
ATOM      2  C   UNL     1      49.349  20.028  19.993  0.00  0.00    -0.024 C 
BRANCH   2   3
ATOM      3  C   UNL     1      49.490  20.848  18.709  0.00  0.00    +0.005 C 
BRANCH   3   4
ATOM      4  C   UNL     1      50.967  21.164  18.466  0.00  0.00    +0.003 C 
BRANCH   4   5
ATOM      5  C   UNL     1      51.765  19.859  18.406  0.00  0.00    +0.005 C 
BRANCH   5   6
ATOM      6  C   UNL     1      52.130  19.551  16.952  0.00  0.00    -0.031 C 
ATOM      7  C   UNL     1      51.962  20.814  16.105  0.00  0.00    +0.012 C 
ATOM      8  C   UNL     1      51.210  18.452  16.418  0.00  0.00    +0.012 C 
ENDBRANCH   5   6
ENDBRANCH   4   5
ENDBRANCH   3   4
ENDBRANCH   2   3
ENDBRANCH   9   2
ENDBRANCH  10   9
ENDBRANCH  11  10
ENDBRANCH  12  11
BRANCH  12  13
ATOM     13  C   UNL     1      46.531  15.395  19.290  0.00  0.00    +0.008 C 
BRANCH  13  14
ATOM     14  C   UNL     1      45.278  15.607  20.143  0.00  0.00    +0.015 C 
BRANCH  14  15
ATOM     15  C   UNL     1      45.430  16.892  20.959  0.00  0.00    +0.057 C 
BRANCH  15  16
ATOM     16  C   UNL     1      44.122  17.641  20.965  0.00  0.00    -0.099 C 
ATOM     17  C   UNL     1      43.112  17.388  22.054  0.00  0.00    +0.077 C 
ATOM     18  C   UNL     1      43.864  18.513  20.022  0.00  0.00    -0.051 C 
BRANCH  18  19
ATOM     19  C   UNL     1      42.556  19.263  20.027  0.00  0.00    +0.245 C 
BRANCH  19  20
ATOM     20  O   UNL     1      42.521  20.167  18.921  0.00  0.00    -0.349 OA
BRANCH  20  21
ATOM     21  C   UNL     1      41.316  20.454  18.405  0.00  0.00    +0.458 C 
ATOM     22  C   UNL     1      40.721  21.825  18.595  0.00  0.00    +0.157 C 
ATOM     23  O   UNL     1      40.708  19.611  17.788  0.00  0.00    -0.514 OA
ENDBRANCH  20  21
ENDBRANCH  19  20
ENDBRANCH  18  19
ENDBRANCH  15  16
ENDBRANCH  14  15
ENDBRANCH  13  14
ENDBRANCH  12  13
TORSDOF 15
ENDMDL
MODEL 4
REMARK VINA RESULT:      -4.3      1.677      4.856
REMARK  Name = ZINC05758645
REMARK  21 active torsions:
REMARK  status: ('A' for Active; 'I' for Inactive)
REMARK    1  A    between atoms: C1_1  and  C2_2
REMARK    2  A    between atoms: C2_2  and  C3_4
REMARK    3  A    between atoms: C2_2  and  C17_21
REMARK    4  A    between atoms: C3_4  and  C4_5
REMARK    5  A    between atoms: C4_5  and  C5_6
REMARK    6  A    between atoms: C5_6  and  C6_7
REMARK    7  A    between atoms: C6_7  and  C7_9
REMARK    8  A    between atoms: C6_7  and  C8_10
REMARK    9  A    between atoms: C8_10  and  C9_11
REMARK   10  A    between atoms: C9_11  and  C10_12
REMARK   11  A    between atoms: C10_12  and  C11_13
REMARK   12  A    between atoms: C11_13  and  C16_20
REMARK   13  A    between atoms: C12_14  and  C13_15
REMARK   14  A    between atoms: C13_15  and  O1_16
REMARK   15  A    between atoms: O1_16  and  C14_17
REMARK   16  A    between atoms: C14_17  and  C15_19
REMARK   17  A    between atoms: C17_21  and  C18_22
REMARK   18  A    between atoms: C18_22  and  C19_23
REMARK   19  A    between atoms: C19_23  and  C20_24
REMARK   20  A    between atoms: C20_24  and  C21_25
REMARK   21  A    between atoms: C20_24  and  C22_26
REMARK                            x       y       z     vdW  Elec       q    Type
REMARK                         _______ _______ _______ _____ _____    ______ ____
ROOT
ATOM     12  C   UNL     1      46.708  20.025  19.182  0.00  0.00    -0.024 C 
ATOM     24  C   UNL     1      46.160  21.382  18.734  0.00  0.00    +0.013 C 
ENDROOT
BRANCH  12  11
ATOM     11  C   UNL     1      48.236  20.041  19.105  0.00  0.00    +0.005 C 
BRANCH  11  10
ATOM     10  C   UNL     1      48.819  19.566  20.436  0.00  0.00    +0.003 C 
BRANCH  10   9
ATOM      9  C   UNL     1      49.895  18.510  20.175  0.00  0.00    +0.005 C 
BRANCH   9   2
ATOM      1  C   UNL     1      48.883  16.339  19.463  0.00  0.00    +0.012 C 
ATOM      2  C   UNL     1      49.489  17.655  18.972  0.00  0.00    -0.024 C 
BRANCH   2   3
ATOM      3  C   UNL     1      50.722  17.362  18.116  0.00  0.00    +0.005 C 
BRANCH   3   4
ATOM      4  C   UNL     1      51.856  18.309  18.515  0.00  0.00    +0.003 C 
BRANCH   4   5
ATOM      5  C   UNL     1      52.220  19.198  17.323  0.00  0.00    +0.005 C 
BRANCH   5   6
ATOM      6  C   UNL     1      51.357  20.461  17.347  0.00  0.00    -0.031 C 
ATOM      7  C   UNL     1      51.624  21.285  16.087  0.00  0.00    +0.012 C 
ATOM      8  C   UNL     1      51.705  21.292  18.584  0.00  0.00    +0.012 C 
ENDBRANCH   5   6
ENDBRANCH   4   5
ENDBRANCH   3   4
ENDBRANCH   2   3
ENDBRANCH   9   2
ENDBRANCH  10   9
ENDBRANCH  11  10
ENDBRANCH  12  11
BRANCH  12  13
ATOM     13  C   UNL     1      46.162  18.928  18.265  0.00  0.00    +0.008 C 
BRANCH  13  14
ATOM     14  C   UNL     1      45.487  17.847  19.111  0.00  0.00    +0.015 C 
BRANCH  14  15
ATOM     15  C   UNL     1      45.407  18.314  20.566  0.00  0.00    +0.057 C 
BRANCH  15  16
ATOM     16  C   UNL     1      44.081  18.989  20.804  0.00  0.00    -0.099 C 
ATOM     17  C   UNL     1      43.983  20.135  21.779  0.00  0.00    +0.077 C 
ATOM     18  C   UNL     1      43.013  18.581  20.165  0.00  0.00    -0.051 C 
BRANCH  18  19
ATOM     19  C   UNL     1      41.687  19.256  20.402  0.00  0.00    +0.245 C 
BRANCH  19  20
ATOM     20  O   UNL     1      41.113  19.634  19.150  0.00  0.00    -0.349 OA
BRANCH  20  21
ATOM     21  C   UNL     1      40.915  20.945  18.939  0.00  0.00    +0.458 C 
ATOM     22  C   UNL     1      39.534  21.458  18.625  0.00  0.00    +0.157 C 
ATOM     23  O   UNL     1      41.846  21.713  19.002  0.00  0.00    -0.514 OA
ENDBRANCH  20  21
ENDBRANCH  19  20
ENDBRANCH  18  19
ENDBRANCH  15  16
ENDBRANCH  14  15
ENDBRANCH  13  14
ENDBRANCH  12  13
TORSDOF 15
ENDMDL
MODEL 5
REMARK VINA RESULT:      -4.3      2.285      4.590
REMARK  Name = ZINC05758645
REMARK  21 active torsions:
REMARK  status: ('A' for Active; 'I' for Inactive)
REMARK    1  A    between atoms: C1_1  and  C2_2
REMARK    2  A    between atoms: C2_2  and  C3_4
REMARK    3  A    between atoms: C2_2  and  C17_21
REMARK    4  A    between atoms: C3_4  and  C4_5
REMARK    5  A    between atoms: C4_5  and  C5_6
REMARK    6  A    between atoms: C5_6  and  C6_7
REMARK    7  A    between atoms: C6_7  and  C7_9
REMARK    8  A    between atoms: C6_7  and  C8_10
REMARK    9  A    between atoms: C8_10  and  C9_11
REMARK   10  A    between atoms: C9_11  and  C10_12
REMARK   11  A    between atoms: C10_12  and  C11_13
REMARK   12  A    between atoms: C11_13  and  C16_20
REMARK   13  A    between atoms: C12_14  and  C13_15
REMARK   14  A    between atoms: C13_15  and  O1_16
REMARK   15  A    between atoms: O1_16  and  C14_17
REMARK   16  A    between atoms: C14_17  and  C15_19
REMARK   17  A    between atoms: C17_21  and  C18_22
REMARK   18  A    between atoms: C18_22  and  C19_23
REMARK   19  A    between atoms: C19_23  and  C20_24
REMARK   20  A    between atoms: C20_24  and  C21_25
REMARK   21  A    between atoms: C20_24  and  C22_26
REMARK                            x       y       z     vdW  Elec       q    Type
REMARK                         _______ _______ _______ _____ _____    ______ ____
ROOT
ATOM     12  C   UNL     1      51.475  19.459  16.933  0.00  0.00    -0.024 C 
ATOM     24  C   UNL     1      52.189  19.634  15.590  0.00  0.00    +0.013 C 
ENDROOT
BRANCH  12  11
ATOM     11  C   UNL     1      51.742  20.681  17.814  0.00  0.00    +0.005 C 
BRANCH  11  10
ATOM     10  C   UNL     1      50.420  21.192  18.391  0.00  0.00    +0.003 C 
BRANCH  10   9
ATOM      9  C   UNL     1      50.295  20.745  19.849  0.00  0.00    +0.005 C 
BRANCH   9   2
ATOM      1  C   UNL     1      48.562  19.472  21.123  0.00  0.00    +0.012 C 
ATOM      2  C   UNL     1      48.817  20.697  20.242  0.00  0.00    -0.024 C 
BRANCH   2   3
ATOM      3  C   UNL     1      47.957  20.605  18.980  0.00  0.00    +0.005 C 
BRANCH   3   4
ATOM      4  C   UNL     1      46.672  19.834  19.294  0.00  0.00    +0.003 C 
BRANCH   4   5
ATOM      5  C   UNL     1      45.473  20.581  18.706  0.00  0.00    +0.005 C 
BRANCH   5   6
ATOM      6  C   UNL     1      44.240  19.677  18.745  0.00  0.00    -0.031 C 
ATOM      7  C   UNL     1      43.018  20.497  19.162  0.00  0.00    +0.012 C 
ATOM      8  C   UNL     1      44.466  18.549  19.753  0.00  0.00    +0.012 C 
ENDBRANCH   5   6
ENDBRANCH   4   5
ENDBRANCH   3   4
ENDBRANCH   2   3
ENDBRANCH   9   2
ENDBRANCH  10   9
ENDBRANCH  11  10
ENDBRANCH  12  11
BRANCH  12  13
ATOM     13  C   UNL     1      52.002  18.203  17.630  0.00  0.00    +0.008 C 
BRANCH  13  14
ATOM     14  C   UNL     1      50.841  17.471  18.306  0.00  0.00    +0.015 C 
BRANCH  14  15
ATOM     15  C   UNL     1      49.577  17.629  17.459  0.00  0.00    +0.057 C 
BRANCH  15  16
ATOM     16  C   UNL     1      48.458  16.824  18.070  0.00  0.00    -0.099 C 
ATOM     17  C   UNL     1      48.607  16.261  19.460  0.00  0.00    +0.077 C 
ATOM     18  C   UNL     1      47.357  16.614  17.393  0.00  0.00    -0.051 C 
BRANCH  18  19
ATOM     19  C   UNL     1      46.238  15.810  18.003  0.00  0.00    +0.245 C 
BRANCH  19  20
ATOM     20  O   UNL     1      46.310  14.462  17.537  0.00  0.00    -0.349 OA
BRANCH  20  21
ATOM     21  C   UNL     1      45.802  13.512  18.336  0.00  0.00    +0.458 C 
ATOM     22  C   UNL     1      45.299  13.871  19.710  0.00  0.00    +0.157 C 
ATOM     23  O   UNL     1      45.748  12.366  17.954  0.00  0.00    -0.514 OA
ENDBRANCH  20  21
ENDBRANCH  19  20
ENDBRANCH  18  19
ENDBRANCH  15  16
ENDBRANCH  14  15
ENDBRANCH  13  14
ENDBRANCH  12  13
TORSDOF 15
ENDMDL
MODEL 6
REMARK VINA RESULT:      -4.3      1.576      2.229
REMARK  Name = ZINC05758645
REMARK  21 active torsions:
REMARK  status: ('A' for Active; 'I' for Inactive)
REMARK    1  A    between atoms: C1_1  and  C2_2
REMARK    2  A    between atoms: C2_2  and  C3_4
REMARK    3  A    between atoms: C2_2  and  C17_21
REMARK    4  A    between atoms: C3_4  and  C4_5
REMARK    5  A    between atoms: C4_5  and  C5_6
REMARK    6  A    between atoms: C5_6  and  C6_7
REMARK    7  A    between atoms: C6_7  and  C7_9
REMARK    8  A    between atoms: C6_7  and  C8_10
REMARK    9  A    between atoms: C8_10  and  C9_11
REMARK   10  A    between atoms: C9_11  and  C10_12
REMARK   11  A    between atoms: C10_12  and  C11_13
REMARK   12  A    between atoms: C11_13  and  C16_20
REMARK   13  A    between atoms: C12_14  and  C13_15
REMARK   14  A    between atoms: C13_15  and  O1_16
REMARK   15  A    between atoms: O1_16  and  C14_17
REMARK   16  A    between atoms: C14_17  and  C15_19
REMARK   17  A    between atoms: C17_21  and  C18_22
REMARK   18  A    between atoms: C18_22  and  C19_23
REMARK   19  A    between atoms: C19_23  and  C20_24
REMARK   20  A    between atoms: C20_24  and  C21_25
REMARK   21  A    between atoms: C20_24  and  C22_26
REMARK                            x       y       z     vdW  Elec       q    Type
REMARK                         _______ _______ _______ _____ _____    ______ ____
ROOT
ATOM     12  C   UNL     1      52.132  20.605  17.667  0.00  0.00    -0.024 C 
ATOM     24  C   UNL     1      51.484  21.140  16.387  0.00  0.00    +0.013 C 
ENDROOT
BRANCH  12  11
ATOM     11  C   UNL     1      52.035  19.078  17.687  0.00  0.00    +0.005 C 
BRANCH  11  10
ATOM     10  C   UNL     1      51.518  18.582  16.336  0.00  0.00    +0.003 C 
BRANCH  10   9
ATOM      9  C   UNL     1      50.114  18.000  16.511  0.00  0.00    +0.005 C 
BRANCH   9   2
ATOM      1  C   UNL     1      50.447  15.747  17.541  0.00  0.00    +0.012 C 
ATOM      2  C   UNL     1      50.051  17.200  17.814  0.00  0.00    -0.024 C 
BRANCH   2   3
ATOM      3  C   UNL     1      48.627  17.244  18.371  0.00  0.00    +0.005 C 
BRANCH   3   4
ATOM      4  C   UNL     1      47.655  16.683  17.330  0.00  0.00    +0.003 C 
BRANCH   4   5
ATOM      5  C   UNL     1      46.229  17.112  17.681  0.00  0.00    +0.005 C 
BRANCH   5   6
ATOM      6  C   UNL     1      45.980  16.885  19.174  0.00  0.00    -0.031 C 
ATOM      7  C   UNL     1      45.587  15.426  19.410  0.00  0.00    +0.012 C 
ATOM      8  C   UNL     1      44.851  17.802  19.647  0.00  0.00    +0.012 C 
ENDBRANCH   5   6
ENDBRANCH   4   5
ENDBRANCH   3   4
ENDBRANCH   2   3
ENDBRANCH   9   2
ENDBRANCH  10   9
ENDBRANCH  11  10
ENDBRANCH  12  11
BRANCH  12  13
ATOM     13  C   UNL     1      51.403  21.179  18.884  0.00  0.00    +0.008 C 
BRANCH  13  14
ATOM     14  C   UNL     1      49.894  21.008  18.702  0.00  0.00    +0.015 C 
BRANCH  14  15
ATOM     15  C   UNL     1      49.303  20.343  19.946  0.00  0.00    +0.057 C 
BRANCH  15  16
ATOM     16  C   UNL     1      47.825  20.630  20.016  0.00  0.00    -0.099 C 
ATOM     17  C   UNL     1      47.013  20.715  18.749  0.00  0.00    +0.077 C 
ATOM     18  C   UNL     1      47.246  20.806  21.178  0.00  0.00    -0.051 C 
BRANCH  18  19
ATOM     19  C   UNL     1      45.768  21.093  21.248  0.00  0.00    +0.245 C 
BRANCH  19  20
ATOM     20  O   UNL     1      45.563  22.429  21.710  0.00  0.00    -0.349 OA
BRANCH  20  21
ATOM     21  C   UNL     1      45.192  23.340  20.798  0.00  0.00    +0.458 C 
ATOM     22  C   UNL     1      45.808  24.715  20.811  0.00  0.00    +0.157 C 
ATOM     23  O   UNL     1      44.363  23.057  19.965  0.00  0.00    -0.514 OA
ENDBRANCH  20  21
ENDBRANCH  19  20
ENDBRANCH  18  19
ENDBRANCH  15  16
ENDBRANCH  14  15
ENDBRANCH  13  14
ENDBRANCH  12  13
TORSDOF 15
ENDMDL
MODEL 7
REMARK VINA RESULT:      -4.2      1.473      2.241
REMARK  Name = ZINC05758645
REMARK  21 active torsions:
REMARK  status: ('A' for Active; 'I' for Inactive)
REMARK    1  A    between atoms: C1_1  and  C2_2
REMARK    2  A    between atoms: C2_2  and  C3_4
REMARK    3  A    between atoms: C2_2  and  C17_21
REMARK    4  A    between atoms: C3_4  and  C4_5
REMARK    5  A    between atoms: C4_5  and  C5_6
REMARK    6  A    between atoms: C5_6  and  C6_7
REMARK    7  A    between atoms: C6_7  and  C7_9
REMARK    8  A    between atoms: C6_7  and  C8_10
REMARK    9  A    between atoms: C8_10  and  C9_11
REMARK   10  A    between atoms: C9_11  and  C10_12
REMARK   11  A    between atoms: C10_12  and  C11_13
REMARK   12  A    between atoms: C11_13  and  C16_20
REMARK   13  A    between atoms: C12_14  and  C13_15
REMARK   14  A    between atoms: C13_15  and  O1_16
REMARK   15  A    between atoms: O1_16  and  C14_17
REMARK   16  A    between atoms: C14_17  and  C15_19
REMARK   17  A    between atoms: C17_21  and  C18_22
REMARK   18  A    between atoms: C18_22  and  C19_23
REMARK   19  A    between atoms: C19_23  and  C20_24
REMARK   20  A    between atoms: C20_24  and  C21_25
REMARK   21  A    between atoms: C20_24  and  C22_26
REMARK                            x       y       z     vdW  Elec       q    Type
REMARK                         _______ _______ _______ _____ _____    ______ ____
ROOT
ATOM     12  C   UNL     1      52.110  20.007  16.637  0.00  0.00    -0.024 C 
ATOM     24  C   UNL     1      51.603  21.305  16.005  0.00  0.00    +0.013 C 
ENDROOT
BRANCH  12  11
ATOM     11  C   UNL     1      51.055  18.911  16.469  0.00  0.00    +0.005 C 
BRANCH  11  10
ATOM     10  C   UNL     1      51.616  17.582  16.976  0.00  0.00    +0.003 C 
BRANCH  10   9
ATOM      9  C   UNL     1      50.487  16.755  17.595  0.00  0.00    +0.005 C 
BRANCH   9   2
ATOM      1  C   UNL     1      51.725  16.850  19.764  0.00  0.00    +0.012 C 
ATOM      2  C   UNL     1      50.373  17.082  19.086  0.00  0.00    -0.024 C 
BRANCH   2   3
ATOM      3  C   UNL     1      49.320  16.177  19.727  0.00  0.00    +0.005 C 
BRANCH   3   4
ATOM      4  C   UNL     1      47.925  16.629  19.288  0.00  0.00    +0.003 C 
BRANCH   4   5
ATOM      5  C   UNL     1      47.073  15.402  18.953  0.00  0.00    +0.005 C 
BRANCH   5   6
ATOM      6  C   UNL     1      46.531  15.531  17.529  0.00  0.00    -0.031 C 
ATOM      7  C   UNL     1      47.219  14.506  16.626  0.00  0.00    +0.012 C 
ATOM      8  C   UNL     1      46.807  16.941  17.005  0.00  0.00    +0.012 C 
ENDBRANCH   5   6
ENDBRANCH   4   5
ENDBRANCH   3   4
ENDBRANCH   2   3
ENDBRANCH   9   2
ENDBRANCH  10   9
ENDBRANCH  11  10
ENDBRANCH  12  11
BRANCH  12  13
ATOM     13  C   UNL     1      52.375  20.236  18.127  0.00  0.00    +0.008 C 
BRANCH  13  14
ATOM     14  C   UNL     1      51.320  21.188  18.692  0.00  0.00    +0.015 C 
BRANCH  14  15
ATOM     15  C   UNL     1      50.938  20.745  20.105  0.00  0.00    +0.057 C 
BRANCH  15  16
ATOM     16  C   UNL     1      49.489  20.331  20.128  0.00  0.00    -0.099 C 
ATOM     17  C   UNL     1      48.899  19.719  21.372  0.00  0.00    +0.077 C 
ATOM     18  C   UNL     1      48.742  20.503  19.065  0.00  0.00    -0.051 C 
BRANCH  18  19
ATOM     19  C   UNL     1      47.293  20.090  19.087  0.00  0.00    +0.245 C 
BRANCH  19  20
ATOM     20  O   UNL     1      46.468  21.250  19.209  0.00  0.00    -0.349 OA
BRANCH  20  21
ATOM     21  C   UNL     1      45.142  21.069  19.106  0.00  0.00    +0.458 C 
ATOM     22  C   UNL     1      44.597  19.772  18.569  0.00  0.00    +0.157 C 
ATOM     23  O   UNL     1      44.385  21.948  19.445  0.00  0.00    -0.514 OA
ENDBRANCH  20  21
ENDBRANCH  19  20
ENDBRANCH  18  19
ENDBRANCH  15  16
ENDBRANCH  14  15
ENDBRANCH  13  14
ENDBRANCH  12  13
TORSDOF 15
ENDMDL
MODEL 8
REMARK VINA RESULT:      -4.2      1.212      2.102
REMARK  Name = ZINC05758645
REMARK  21 active torsions:
REMARK  status: ('A' for Active; 'I' for Inactive)
REMARK    1  A    between atoms: C1_1  and  C2_2
REMARK    2  A    between atoms: C2_2  and  C3_4
REMARK    3  A    between atoms: C2_2  and  C17_21
REMARK    4  A    between atoms: C3_4  and  C4_5
REMARK    5  A    between atoms: C4_5  and  C5_6
REMARK    6  A    between atoms: C5_6  and  C6_7
REMARK    7  A    between atoms: C6_7  and  C7_9
REMARK    8  A    between atoms: C6_7  and  C8_10
REMARK    9  A    between atoms: C8_10  and  C9_11
REMARK   10  A    between atoms: C9_11  and  C10_12
REMARK   11  A    between atoms: C10_12  and  C11_13
REMARK   12  A    between atoms: C11_13  and  C16_20
REMARK   13  A    between atoms: C12_14  and  C13_15
REMARK   14  A    between atoms: C13_15  and  O1_16
REMARK   15  A    between atoms: O1_16  and  C14_17
REMARK   16  A    between atoms: C14_17  and  C15_19
REMARK   17  A    between atoms: C17_21  and  C18_22
REMARK   18  A    between atoms: C18_22  and  C19_23
REMARK   19  A    between atoms: C19_23  and  C20_24
REMARK   20  A    between atoms: C20_24  and  C21_25
REMARK   21  A    between atoms: C20_24  and  C22_26
REMARK                            x       y       z     vdW  Elec       q    Type
REMARK                         _______ _______ _______ _____ _____    ______ ____
ROOT
ATOM     12  C   UNL     1      50.910  20.864  19.185  0.00  0.00    -0.024 C 
ATOM     24  C   UNL     1      50.866  21.241  17.702  0.00  0.00    +0.013 C 
ENDROOT
BRANCH  12  11
ATOM     11  C   UNL     1      52.204  20.102  19.478  0.00  0.00    +0.005 C 
BRANCH  11  10
ATOM     10  C   UNL     1      52.562  19.224  18.278  0.00  0.00    +0.003 C 
BRANCH  10   9
ATOM      9  C   UNL     1      52.664  17.764  18.725  0.00  0.00    +0.005 C 
BRANCH   9   2
ATOM      1  C   UNL     1      51.135  17.745  16.748  0.00  0.00    +0.012 C 
ATOM      2  C   UNL     1      51.701  16.909  17.897  0.00  0.00    -0.024 C 
BRANCH   2   3
ATOM      3  C   UNL     1      50.556  16.425  18.789  0.00  0.00    +0.005 C 
BRANCH   3   4
ATOM      4  C   UNL     1      49.230  16.569  18.037  0.00  0.00    +0.003 C 
BRANCH   4   5
ATOM      5  C   UNL     1      48.081  16.667  19.044  0.00  0.00    +0.005 C 
BRANCH   5   6
ATOM      6  C   UNL     1      46.774  16.251  18.368  0.00  0.00    -0.031 C 
ATOM      7  C   UNL     1      46.634  16.986  17.033  0.00  0.00    +0.012 C 
ATOM      8  C   UNL     1      45.595  16.610  19.274  0.00  0.00    +0.012 C 
ENDBRANCH   5   6
ENDBRANCH   4   5
ENDBRANCH   3   4
ENDBRANCH   2   3
ENDBRANCH   9   2
ENDBRANCH  10   9
ENDBRANCH  11  10
ENDBRANCH  12  11
BRANCH  12  13
ATOM     13  C   UNL     1      49.709  19.978  19.522  0.00  0.00    +0.008 C 
BRANCH  13  14
ATOM     14  C   UNL     1      48.446  20.840  19.599  0.00  0.00    +0.015 C 
BRANCH  14  15
ATOM     15  C   UNL     1      47.360  20.233  18.710  0.00  0.00    +0.057 C 
BRANCH  15  16
ATOM     16  C   UNL     1      46.004  20.661  19.210  0.00  0.00    -0.099 C 
ATOM     17  C   UNL     1      45.895  21.688  20.307  0.00  0.00    +0.077 C 
ATOM     18  C   UNL     1      44.920  20.139  18.691  0.00  0.00    -0.051 C 
BRANCH  18  19
ATOM     19  C   UNL     1      43.564  20.567  19.190  0.00  0.00    +0.245 C 
BRANCH  19  20
ATOM     20  O   UNL     1      42.792  19.412  19.523  0.00  0.00    -0.349 OA
BRANCH  20  21
ATOM     21  C   UNL     1      41.523  19.617  19.907  0.00  0.00    +0.458 C 
ATOM     22  C   UNL     1      40.672  20.634  19.191  0.00  0.00    +0.157 C 
ATOM     23  O   UNL     1      41.061  18.984  20.828  0.00  0.00    -0.514 OA
ENDBRANCH  20  21
ENDBRANCH  19  20
ENDBRANCH  18  19
ENDBRANCH  15  16
ENDBRANCH  14  15
ENDBRANCH  13  14
ENDBRANCH  12  13
TORSDOF 15
ENDMDL
MODEL 9
REMARK VINA RESULT:      -4.2      1.809      3.929
REMARK  Name = ZINC05758645
REMARK  21 active torsions:
REMARK  status: ('A' for Active; 'I' for Inactive)
REMARK    1  A    between atoms: C1_1  and  C2_2
REMARK    2  A    between atoms: C2_2  and  C3_4
REMARK    3  A    between atoms: C2_2  and  C17_21
REMARK    4  A    between atoms: C3_4  and  C4_5
REMARK    5  A    between atoms: C4_5  and  C5_6
REMARK    6  A    between atoms: C5_6  and  C6_7
REMARK    7  A    between atoms: C6_7  and  C7_9
REMARK    8  A    between atoms: C6_7  and  C8_10
REMARK    9  A    between atoms: C8_10  and  C9_11
REMARK   10  A    between atoms: C9_11  and  C10_12
REMARK   11  A    between atoms: C10_12  and  C11_13
REMARK   12  A    between atoms: C11_13  and  C16_20
REMARK   13  A    between atoms: C12_14  and  C13_15
REMARK   14  A    between atoms: C13_15  and  O1_16
REMARK   15  A    between atoms: O1_16  and  C14_17
REMARK   16  A    between atoms: C14_17  and  C15_19
REMARK   17  A    between atoms: C17_21  and  C18_22
REMARK   18  A    between atoms: C18_22  and  C19_23
REMARK   19  A    between atoms: C19_23  and  C20_24
REMARK   20  A    between atoms: C20_24  and  C21_25
REMARK   21  A    between atoms: C20_24  and  C22_26
REMARK                            x       y       z     vdW  Elec       q    Type
REMARK                         _______ _______ _______ _____ _____    ______ ____
ROOT
ATOM     12  C   UNL     1      48.873  19.396  19.963  0.00  0.00    -0.024 C 
ATOM     24  C   UNL     1      48.775  18.017  20.620  0.00  0.00    +0.013 C 
ENDROOT
BRANCH  12  11
ATOM     11  C   UNL     1      50.055  20.162  20.560  0.00  0.00    +0.005 C 
BRANCH  11  10
ATOM     10  C   UNL     1      50.530  21.222  19.565  0.00  0.00    +0.003 C 
BRANCH  10   9
ATOM      9  C   UNL     1      50.449  20.662  18.144  0.00  0.00    +0.005 C 
BRANCH   9   2
ATOM      1  C   UNL     1      51.941  20.969  16.163  0.00  0.00    +0.012 C 
ATOM      2  C   UNL     1      51.863  20.447  17.599  0.00  0.00    -0.024 C 
BRANCH   2   3
ATOM      3  C   UNL     1      52.194  18.953  17.618  0.00  0.00    +0.005 C 
BRANCH   3   4
ATOM      4  C   UNL     1      51.056  18.171  16.958  0.00  0.00    +0.003 C 
BRANCH   4   5
ATOM      5  C   UNL     1      50.843  16.853  17.708  0.00  0.00    +0.005 C 
BRANCH   5   6
ATOM      6  C   UNL     1      49.549  16.195  17.223  0.00  0.00    -0.031 C 
ATOM      7  C   UNL     1      48.471  17.264  17.038  0.00  0.00    +0.012 C 
ATOM      8  C   UNL     1      49.080  15.171  18.258  0.00  0.00    +0.012 C 
ENDBRANCH   5   6
ENDBRANCH   4   5
ENDBRANCH   3   4
ENDBRANCH   2   3
ENDBRANCH   9   2
ENDBRANCH  10   9
ENDBRANCH  11  10
ENDBRANCH  12  11
BRANCH  12  13
ATOM     13  C   UNL     1      47.580  20.174  20.217  0.00  0.00    +0.008 C 
BRANCH  13  14
ATOM     14  C   UNL     1      46.646  20.016  19.016  0.00  0.00    +0.015 C 
BRANCH  14  15
ATOM     15  C   UNL     1      45.992  21.362  18.697  0.00  0.00    +0.057 C 
BRANCH  15  16
ATOM     16  C   UNL     1      44.634  21.427  19.348  0.00  0.00    -0.099 C 
ATOM     17  C   UNL     1      44.327  22.515  20.344  0.00  0.00    +0.077 C 
ATOM     18  C   UNL     1      43.721  20.538  19.047  0.00  0.00    -0.051 C 
BRANCH  18  19
ATOM     19  C   UNL     1      42.362  20.603  19.697  0.00  0.00    +0.245 C 
BRANCH  19  20
ATOM     20  O   UNL     1      41.516  21.473  18.945  0.00  0.00    -0.349 OA
BRANCH  20  21
ATOM     21  C   UNL     1      40.349  20.969  18.514  0.00  0.00    +0.458 C 
ATOM     22  C   UNL     1      40.324  19.669  17.752  0.00  0.00    +0.157 C 
ATOM     23  O   UNL     1      39.317  21.557  18.739  0.00  0.00    -0.514 OA
ENDBRANCH  20  21
ENDBRANCH  19  20
ENDBRANCH  18  19
ENDBRANCH  15  16
ENDBRANCH  14  15
ENDBRANCH  13  14
ENDBRANCH  12  13
TORSDOF 15
ENDMDL
