MODEL 1
REMARK VINA RESULT:      -5.9      0.000      0.000
REMARK  Name = ZINC13408812
REMARK  8 active torsions:
REMARK  status: ('A' for Active; 'I' for Inactive)
REMARK    1  A    between atoms: C1_1  and  C2_2
REMARK    2  A    between atoms: C2_2  and  C3_3
REMARK    3  A    between atoms: C17_21  and  C18_23
REMARK    4  A    between atoms: C18_23  and  C21_27
REMARK    5  A    between atoms: C19_24  and  O1_25
REMARK    6  A    between atoms: O1_25  and  C20_26
REMARK    7  A    between atoms: C21_27  and  O3_29
REMARK    8  A    between atoms: O3_29  and  C22_30
REMARK                            x       y       z     vdW  Elec       q    Type
REMARK                         _______ _______ _______ _____ _____    ______ ____
ROOT
ATOM      3  C   UNL     1      49.847  12.602  16.688  0.00  0.00    +0.022 C 
ATOM      4  C   UNL     1      49.987  13.247  18.062  0.00  0.00    +0.279 C 
ATOM      5  N   UNL     1      50.005  14.715  17.897  0.00  0.00    -0.391 N 
ATOM      6  H   UNL     1      49.167  15.000  17.377  0.00  0.00    +0.427 HD
ATOM      7  C   UNL     1      51.204  15.120  17.130  0.00  0.00    +0.275 C 
ATOM      8  C   UNL     1      51.084  14.546  15.718  0.00  0.00    +0.054 C 
ATOM      9  C   UNL     1      51.239  16.627  17.075  0.00  0.00    +0.017 A 
ATOM     10  N   UNL     1      51.955  17.410  16.212  0.00  0.00    -0.564 N 
ATOM     11  H   UNL     1      52.533  17.079  15.507  0.00  0.00    +0.422 HD
ATOM     12  C   UNL     1      51.731  18.729  16.489  0.00  0.00    +0.112 A 
ATOM     13  C   UNL     1      52.212  19.900  15.909  0.00  0.00    +0.006 A 
ATOM     14  C   UNL     1      51.771  21.095  16.449  0.00  0.00    +0.051 A 
ATOM     15  C   UNL     1      50.892  21.143  17.518  0.00  0.00    -0.007 A 
ATOM     16  C   UNL     1      50.400  20.007  18.110  0.00  0.00    +0.071 A 
ATOM     17  C   UNL     1      50.830  18.783  17.585  0.00  0.00    -0.101 A 
ATOM     18  C   UNL     1      50.542  17.409  17.932  0.00  0.00    -0.153 A 
ATOM     19  C   UNL     1      49.650  16.865  19.019  0.00  0.00    +0.149 C 
ATOM     20  C   UNL     1      49.993  15.383  19.222  0.00  0.00    +0.273 C 
ATOM     21  C   UNL     1      51.027  13.017  15.804  0.00  0.00    +0.091 C 
ENDROOT
BRANCH   3   2
ATOM      1  C   UNL     1      47.386  12.197  16.547  0.00  0.00    +0.029 C 
ATOM      2  C   UNL     1      48.540  13.066  16.044  0.00  0.00    +0.005 C 
ENDBRANCH   3   2
BRANCH  21  22
ATOM     22  C   UNL     1      50.847  12.441  14.424  0.00  0.00    -0.260 C 
ATOM     27  C   UNL     1      50.575  13.254  13.386  0.00  0.00    +0.301 C 
BRANCH  22  23
ATOM     23  C   UNL     1      50.965  11.046  14.217  0.00  0.00    +0.502 C 
ATOM     26  O   UNL     1      49.984  10.332  14.310  0.00  0.00    -0.488 OA
BRANCH  23  24
ATOM     24  O   UNL     1      52.166  10.508  13.916  0.00  0.00    -0.362 OA
ATOM     25  C   UNL     1      53.062  10.277  15.005  0.00  0.00    +0.260 C 
ENDBRANCH  23  24
ENDBRANCH  22  23
BRANCH  27  28
ATOM     28  O   UNL     1      50.414  12.740  12.151  0.00  0.00    -0.278 OA
ATOM     29  C   UNL     1      51.255  13.278  11.097  0.00  0.00    +0.261 C 
ENDBRANCH  27  28
ENDBRANCH  21  22
TORSDOF 5
ENDMDL
MODEL 2
REMARK VINA RESULT:      -5.9      5.881      8.023
REMARK  Name = ZINC13408812
REMARK  8 active torsions:
REMARK  status: ('A' for Active; 'I' for Inactive)
REMARK    1  A    between atoms: C1_1  and  C2_2
REMARK    2  A    between atoms: C2_2  and  C3_3
REMARK    3  A    between atoms: C17_21  and  C18_23
REMARK    4  A    between atoms: C18_23  and  C21_27
REMARK    5  A    between atoms: C19_24  and  O1_25
REMARK    6  A    between atoms: O1_25  and  C20_26
REMARK    7  A    between atoms: C21_27  and  O3_29
REMARK    8  A    between atoms: O3_29  and  C22_30
REMARK                            x       y       z     vdW  Elec       q    Type
REMARK                         _______ _______ _______ _____ _____    ______ ____
ROOT
ATOM      3  C   UNL     1      49.252  17.821  19.416  0.00  0.00    +0.022 C 
ATOM      4  C   UNL     1      48.008  17.240  20.076  0.00  0.00    +0.279 C 
ATOM      5  N   UNL     1      46.842  18.067  19.702  0.00  0.00    -0.391 N 
ATOM      6  H   UNL     1      46.793  18.125  18.678  0.00  0.00    +0.427 HD
ATOM      7  C   UNL     1      46.998  19.432  20.251  0.00  0.00    +0.275 C 
ATOM      8  C   UNL     1      48.204  20.085  19.573  0.00  0.00    +0.054 C 
ATOM      9  C   UNL     1      45.744  20.210  19.936  0.00  0.00    +0.017 A 
ATOM     10  N   UNL     1      45.584  21.569  19.950  0.00  0.00    -0.564 N 
ATOM     11  H   UNL     1      46.281  22.210  20.159  0.00  0.00    +0.422 HD
ATOM     12  C   UNL     1      44.297  21.886  19.621  0.00  0.00    +0.112 A 
ATOM     13  C   UNL     1      43.640  23.108  19.494  0.00  0.00    +0.006 A 
ATOM     14  C   UNL     1      42.303  23.068  19.138  0.00  0.00    +0.051 A 
ATOM     15  C   UNL     1      41.635  21.876  18.913  0.00  0.00    -0.007 A 
ATOM     16  C   UNL     1      42.255  20.657  19.029  0.00  0.00    +0.071 A 
ATOM     17  C   UNL     1      43.607  20.667  19.389  0.00  0.00    -0.101 A 
ATOM     18  C   UNL     1      44.574  19.615  19.606  0.00  0.00    -0.153 A 
ATOM     19  C   UNL     1      44.400  18.121  19.503  0.00  0.00    +0.149 C 
ATOM     20  C   UNL     1      45.590  17.451  20.204  0.00  0.00    +0.273 C 
ATOM     21  C   UNL     1      49.458  19.263  19.888  0.00  0.00    +0.091 C 
ENDROOT
BRANCH   3   2
ATOM      1  C   UNL     1      49.809  16.598  17.310  0.00  0.00    +0.029 C 
ATOM      2  C   UNL     1      49.072  17.803  17.897  0.00  0.00    +0.005 C 
ENDBRANCH   3   2
BRANCH  21  22
ATOM     22  C   UNL     1      50.644  19.860  19.177  0.00  0.00    -0.260 C 
ATOM     27  C   UNL     1      50.461  20.829  18.261  0.00  0.00    +0.301 C 
BRANCH  22  23
ATOM     23  C   UNL     1      51.951  19.403  19.470  0.00  0.00    +0.502 C 
ATOM     26  O   UNL     1      52.511  19.772  20.485  0.00  0.00    -0.488 OA
BRANCH  23  24
ATOM     24  O   UNL     1      52.576  18.559  18.622  0.00  0.00    -0.362 OA
ATOM     25  C   UNL     1      52.961  17.285  19.144  0.00  0.00    +0.260 C 
ENDBRANCH  23  24
ENDBRANCH  22  23
BRANCH  27  28
ATOM     28  O   UNL     1      51.521  21.364  17.624  0.00  0.00    -0.278 OA
ATOM     29  C   UNL     1      51.647  21.085  16.205  0.00  0.00    +0.261 C 
ENDBRANCH  27  28
ENDBRANCH  21  22
TORSDOF 5
ENDMDL
MODEL 3
REMARK VINA RESULT:      -5.5      4.085      7.907
REMARK  Name = ZINC13408812
REMARK  8 active torsions:
REMARK  status: ('A' for Active; 'I' for Inactive)
REMARK    1  A    between atoms: C1_1  and  C2_2
REMARK    2  A    between atoms: C2_2  and  C3_3
REMARK    3  A    between atoms: C17_21  and  C18_23
REMARK    4  A    between atoms: C18_23  and  C21_27
REMARK    5  A    between atoms: C19_24  and  O1_25
REMARK    6  A    between atoms: O1_25  and  C20_26
REMARK    7  A    between atoms: C21_27  and  O3_29
REMARK    8  A    between atoms: O3_29  and  C22_30
REMARK                            x       y       z     vdW  Elec       q    Type
REMARK                         _______ _______ _______ _____ _____    ______ ____
ROOT
ATOM      3  C   UNL     1      48.173  19.394  19.908  0.00  0.00    +0.022 C 
ATOM      4  C   UNL     1      46.746  18.864  19.977  0.00  0.00    +0.279 C 
ATOM      5  N   UNL     1      46.740  17.458  19.520  0.00  0.00    -0.391 N 
ATOM      6  H   UNL     1      47.420  16.927  20.077  0.00  0.00    +0.427 HD
ATOM      7  C   UNL     1      47.134  17.391  18.095  0.00  0.00    +0.275 C 
ATOM      8  C   UNL     1      48.585  17.859  17.978  0.00  0.00    +0.054 C 
ATOM      9  C   UNL     1      47.014  15.957  17.643  0.00  0.00    +0.017 A 
ATOM     10  N   UNL     1      47.580  15.386  16.536  0.00  0.00    -0.564 N 
ATOM     11  H   UNL     1      48.150  15.846  15.900  0.00  0.00    +0.422 HD
ATOM     12  C   UNL     1      47.225  14.069  16.463  0.00  0.00    +0.112 A 
ATOM     13  C   UNL     1      47.535  13.067  15.546  0.00  0.00    +0.006 A 
ATOM     14  C   UNL     1      46.995  11.814  15.778  0.00  0.00    +0.051 A 
ATOM     15  C   UNL     1      46.181  11.551  16.867  0.00  0.00    -0.007 A 
ATOM     16  C   UNL     1      45.859  12.516  17.788  0.00  0.00    +0.071 A 
ATOM     17  C   UNL     1      46.390  13.793  17.578  0.00  0.00    -0.101 A 
ATOM     18  C   UNL     1      46.278  15.036  18.308  0.00  0.00    -0.153 A 
ATOM     19  C   UNL     1      45.516  15.336  19.573  0.00  0.00    +0.149 C 
ATOM     20  C   UNL     1      45.396  16.860  19.711  0.00  0.00    +0.273 C 
ATOM     21  C   UNL     1      48.684  19.307  18.466  0.00  0.00    +0.091 C 
ENDROOT
BRANCH   3   2
ATOM      1  C   UNL     1      49.297  19.290  22.136  0.00  0.00    +0.029 C 
ATOM      2  C   UNL     1      49.070  18.551  20.816  0.00  0.00    +0.005 C 
ENDBRANCH   3   2
BRANCH  21  22
ATOM     22  C   UNL     1      50.120  19.760  18.413  0.00  0.00    -0.260 C 
ATOM     27  C   UNL     1      50.465  20.962  18.911  0.00  0.00    +0.301 C 
BRANCH  22  23
ATOM     23  C   UNL     1      51.106  18.923  17.840  0.00  0.00    +0.502 C 
ATOM     26  O   UNL     1      51.845  18.275  18.556  0.00  0.00    -0.488 OA
BRANCH  23  24
ATOM     24  O   UNL     1      51.227  18.845  16.498  0.00  0.00    -0.362 OA
ATOM     25  C   UNL     1      52.208  19.686  15.886  0.00  0.00    +0.260 C 
ENDBRANCH  23  24
ENDBRANCH  22  23
BRANCH  27  28
ATOM     28  O   UNL     1      51.749  21.368  18.864  0.00  0.00    -0.278 OA
ATOM     29  C   UNL     1      52.399  21.647  20.132  0.00  0.00    +0.261 C 
ENDBRANCH  27  28
ENDBRANCH  21  22
TORSDOF 5
ENDMDL
MODEL 4
REMARK VINA RESULT:      -5.3      4.102      7.863
REMARK  Name = ZINC13408812
REMARK  8 active torsions:
REMARK  status: ('A' for Active; 'I' for Inactive)
REMARK    1  A    between atoms: C1_1  and  C2_2
REMARK    2  A    between atoms: C2_2  and  C3_3
REMARK    3  A    between atoms: C17_21  and  C18_23
REMARK    4  A    between atoms: C18_23  and  C21_27
REMARK    5  A    between atoms: C19_24  and  O1_25
REMARK    6  A    between atoms: O1_25  and  C20_26
REMARK    7  A    between atoms: C21_27  and  O3_29
REMARK    8  A    between atoms: O3_29  and  C22_30
REMARK                            x       y       z     vdW  Elec       q    Type
REMARK                         _______ _______ _______ _____ _____    ______ ____
ROOT
ATOM      3  C   UNL     1      48.128  18.278  19.765  0.00  0.00    +0.022 C 
ATOM      4  C   UNL     1      46.766  17.612  19.913  0.00  0.00    +0.279 C 
ATOM      5  N   UNL     1      46.831  16.263  19.313  0.00  0.00    -0.391 N 
ATOM      6  H   UNL     1      47.606  15.746  19.744  0.00  0.00    +0.427 HD
ATOM      7  C   UNL     1      47.078  16.371  17.858  0.00  0.00    +0.275 C 
ATOM      8  C   UNL     1      48.465  16.983  17.654  0.00  0.00    +0.054 C 
ATOM      9  C   UNL     1      47.032  14.983  17.271  0.00  0.00    +0.017 A 
ATOM     10  N   UNL     1      47.526  14.577  16.061  0.00  0.00    -0.564 N 
ATOM     11  H   UNL     1      47.986  15.148  15.426  0.00  0.00    +0.422 HD
ATOM     12  C   UNL     1      47.277  13.245  15.884  0.00  0.00    +0.112 A 
ATOM     13  C   UNL     1      47.574  12.371  14.840  0.00  0.00    +0.006 A 
ATOM     14  C   UNL     1      47.168  11.056  14.989  0.00  0.00    +0.051 A 
ATOM     15  C   UNL     1      46.497  10.614  16.117  0.00  0.00    -0.007 A 
ATOM     16  C   UNL     1      46.192  11.450  17.161  0.00  0.00    +0.071 A 
ATOM     17  C   UNL     1      46.590  12.786  17.038  0.00  0.00    -0.101 A 
ATOM     18  C   UNL     1      46.450  13.937  17.902  0.00  0.00    -0.153 A 
ATOM     19  C   UNL     1      45.801  14.040  19.259  0.00  0.00    +0.149 C 
ATOM     20  C   UNL     1      45.569  15.526  19.567  0.00  0.00    +0.273 C 
ATOM     21  C   UNL     1      48.491  18.380  18.281  0.00  0.00    +0.091 C 
ENDROOT
BRANCH   3   2
ATOM      1  C   UNL     1      49.177  17.791  21.980  0.00  0.00    +0.029 C 
ATOM      2  C   UNL     1      49.182  17.440  20.491  0.00  0.00    +0.005 C 
ENDBRANCH   3   2
BRANCH  21  22
ATOM     22  C   UNL     1      49.871  18.969  18.140  0.00  0.00    -0.260 C 
ATOM     27  C   UNL     1      50.796  18.344  17.388  0.00  0.00    +0.301 C 
BRANCH  22  23
ATOM     23  C   UNL     1      50.195  20.180  18.798  0.00  0.00    +0.502 C 
ATOM     26  O   UNL     1      49.713  21.229  18.415  0.00  0.00    -0.488 OA
BRANCH  23  24
ATOM     24  O   UNL     1      51.040  20.169  19.850  0.00  0.00    -0.362 OA
ATOM     25  C   UNL     1      52.043  21.187  19.886  0.00  0.00    +0.260 C 
ENDBRANCH  23  24
ENDBRANCH  22  23
BRANCH  27  28
ATOM     28  O   UNL     1      52.030  18.870  17.261  0.00  0.00    -0.278 OA
ATOM     29  C   UNL     1      52.314  19.600  16.039  0.00  0.00    +0.261 C 
ENDBRANCH  27  28
ENDBRANCH  21  22
TORSDOF 5
ENDMDL
MODEL 5
REMARK VINA RESULT:      -5.1      6.046      9.684
REMARK  Name = ZINC13408812
REMARK  8 active torsions:
REMARK  status: ('A' for Active; 'I' for Inactive)
REMARK    1  A    between atoms: C1_1  and  C2_2
REMARK    2  A    between atoms: C2_2  and  C3_3
REMARK    3  A    between atoms: C17_21  and  C18_23
REMARK    4  A    between atoms: C18_23  and  C21_27
REMARK    5  A    between atoms: C19_24  and  O1_25
REMARK    6  A    between atoms: O1_25  and  C20_26
REMARK    7  A    between atoms: C21_27  and  O3_29
REMARK    8  A    between atoms: O3_29  and  C22_30
REMARK                            x       y       z     vdW  Elec       q    Type
REMARK                         _______ _______ _______ _____ _____    ______ ____
ROOT
ATOM      3  C   UNL     1      46.693  19.086  20.408  0.00  0.00    +0.022 C 
ATOM      4  C   UNL     1      47.918  18.183  20.479  0.00  0.00    +0.279 C 
ATOM      5  N   UNL     1      47.747  17.077  19.513  0.00  0.00    -0.391 N 
ATOM      6  H   UNL     1      47.564  17.475  18.584  0.00  0.00    +0.427 HD
ATOM      7  C   UNL     1      46.595  16.237  19.909  0.00  0.00    +0.275 C 
ATOM      8  C   UNL     1      45.326  17.084  19.798  0.00  0.00    +0.054 C 
ATOM      9  C   UNL     1      46.521  15.067  18.961  0.00  0.00    +0.017 A 
ATOM     10  N   UNL     1      45.450  14.242  18.742  0.00  0.00    -0.564 N 
ATOM     11  H   UNL     1      44.586  14.323  19.174  0.00  0.00    +0.422 HD
ATOM     12  C   UNL     1      45.781  13.291  17.819  0.00  0.00    +0.112 A 
ATOM     13  C   UNL     1      45.057  12.240  17.261  0.00  0.00    +0.006 A 
ATOM     14  C   UNL     1      45.712  11.450  16.332  0.00  0.00    +0.051 A 
ATOM     15  C   UNL     1      47.027  11.680  15.963  0.00  0.00    -0.007 A 
ATOM     16  C   UNL     1      47.765  12.709  16.494  0.00  0.00    +0.071 A 
ATOM     17  C   UNL     1      47.128  13.523  17.436  0.00  0.00    -0.101 A 
ATOM     18  C   UNL     1      47.566  14.672  18.198  0.00  0.00    -0.153 A 
ATOM     19  C   UNL     1      48.906  15.363  18.199  0.00  0.00    +0.149 C 
ATOM     20  C   UNL     1      48.981  16.257  19.445  0.00  0.00    +0.273 C 
ATOM     21  C   UNL     1      45.438  18.278  20.752  0.00  0.00    +0.091 C 
ENDROOT
BRANCH   3   2
ATOM      1  C   UNL     1      47.443  20.896  18.858  0.00  0.00    +0.029 C 
ATOM      2  C   UNL     1      46.563  19.652  18.993  0.00  0.00    +0.005 C 
ENDBRANCH   3   2
BRANCH  21  22
ATOM     22  C   UNL     1      44.221  19.154  20.607  0.00  0.00    -0.260 C 
ATOM     27  C   UNL     1      43.201  18.764  19.819  0.00  0.00    +0.301 C 
BRANCH  22  23
ATOM     23  C   UNL     1      44.148  20.386  21.300  0.00  0.00    +0.502 C 
ATOM     26  O   UNL     1      43.985  20.398  22.505  0.00  0.00    -0.488 OA
BRANCH  23  24
ATOM     24  O   UNL     1      44.258  21.548  20.622  0.00  0.00    -0.362 OA
ATOM     25  C   UNL     1      45.117  22.544  21.180  0.00  0.00    +0.260 C 
ENDBRANCH  23  24
ENDBRANCH  22  23
BRANCH  27  28
ATOM     28  O   UNL     1      42.112  19.547  19.690  0.00  0.00    -0.278 OA
ATOM     29  C   UNL     1      41.911  20.190  18.404  0.00  0.00    +0.261 C 
ENDBRANCH  27  28
ENDBRANCH  21  22
TORSDOF 5
ENDMDL
MODEL 6
REMARK VINA RESULT:      -5.0      3.666      5.252
REMARK  Name = ZINC13408812
REMARK  8 active torsions:
REMARK  status: ('A' for Active; 'I' for Inactive)
REMARK    1  A    between atoms: C1_1  and  C2_2
REMARK    2  A    between atoms: C2_2  and  C3_3
REMARK    3  A    between atoms: C17_21  and  C18_23
REMARK    4  A    between atoms: C18_23  and  C21_27
REMARK    5  A    between atoms: C19_24  and  O1_25
REMARK    6  A    between atoms: O1_25  and  C20_26
REMARK    7  A    between atoms: C21_27  and  O3_29
REMARK    8  A    between atoms: O3_29  and  C22_30
REMARK                            x       y       z     vdW  Elec       q    Type
REMARK                         _______ _______ _______ _____ _____    ______ ____
ROOT
ATOM      3  C   UNL     1      49.358  14.850  17.324  0.00  0.00    +0.022 C 
ATOM      4  C   UNL     1      49.950  16.254  17.290  0.00  0.00    +0.279 C 
ATOM      5  N   UNL     1      49.024  17.176  17.981  0.00  0.00    -0.391 N 
ATOM      6  H   UNL     1      48.840  16.814  18.924  0.00  0.00    +0.427 HD
ATOM      7  C   UNL     1      47.746  17.252  17.240  0.00  0.00    +0.275 C 
ATOM      8  C   UNL     1      47.079  15.877  17.294  0.00  0.00    +0.054 C 
ATOM      9  C   UNL     1      46.873  18.278  17.917  0.00  0.00    +0.017 A 
ATOM     10  N   UNL     1      45.519  18.432  17.787  0.00  0.00    -0.564 N 
ATOM     11  H   UNL     1      44.945  17.877  17.238  0.00  0.00    +0.422 HD
ATOM     12  C   UNL     1      45.098  19.482  18.553  0.00  0.00    +0.112 A 
ATOM     13  C   UNL     1      43.837  20.037  18.765  0.00  0.00    +0.006 A 
ATOM     14  C   UNL     1      43.764  21.121  19.622  0.00  0.00    +0.051 A 
ATOM     15  C   UNL     1      44.884  21.644  20.247  0.00  0.00    -0.007 A 
ATOM     16  C   UNL     1      46.138  21.119  20.059  0.00  0.00    +0.071 A 
ATOM     17  C   UNL     1      46.242  20.022  19.197  0.00  0.00    -0.101 A 
ATOM     18  C   UNL     1      47.362  19.220  18.757  0.00  0.00    -0.153 A 
ATOM     19  C   UNL     1      48.821  19.338  19.117  0.00  0.00    +0.149 C 
ATOM     20  C   UNL     1      49.632  18.524  18.099  0.00  0.00    +0.273 C 
ATOM     21  C   UNL     1      47.997  14.851  16.622  0.00  0.00    +0.091 C 
ENDROOT
BRANCH   3   2
ATOM      1  C   UNL     1      50.487  13.797  19.288  0.00  0.00    +0.029 C 
ATOM      2  C   UNL     1      49.181  14.412  18.778  0.00  0.00    +0.005 C 
ENDBRANCH   3   2
BRANCH  21  22
ATOM     22  C   UNL     1      47.379  13.480  16.723  0.00  0.00    -0.260 C 
ATOM     27  C   UNL     1      46.223  13.311  17.391  0.00  0.00    +0.301 C 
BRANCH  22  23
ATOM     23  C   UNL     1      48.014  12.371  16.115  0.00  0.00    +0.502 C 
ATOM     26  O   UNL     1      48.627  11.571  16.797  0.00  0.00    -0.488 OA
BRANCH  23  24
ATOM     24  O   UNL     1      47.938  12.200  14.778  0.00  0.00    -0.362 OA
ATOM     25  C   UNL     1      49.106  12.518  14.018  0.00  0.00    +0.260 C 
ENDBRANCH  23  24
ENDBRANCH  22  23
BRANCH  27  28
ATOM     28  O   UNL     1      45.670  12.086  17.482  0.00  0.00    -0.278 OA
ATOM     29  C   UNL     1      44.514  11.820  16.644  0.00  0.00    +0.261 C 
ENDBRANCH  27  28
ENDBRANCH  21  22
TORSDOF 5
ENDMDL
MODEL 7
REMARK VINA RESULT:      -4.8      4.055      5.898
REMARK  Name = ZINC13408812
REMARK  8 active torsions:
REMARK  status: ('A' for Active; 'I' for Inactive)
REMARK    1  A    between atoms: C1_1  and  C2_2
REMARK    2  A    between atoms: C2_2  and  C3_3
REMARK    3  A    between atoms: C17_21  and  C18_23
REMARK    4  A    between atoms: C18_23  and  C21_27
REMARK    5  A    between atoms: C19_24  and  O1_25
REMARK    6  A    between atoms: O1_25  and  C20_26
REMARK    7  A    between atoms: C21_27  and  O3_29
REMARK    8  A    between atoms: O3_29  and  C22_30
REMARK                            x       y       z     vdW  Elec       q    Type
REMARK                         _______ _______ _______ _____ _____    ______ ____
ROOT
ATOM      3  C   UNL     1      50.069  15.996  18.112  0.00  0.00    +0.022 C 
ATOM      4  C   UNL     1      50.352  17.489  17.998  0.00  0.00    +0.279 C 
ATOM      5  N   UNL     1      49.191  18.234  18.528  0.00  0.00    -0.391 N 
ATOM      6  H   UNL     1      48.997  17.909  19.483  0.00  0.00    +0.427 HD
ATOM      7  C   UNL     1      48.002  17.977  17.686  0.00  0.00    +0.275 C 
ATOM      8  C   UNL     1      47.638  16.497  17.812  0.00  0.00    +0.054 C 
ATOM      9  C   UNL     1      46.871  18.834  18.198  0.00  0.00    +0.017 A 
ATOM     10  N   UNL     1      45.534  18.679  17.949  0.00  0.00    -0.564 N 
ATOM     11  H   UNL     1      45.145  17.974  17.409  0.00  0.00    +0.422 HD
ATOM     12  C   UNL     1      44.830  19.665  18.581  0.00  0.00    +0.112 A 
ATOM     13  C   UNL     1      43.467  19.945  18.644  0.00  0.00    +0.006 A 
ATOM     14  C   UNL     1      43.086  21.046  19.390  0.00  0.00    +0.051 A 
ATOM     15  C   UNL     1      44.005  21.844  20.051  0.00  0.00    -0.007 A 
ATOM     16  C   UNL     1      45.354  21.593  20.009  0.00  0.00    +0.071 A 
ATOM     17  C   UNL     1      45.768  20.486  19.261  0.00  0.00    -0.101 A 
ATOM     18  C   UNL     1      47.068  19.917  18.984  0.00  0.00    -0.153 A 
ATOM     19  C   UNL     1      48.429  20.375  19.445  0.00  0.00    +0.149 C 
ATOM     20  C   UNL     1      49.487  19.687  18.571  0.00  0.00    +0.273 C 
ATOM     21  C   UNL     1      48.811  15.650  17.309  0.00  0.00    +0.091 C 
ENDROOT
BRANCH   3   2
ATOM      1  C   UNL     1      51.172  15.166  20.194  0.00  0.00    +0.029 C 
ATOM      2  C   UNL     1      49.850  15.635  19.582  0.00  0.00    +0.005 C 
ENDBRANCH   3   2
BRANCH  21  22
ATOM     22  C   UNL     1      48.489  14.188  17.485  0.00  0.00    -0.260 C 
ATOM     27  C   UNL     1      49.421  13.257  17.212  0.00  0.00    +0.301 C 
BRANCH  22  23
ATOM     23  C   UNL     1      47.207  13.794  17.938  0.00  0.00    +0.502 C 
ATOM     26  O   UNL     1      46.995  13.666  19.129  0.00  0.00    -0.488 OA
BRANCH  23  24
ATOM     24  O   UNL     1      46.220  13.561  17.047  0.00  0.00    -0.362 OA
ATOM     25  C   UNL     1      45.506  12.330  17.179  0.00  0.00    +0.260 C 
ENDBRANCH  23  24
ENDBRANCH  22  23
BRANCH  27  28
ATOM     28  O   UNL     1      49.134  11.949  17.369  0.00  0.00    -0.278 OA
ATOM     29  C   UNL     1      49.873  11.230  18.391  0.00  0.00    +0.261 C 
ENDBRANCH  27  28
ENDBRANCH  21  22
TORSDOF 5
ENDMDL
MODEL 8
REMARK VINA RESULT:      -4.8      3.998      5.916
REMARK  Name = ZINC13408812
REMARK  8 active torsions:
REMARK  status: ('A' for Active; 'I' for Inactive)
REMARK    1  A    between atoms: C1_1  and  C2_2
REMARK    2  A    between atoms: C2_2  and  C3_3
REMARK    3  A    between atoms: C17_21  and  C18_23
REMARK    4  A    between atoms: C18_23  and  C21_27
REMARK    5  A    between atoms: C19_24  and  O1_25
REMARK    6  A    between atoms: O1_25  and  C20_26
REMARK    7  A    between atoms: C21_27  and  O3_29
REMARK    8  A    between atoms: O3_29  and  C22_30
REMARK                            x       y       z     vdW  Elec       q    Type
REMARK                         _______ _______ _______ _____ _____    ______ ____
ROOT
ATOM      3  C   UNL     1      49.648  16.139  18.427  0.00  0.00    +0.022 C 
ATOM      4  C   UNL     1      50.351  17.487  18.521  0.00  0.00    +0.279 C 
ATOM      5  N   UNL     1      49.442  18.451  19.176  0.00  0.00    -0.391 N 
ATOM      6  H   UNL     1      49.143  18.063  20.078  0.00  0.00    +0.427 HD
ATOM      7  C   UNL     1      48.248  18.670  18.331  0.00  0.00    +0.275 C 
ATOM      8  C   UNL     1      47.471  17.355  18.252  0.00  0.00    +0.054 C 
ATOM      9  C   UNL     1      47.401  19.734  18.983  0.00  0.00    +0.017 A 
ATOM     10  N   UNL     1      46.082  20.008  18.742  0.00  0.00    -0.564 N 
ATOM     11  H   UNL     1      45.518  19.529  18.115  0.00  0.00    +0.422 HD
ATOM     12  C   UNL     1      45.678  21.054  19.523  0.00  0.00    +0.112 A 
ATOM     13  C   UNL     1      44.452  21.702  19.653  0.00  0.00    +0.006 A 
ATOM     14  C   UNL     1      44.388  22.748  20.557  0.00  0.00    +0.051 A 
ATOM     15  C   UNL     1      45.483  23.145  21.306  0.00  0.00    -0.007 A 
ATOM     16  C   UNL     1      46.703  22.525  21.201  0.00  0.00    +0.071 A 
ATOM     17  C   UNL     1      46.797  21.464  20.293  0.00  0.00    -0.101 A 
ATOM     18  C   UNL     1      47.885  20.591  19.912  0.00  0.00    -0.153 A 
ATOM     19  C   UNL     1      49.309  20.568  20.405  0.00  0.00    +0.149 C 
ATOM     20  C   UNL     1      50.143  19.736  19.420  0.00  0.00    +0.273 C 
ATOM     21  C   UNL     1      48.362  16.287  17.609  0.00  0.00    +0.091 C 
ENDROOT
BRANCH   3   2
ATOM      1  C   UNL     1      50.590  15.292  20.580  0.00  0.00    +0.029 C 
ATOM      2  C   UNL     1      49.303  15.650  19.835  0.00  0.00    +0.005 C 
ENDBRANCH   3   2
BRANCH  21  22
ATOM     22  C   UNL     1      47.629  14.971  17.581  0.00  0.00    -0.260 C 
ATOM     27  C   UNL     1      46.396  14.875  18.112  0.00  0.00    +0.301 C 
BRANCH  22  23
ATOM     23  C   UNL     1      48.237  13.833  16.997  0.00  0.00    +0.502 C 
ATOM     26  O   UNL     1      48.232  13.694  15.789  0.00  0.00    -0.488 OA
BRANCH  23  24
ATOM     24  O   UNL     1      48.822  12.904  17.782  0.00  0.00    -0.362 OA
ATOM     25  C   UNL     1      50.170  12.548  17.471  0.00  0.00    +0.260 C 
ENDBRANCH  23  24
ENDBRANCH  22  23
BRANCH  27  28
ATOM     28  O   UNL     1      45.740  13.699  18.088  0.00  0.00    -0.278 OA
ATOM     29  C   UNL     1      45.062  13.296  19.307  0.00  0.00    +0.261 C 
ENDBRANCH  27  28
ENDBRANCH  21  22
TORSDOF 5
ENDMDL
MODEL 9
REMARK VINA RESULT:      -4.8      5.850      8.883
REMARK  Name = ZINC13408812
REMARK  8 active torsions:
REMARK  status: ('A' for Active; 'I' for Inactive)
REMARK    1  A    between atoms: C1_1  and  C2_2
REMARK    2  A    between atoms: C2_2  and  C3_3
REMARK    3  A    between atoms: C17_21  and  C18_23
REMARK    4  A    between atoms: C18_23  and  C21_27
REMARK    5  A    between atoms: C19_24  and  O1_25
REMARK    6  A    between atoms: O1_25  and  C20_26
REMARK    7  A    between atoms: C21_27  and  O3_29
REMARK    8  A    between atoms: O3_29  and  C22_30
REMARK                            x       y       z     vdW  Elec       q    Type
REMARK                         _______ _______ _______ _____ _____    ______ ____
ROOT
ATOM      3  C   UNL     1      46.735  20.670  22.246  0.00  0.00    +0.022 C 
ATOM      4  C   UNL     1      48.221  20.887  22.505  0.00  0.00    +0.279 C 
ATOM      5  N   UNL     1      48.941  20.823  21.217  0.00  0.00    -0.391 N 
ATOM      6  H   UNL     1      48.519  21.499  20.568  0.00  0.00    +0.427 HD
ATOM      7  C   UNL     1      48.820  19.467  20.639  0.00  0.00    +0.275 C 
ATOM      8  C   UNL     1      47.348  19.220  20.304  0.00  0.00    +0.054 C 
ATOM      9  C   UNL     1      49.653  19.416  19.383  0.00  0.00    +0.017 A 
ATOM     10  N   UNL     1      49.573  18.499  18.370  0.00  0.00    -0.564 N 
ATOM     11  H   UNL     1      48.946  17.761  18.335  0.00  0.00    +0.422 HD
ATOM     12  C   UNL     1      50.505  18.785  17.414  0.00  0.00    +0.112 A 
ATOM     13  C   UNL     1      50.823  18.167  16.206  0.00  0.00    +0.006 A 
ATOM     14  C   UNL     1      51.847  18.730  15.464  0.00  0.00    +0.051 A 
ATOM     15  C   UNL     1      52.535  19.854  15.888  0.00  0.00    -0.007 A 
ATOM     16  C   UNL     1      52.244  20.485  17.072  0.00  0.00    +0.071 A 
ATOM     17  C   UNL     1      51.213  19.938  17.844  0.00  0.00    -0.101 A 
ATOM     18  C   UNL     1      50.635  20.308  19.116  0.00  0.00    -0.153 A 
ATOM     19  C   UNL     1      50.993  21.451  20.031  0.00  0.00    +0.149 C 
ATOM     20  C   UNL     1      50.370  21.176  21.407  0.00  0.00    +0.273 C 
ATOM     21  C   UNL     1      46.523  19.301  21.592  0.00  0.00    +0.091 C 
ENDROOT
BRANCH   3   2
ATOM      1  C   UNL     1      45.217  22.645  22.060  0.00  0.00    +0.029 C 
ATOM      2  C   UNL     1      46.220  21.766  21.311  0.00  0.00    +0.005 C 
ENDBRANCH   3   2
BRANCH  21  22
ATOM     22  C   UNL     1      45.063  19.121  21.266  0.00  0.00    -0.260 C 
ATOM     27  C   UNL     1      44.146  19.144  22.252  0.00  0.00    +0.301 C 
BRANCH  22  23
ATOM     23  C   UNL     1      44.654  18.926  19.925  0.00  0.00    +0.502 C 
ATOM     26  O   UNL     1      44.603  17.802  19.462  0.00  0.00    -0.488 OA
BRANCH  23  24
ATOM     24  O   UNL     1      44.321  19.988  19.161  0.00  0.00    -0.362 OA
ATOM     25  C   UNL     1      42.959  20.081  18.740  0.00  0.00    +0.260 C 
ENDBRANCH  23  24
ENDBRANCH  22  23
BRANCH  27  28
ATOM     28  O   UNL     1      42.840  18.982  21.962  0.00  0.00    -0.278 OA
ATOM     29  C   UNL     1      42.310  17.633  22.036  0.00  0.00    +0.261 C 
ENDBRANCH  27  28
ENDBRANCH  21  22
TORSDOF 5
ENDMDL
