MODEL 1
REMARK VINA RESULT:      -6.3      0.000      0.000
REMARK  Name = ZINC95486092
REMARK  16 active torsions:
REMARK  status: ('A' for Active; 'I' for Inactive)
REMARK    1  A    between atoms: C1_1  and  C2_2
REMARK    2  A    between atoms: C2_2  and  C31_42
REMARK    3  A    between atoms: C3_3  and  C4_4
REMARK    4  A    between atoms: C4_4  and  C5_5
REMARK    5  A    between atoms: C5_5  and  C6_6
REMARK    6  A    between atoms: C6_6  and  C7_8
REMARK    7  A    between atoms: C6_6  and  C29_38
REMARK    8  A    between atoms: C8_10  and  O3_37
REMARK    9  A    between atoms: C10_13  and  C28_36
REMARK   10  A    between atoms: C11_14  and  C27_35
REMARK   11  A    between atoms: C17_21  and  O2_34
REMARK   12  A    between atoms: C19_25  and  C26_33
REMARK   13  A    between atoms: C23_30  and  C24_31
REMARK   14  A    between atoms: C23_30  and  C25_32
REMARK   15  A    between atoms: C29_38  and  O5_40
REMARK   16  A    between atoms: O5_40  and  C30_41
REMARK                            x       y       z     vdW  Elec       q    Type
REMARK                         _______ _______ _______ _____ _____    ______ ____
ROOT
ATOM     12  C   UNL     1      45.698  20.027  20.561  0.00  0.00    +0.029 C 
ATOM     13  C   UNL     1      46.720  20.986  19.895  0.00  0.00    +0.178 C 
ATOM     16  C   UNL     1      47.690  20.088  19.073  0.00  0.00    +0.003 C 
ATOM     17  C   UNL     1      47.470  18.699  19.703  0.00  0.00    -0.015 C 
ATOM     18  C   UNL     1      48.162  18.630  21.073  0.00  0.00    +0.047 C 
ATOM     19  C   UNL     1      47.889  17.532  18.857  0.00  0.00    -0.071 C 
ATOM     20  C   UNL     1      49.054  17.545  18.295  0.00  0.00    -0.086 C 
ATOM     21  C   UNL     1      49.588  16.384  17.489  0.00  0.00    +0.209 C 
ATOM     24  C   UNL     1      49.051  15.079  18.084  0.00  0.00    +0.048 C 
ATOM     25  C   UNL     1      47.526  15.124  18.101  0.00  0.00    -0.041 C 
ATOM     26  C   UNL     1      46.951  13.937  18.880  0.00  0.00    +0.038 C 
ATOM     27  C   UNL     1      46.990  15.053  16.659  0.00  0.00    +0.034 C 
ATOM     28  C   UNL     1      47.375  13.733  16.004  0.00  0.00    +0.025 C 
ATOM     29  C   UNL     1      48.871  13.576  16.076  0.00  0.00    +0.365 C 
ATOM     30  O   UNL     1      49.500  13.229  15.094  0.00  0.00    -0.454 OA
ATOM     31  C   UNL     1      49.599  13.852  17.371  0.00  0.00    -0.096 C 
ATOM     32  C   UNL     1      51.089  14.005  17.006  0.00  0.00    +0.057 C 
ATOM     33  C   UNL     1      49.547  12.602  18.266  0.00  0.00    +0.055 C 
ATOM     34  C   UNL     1      46.934  16.391  18.705  0.00  0.00    +0.035 C 
ATOM     35  C   UNL     1      46.109  16.172  19.957  0.00  0.00    +0.032 C 
ATOM     36  C   UNL     1      45.457  17.448  20.516  0.00  0.00    +0.025 C 
ATOM     37  C   UNL     1      45.925  18.692  19.833  0.00  0.00    -0.043 C 
ATOM     38  C   UNL     1      45.241  18.841  18.472  0.00  0.00    +0.029 C 
ENDROOT
BRANCH  13  14
ATOM     14  O   UNL     1      47.438  21.711  20.893  0.00  0.00    -0.556 OA
ATOM     15  H   UNL     1      47.545  22.652  20.695  0.00  0.00    +0.377 HD
ENDBRANCH  13  14
BRANCH  21  22
ATOM     22  O   UNL     1      51.014  16.504  17.606  0.00  0.00    -0.558 OA
ATOM     23  H   UNL     1      51.309  16.881  18.447  0.00  0.00    +0.376 HD
ENDBRANCH  21  22
BRANCH  12   7
ATOM      7  C   UNL     1      44.270  20.512  20.314  0.00  0.00    +0.037 C 
BRANCH   7   8
ATOM      8  C   UNL     1      44.200  22.002  20.531  0.00  0.00    +0.464 C 
ATOM     11  O   UNL     1      44.544  22.475  21.588  0.00  0.00    -0.500 OA
BRANCH   8   9
ATOM      9  O   UNL     1      43.757  22.802  19.549  0.00  0.00    -0.345 OA
ATOM     10  C   UNL     1      44.550  23.951  19.242  0.00  0.00    +0.250 C 
ENDBRANCH   8   9
ENDBRANCH   7   8
BRANCH   7   6
ATOM      6  C   UNL     1      43.318  19.810  21.285  0.00  0.00    +0.056 C 
BRANCH   6   5
ATOM      5  C   UNL     1      42.247  19.056  20.494  0.00  0.00    +0.047 C 
BRANCH   5   4
ATOM      1  C   UNL     1      41.591  19.954  17.902  0.00  0.00    +0.072 C 
ATOM      2  C   UNL     1      40.785  20.416  19.088  0.00  0.00    -0.128 C 
ATOM      3  C   UNL     1      39.669  21.412  18.898  0.00  0.00    +0.070 C 
ATOM      4  C   UNL     1      41.054  19.953  20.283  0.00  0.00    -0.063 C 
ENDBRANCH   5   4
ENDBRANCH   6   5
ENDBRANCH   7   6
ENDBRANCH  12   7
TORSDOF 8
ENDMDL
MODEL 2
REMARK VINA RESULT:      -6.0      3.104      4.922
REMARK  Name = ZINC95486092
REMARK  16 active torsions:
REMARK  status: ('A' for Active; 'I' for Inactive)
REMARK    1  A    between atoms: C1_1  and  C2_2
REMARK    2  A    between atoms: C2_2  and  C31_42
REMARK    3  A    between atoms: C3_3  and  C4_4
REMARK    4  A    between atoms: C4_4  and  C5_5
REMARK    5  A    between atoms: C5_5  and  C6_6
REMARK    6  A    between atoms: C6_6  and  C7_8
REMARK    7  A    between atoms: C6_6  and  C29_38
REMARK    8  A    between atoms: C8_10  and  O3_37
REMARK    9  A    between atoms: C10_13  and  C28_36
REMARK   10  A    between atoms: C11_14  and  C27_35
REMARK   11  A    between atoms: C17_21  and  O2_34
REMARK   12  A    between atoms: C19_25  and  C26_33
REMARK   13  A    between atoms: C23_30  and  C24_31
REMARK   14  A    between atoms: C23_30  and  C25_32
REMARK   15  A    between atoms: C29_38  and  O5_40
REMARK   16  A    between atoms: O5_40  and  C30_41
REMARK                            x       y       z     vdW  Elec       q    Type
REMARK                         _______ _______ _______ _____ _____    ______ ____
ROOT
ATOM     12  C   UNL     1      50.773  18.516  18.838  0.00  0.00    +0.029 C 
ATOM     13  C   UNL     1      51.733  18.490  17.620  0.00  0.00    +0.178 C 
ATOM     16  C   UNL     1      51.484  17.134  16.896  0.00  0.00    +0.003 C 
ATOM     17  C   UNL     1      50.789  16.299  17.988  0.00  0.00    -0.015 C 
ATOM     18  C   UNL     1      51.818  15.841  19.033  0.00  0.00    +0.047 C 
ATOM     19  C   UNL     1      49.999  15.120  17.496  0.00  0.00    -0.071 C 
ATOM     20  C   UNL     1      50.539  14.311  16.644  0.00  0.00    -0.086 C 
ATOM     21  C   UNL     1      49.849  13.060  16.151  0.00  0.00    +0.209 C 
ATOM     24  C   UNL     1      48.974  12.500  17.277  0.00  0.00    +0.048 C 
ATOM     25  C   UNL     1      47.988  13.572  17.728  0.00  0.00    -0.041 C 
ATOM     26  C   UNL     1      47.240  13.133  18.991  0.00  0.00    +0.038 C 
ATOM     27  C   UNL     1      46.947  13.817  16.620  0.00  0.00    +0.034 C 
ATOM     28  C   UNL     1      46.129  12.559  16.359  0.00  0.00    +0.025 C 
ATOM     29  C   UNL     1      47.070  11.429  16.033  0.00  0.00    +0.365 C 
ATOM     30  O   UNL     1      46.850  10.701  15.084  0.00  0.00    -0.454 OA
ATOM     31  C   UNL     1      48.295  11.197  16.885  0.00  0.00    -0.096 C 
ATOM     32  C   UNL     1      49.224  10.277  16.068  0.00  0.00    +0.057 C 
ATOM     33  C   UNL     1      47.912  10.360  18.119  0.00  0.00    +0.055 C 
ATOM     34  C   UNL     1      48.613  14.930  18.022  0.00  0.00    +0.035 C 
ATOM     35  C   UNL     1      48.484  15.390  19.460  0.00  0.00    +0.032 C 
ATOM     36  C   UNL     1      49.055  16.793  19.728  0.00  0.00    +0.025 C 
ATOM     37  C   UNL     1      49.807  17.351  18.564  0.00  0.00    -0.043 C 
ATOM     38  C   UNL     1      48.835  17.863  17.498  0.00  0.00    +0.029 C 
ENDROOT
BRANCH  13  14
ATOM     14  O   UNL     1      53.089  18.578  18.059  0.00  0.00    -0.556 OA
ATOM     15  H   UNL     1      53.699  18.911  17.387  0.00  0.00    +0.377 HD
ENDBRANCH  13  14
BRANCH  21  22
ATOM     22  O   UNL     1      50.928  12.182  15.795  0.00  0.00    -0.558 OA
ATOM     23  H   UNL     1      51.712  12.276  16.353  0.00  0.00    +0.376 HD
ENDBRANCH  21  22
BRANCH  12   7
ATOM      7  C   UNL     1      49.995  19.831  18.878  0.00  0.00    +0.037 C 
BRANCH   7   8
ATOM      8  C   UNL     1      50.871  20.949  18.372  0.00  0.00    +0.464 C 
ATOM     11  O   UNL     1      51.825  21.308  19.019  0.00  0.00    -0.500 OA
BRANCH   8   9
ATOM      9  O   UNL     1      50.591  21.543  17.201  0.00  0.00    -0.345 OA
ATOM     10  C   UNL     1      51.583  21.456  16.176  0.00  0.00    +0.250 C 
ENDBRANCH   8   9
ENDBRANCH   7   8
BRANCH   7   6
ATOM      6  C   UNL     1      49.569  20.129  20.317  0.00  0.00    +0.056 C 
BRANCH   6   5
ATOM      5  C   UNL     1      48.341  21.042  20.307  0.00  0.00    +0.047 C 
BRANCH   5   4
ATOM      1  C   UNL     1      46.061  19.478  20.857  0.00  0.00    +0.072 C 
ATOM      2  C   UNL     1      46.393  19.856  19.437  0.00  0.00    -0.128 C 
ATOM      3  C   UNL     1      45.543  19.343  18.302  0.00  0.00    +0.070 C 
ATOM      4  C   UNL     1      47.419  20.631  19.189  0.00  0.00    -0.063 C 
ENDBRANCH   5   4
ENDBRANCH   6   5
ENDBRANCH   7   6
ENDBRANCH  12   7
TORSDOF 8
ENDMDL
MODEL 3
REMARK VINA RESULT:      -5.9      2.310      8.444
REMARK  Name = ZINC95486092
REMARK  16 active torsions:
REMARK  status: ('A' for Active; 'I' for Inactive)
REMARK    1  A    between atoms: C1_1  and  C2_2
REMARK    2  A    between atoms: C2_2  and  C31_42
REMARK    3  A    between atoms: C3_3  and  C4_4
REMARK    4  A    between atoms: C4_4  and  C5_5
REMARK    5  A    between atoms: C5_5  and  C6_6
REMARK    6  A    between atoms: C6_6  and  C7_8
REMARK    7  A    between atoms: C6_6  and  C29_38
REMARK    8  A    between atoms: C8_10  and  O3_37
REMARK    9  A    between atoms: C10_13  and  C28_36
REMARK   10  A    between atoms: C11_14  and  C27_35
REMARK   11  A    between atoms: C17_21  and  O2_34
REMARK   12  A    between atoms: C19_25  and  C26_33
REMARK   13  A    between atoms: C23_30  and  C24_31
REMARK   14  A    between atoms: C23_30  and  C25_32
REMARK   15  A    between atoms: C29_38  and  O5_40
REMARK   16  A    between atoms: O5_40  and  C30_41
REMARK                            x       y       z     vdW  Elec       q    Type
REMARK                         _______ _______ _______ _____ _____    ______ ____
ROOT
ATOM     12  C   UNL     1      49.780  15.296  18.422  0.00  0.00    +0.029 C 
ATOM     13  C   UNL     1      48.934  14.001  18.548  0.00  0.00    +0.178 C 
ATOM     16  C   UNL     1      47.531  14.444  19.058  0.00  0.00    +0.003 C 
ATOM     17  C   UNL     1      47.817  15.841  19.641  0.00  0.00    -0.015 C 
ATOM     18  C   UNL     1      48.544  15.708  20.988  0.00  0.00    +0.047 C 
ATOM     19  C   UNL     1      46.620  16.736  19.790  0.00  0.00    -0.071 C 
ATOM     20  C   UNL     1      45.550  16.270  20.349  0.00  0.00    -0.086 C 
ATOM     21  C   UNL     1      44.327  17.118  20.608  0.00  0.00    +0.209 C 
ATOM     24  C   UNL     1      44.771  18.554  20.905  0.00  0.00    +0.048 C 
ATOM     25  C   UNL     1      45.606  19.073  19.738  0.00  0.00    -0.041 C 
ATOM     26  C   UNL     1      46.249  20.420  20.081  0.00  0.00    +0.038 C 
ATOM     27  C   UNL     1      44.702  19.276  18.507  0.00  0.00    +0.034 C 
ATOM     28  C   UNL     1      43.641  20.334  18.784  0.00  0.00    +0.025 C 
ATOM     29  C   UNL     1      42.868  19.931  20.012  0.00  0.00    +0.365 C 
ATOM     30  O   UNL     1      41.652  19.982  20.016  0.00  0.00    -0.454 OA
ATOM     31  C   UNL     1      43.600  19.461  21.247  0.00  0.00    -0.096 C 
ATOM     32  C   UNL     1      42.552  18.755  22.130  0.00  0.00    +0.057 C 
ATOM     33  C   UNL     1      44.045  20.679  22.075  0.00  0.00    +0.055 C 
ATOM     34  C   UNL     1      46.722  18.140  19.288  0.00  0.00    +0.035 C 
ATOM     35  C   UNL     1      48.121  18.699  19.448  0.00  0.00    +0.032 C 
ATOM     36  C   UNL     1      49.235  17.778  18.924  0.00  0.00    +0.025 C 
ATOM     37  C   UNL     1      48.739  16.422  18.539  0.00  0.00    -0.043 C 
ATOM     38  C   UNL     1      48.035  16.478  17.182  0.00  0.00    +0.029 C 
ENDROOT
BRANCH  13  14
ATOM     14  O   UNL     1      49.542  13.104  19.478  0.00  0.00    -0.556 OA
ATOM     15  H   UNL     1      50.445  13.347  19.726  0.00  0.00    +0.377 HD
ENDBRANCH  13  14
BRANCH  21  22
ATOM     22  O   UNL     1      43.695  16.487  21.732  0.00  0.00    -0.558 OA
ATOM     23  H   UNL     1      42.999  17.019  22.142  0.00  0.00    +0.376 HD
ENDBRANCH  21  22
BRANCH  12   7
ATOM      7  C   UNL     1      50.456  15.361  17.052  0.00  0.00    +0.037 C 
BRANCH   7   8
ATOM      8  C   UNL     1      50.604  13.967  16.498  0.00  0.00    +0.464 C 
ATOM     11  O   UNL     1      51.441  13.223  16.950  0.00  0.00    -0.500 OA
BRANCH   8   9
ATOM      9  O   UNL     1      49.805  13.553  15.503  0.00  0.00    -0.345 OA
ATOM     10  C   UNL     1      50.431  12.900  14.397  0.00  0.00    +0.250 C 
ENDBRANCH   8   9
ENDBRANCH   7   8
BRANCH   7   6
ATOM      6  C   UNL     1      51.839  16.001  17.196  0.00  0.00    +0.056 C 
BRANCH   6   5
ATOM      5  C   UNL     1      51.839  17.372  16.517  0.00  0.00    +0.047 C 
BRANCH   5   4
ATOM      1  C   UNL     1      51.838  20.088  15.755  0.00  0.00    +0.072 C 
ATOM      2  C   UNL     1      52.031  19.708  17.201  0.00  0.00    -0.128 C 
ATOM      3  C   UNL     1      52.291  20.777  18.232  0.00  0.00    +0.070 C 
ATOM      4  C   UNL     1      51.972  18.450  17.561  0.00  0.00    -0.063 C 
ENDBRANCH   5   4
ENDBRANCH   6   5
ENDBRANCH   7   6
ENDBRANCH  12   7
TORSDOF 8
ENDMDL
MODEL 4
REMARK VINA RESULT:      -5.8      0.895      1.162
REMARK  Name = ZINC95486092
REMARK  16 active torsions:
REMARK  status: ('A' for Active; 'I' for Inactive)
REMARK    1  A    between atoms: C1_1  and  C2_2
REMARK    2  A    between atoms: C2_2  and  C31_42
REMARK    3  A    between atoms: C3_3  and  C4_4
REMARK    4  A    between atoms: C4_4  and  C5_5
REMARK    5  A    between atoms: C5_5  and  C6_6
REMARK    6  A    between atoms: C6_6  and  C7_8
REMARK    7  A    between atoms: C6_6  and  C29_38
REMARK    8  A    between atoms: C8_10  and  O3_37
REMARK    9  A    between atoms: C10_13  and  C28_36
REMARK   10  A    between atoms: C11_14  and  C27_35
REMARK   11  A    between atoms: C17_21  and  O2_34
REMARK   12  A    between atoms: C19_25  and  C26_33
REMARK   13  A    between atoms: C23_30  and  C24_31
REMARK   14  A    between atoms: C23_30  and  C25_32
REMARK   15  A    between atoms: C29_38  and  O5_40
REMARK   16  A    between atoms: O5_40  and  C30_41
REMARK                            x       y       z     vdW  Elec       q    Type
REMARK                         _______ _______ _______ _____ _____    ______ ____
ROOT
ATOM     12  C   UNL     1      46.759  19.820  20.723  0.00  0.00    +0.029 C 
ATOM     13  C   UNL     1      47.761  20.725  19.958  0.00  0.00    +0.178 C 
ATOM     16  C   UNL     1      48.568  19.785  19.016  0.00  0.00    +0.003 C 
ATOM     17  C   UNL     1      48.328  18.400  19.646  0.00  0.00    -0.015 C 
ATOM     18  C   UNL     1      49.165  18.254  20.927  0.00  0.00    +0.047 C 
ATOM     19  C   UNL     1      48.568  17.227  18.740  0.00  0.00    -0.071 C 
ATOM     20  C   UNL     1      49.660  17.178  18.048  0.00  0.00    -0.086 C 
ATOM     21  C   UNL     1      50.020  16.003  17.169  0.00  0.00    +0.209 C 
ATOM     24  C   UNL     1      49.467  14.722  17.801  0.00  0.00    +0.048 C 
ATOM     25  C   UNL     1      47.960  14.867  17.995  0.00  0.00    -0.041 C 
ATOM     26  C   UNL     1      47.399  13.702  18.816  0.00  0.00    +0.038 C 
ATOM     27  C   UNL     1      47.260  14.863  16.623  0.00  0.00    +0.034 C 
ATOM     28  C   UNL     1      47.478  13.536  15.908  0.00  0.00    +0.025 C 
ATOM     29  C   UNL     1      48.959  13.281  15.805  0.00  0.00    +0.365 C 
ATOM     30  O   UNL     1      49.448  12.915  14.752  0.00  0.00    -0.454 OA
ATOM     31  C   UNL     1      49.846  13.479  17.011  0.00  0.00    -0.096 C 
ATOM     32  C   UNL     1      51.293  13.543  16.481  0.00  0.00    +0.057 C 
ATOM     33  C   UNL     1      49.813  12.214  17.887  0.00  0.00    +0.055 C 
ATOM     34  C   UNL     1      47.528  16.155  18.682  0.00  0.00    +0.035 C 
ATOM     35  C   UNL     1      46.838  15.962  20.017  0.00  0.00    +0.032 C 
ATOM     36  C   UNL     1      46.341  17.265  20.667  0.00  0.00    +0.025 C 
ATOM     37  C   UNL     1      46.811  18.490  19.953  0.00  0.00    -0.043 C 
ATOM     38  C   UNL     1      45.988  18.715  18.683  0.00  0.00    +0.029 C 
ENDROOT
BRANCH  13  14
ATOM     14  O   UNL     1      48.635  21.380  20.878  0.00  0.00    -0.556 OA
ATOM     15  H   UNL     1      49.575  21.237  20.697  0.00  0.00    +0.377 HD
ENDBRANCH  13  14
BRANCH  21  22
ATOM     22  O   UNL     1      51.455  16.026  17.123  0.00  0.00    -0.558 OA
ATOM     23  H   UNL     1      51.829  15.632  16.324  0.00  0.00    +0.376 HD
ENDBRANCH  21  22
BRANCH  12   7
ATOM      7  C   UNL     1      45.348  20.403  20.649  0.00  0.00    +0.037 C 
BRANCH   7   8
ATOM      8  C   UNL     1      45.427  21.907  20.597  0.00  0.00    +0.464 C 
ATOM     11  O   UNL     1      45.914  22.519  21.518  0.00  0.00    -0.500 OA
BRANCH   8   9
ATOM      9  O   UNL     1      44.958  22.567  19.527  0.00  0.00    -0.345 OA
ATOM     10  C   UNL     1      43.626  23.080  19.613  0.00  0.00    +0.250 C 
ENDBRANCH   8   9
ENDBRANCH   7   8
BRANCH   7   6
ATOM      6  C   UNL     1      44.554  19.977  21.886  0.00  0.00    +0.056 C 
BRANCH   6   5
ATOM      5  C   UNL     1      43.414  19.048  21.466  0.00  0.00    +0.047 C 
BRANCH   5   4
ATOM      1  C   UNL     1      40.614  19.132  21.141  0.00  0.00    +0.072 C 
ATOM      2  C   UNL     1      41.519  19.522  20.001  0.00  0.00    -0.128 C 
ATOM      3  C   UNL     1      40.930  19.894  18.664  0.00  0.00    +0.070 C 
ATOM      4  C   UNL     1      42.817  19.538  20.172  0.00  0.00    -0.063 C 
ENDBRANCH   5   4
ENDBRANCH   6   5
ENDBRANCH   7   6
ENDBRANCH  12   7
TORSDOF 8
ENDMDL
MODEL 5
REMARK VINA RESULT:      -5.6      1.883      2.990
REMARK  Name = ZINC95486092
REMARK  16 active torsions:
REMARK  status: ('A' for Active; 'I' for Inactive)
REMARK    1  A    between atoms: C1_1  and  C2_2
REMARK    2  A    between atoms: C2_2  and  C31_42
REMARK    3  A    between atoms: C3_3  and  C4_4
REMARK    4  A    between atoms: C4_4  and  C5_5
REMARK    5  A    between atoms: C5_5  and  C6_6
REMARK    6  A    between atoms: C6_6  and  C7_8
REMARK    7  A    between atoms: C6_6  and  C29_38
REMARK    8  A    between atoms: C8_10  and  O3_37
REMARK    9  A    between atoms: C10_13  and  C28_36
REMARK   10  A    between atoms: C11_14  and  C27_35
REMARK   11  A    between atoms: C17_21  and  O2_34
REMARK   12  A    between atoms: C19_25  and  C26_33
REMARK   13  A    between atoms: C23_30  and  C24_31
REMARK   14  A    between atoms: C23_30  and  C25_32
REMARK   15  A    between atoms: C29_38  and  O5_40
REMARK   16  A    between atoms: O5_40  and  C30_41
REMARK                            x       y       z     vdW  Elec       q    Type
REMARK                         _______ _______ _______ _____ _____    ______ ____
ROOT
ATOM     12  C   UNL     1      45.704  18.681  20.131  0.00  0.00    +0.029 C 
ATOM     13  C   UNL     1      46.166  18.428  21.590  0.00  0.00    +0.178 C 
ATOM     16  C   UNL     1      46.941  17.078  21.575  0.00  0.00    +0.003 C 
ATOM     17  C   UNL     1      46.458  16.433  20.262  0.00  0.00    -0.015 C 
ATOM     18  C   UNL     1      45.027  15.900  20.435  0.00  0.00    +0.047 C 
ATOM     19  C   UNL     1      47.344  15.356  19.706  0.00  0.00    -0.071 C 
ATOM     20  C   UNL     1      47.764  14.417  20.492  0.00  0.00    -0.086 C 
ATOM     21  C   UNL     1      48.595  13.253  20.006  0.00  0.00    +0.209 C 
ATOM     24  C   UNL     1      48.178  12.909  18.573  0.00  0.00    +0.048 C 
ATOM     25  C   UNL     1      48.333  14.146  17.693  0.00  0.00    -0.041 C 
ATOM     26  C   UNL     1      47.728  13.912  16.306  0.00  0.00    +0.038 C 
ATOM     27  C   UNL     1      49.829  14.467  17.512  0.00  0.00    +0.034 C 
ATOM     28  C   UNL     1      50.542  13.331  16.790  0.00  0.00    +0.025 C 
ATOM     29  C   UNL     1      50.310  12.053  17.554  0.00  0.00    +0.365 C 
ATOM     30  O   UNL     1      51.238  11.302  17.790  0.00  0.00    -0.454 OA
ATOM     31  C   UNL     1      48.922  11.699  18.030  0.00  0.00    -0.096 C 
ATOM     32  C   UNL     1      49.096  10.596  19.094  0.00  0.00    +0.057 C 
ATOM     33  C   UNL     1      48.145  11.016  16.891  0.00  0.00    +0.055 C 
ATOM     34  C   UNL     1      47.699  15.411  18.255  0.00  0.00    +0.035 C 
ATOM     35  C   UNL     1      46.574  15.984  17.418  0.00  0.00    +0.032 C 
ATOM     36  C   UNL     1      45.990  17.301  17.958  0.00  0.00    +0.025 C 
ATOM     37  C   UNL     1      46.509  17.658  19.313  0.00  0.00    -0.043 C 
ATOM     38  C   UNL     1      47.923  18.235  19.206  0.00  0.00    +0.029 C 
ENDROOT
BRANCH  13  14
ATOM     14  O   UNL     1      45.034  18.342  22.457  0.00  0.00    -0.556 OA
ATOM     15  H   UNL     1      45.160  18.777  23.312  0.00  0.00    +0.377 HD
ENDBRANCH  13  14
BRANCH  21  22
ATOM     22  O   UNL     1      48.304  12.201  20.938  0.00  0.00    -0.558 OA
ATOM     23  H   UNL     1      47.655  12.443  21.613  0.00  0.00    +0.376 HD
ENDBRANCH  21  22
BRANCH  12   7
ATOM      7  C   UNL     1      46.074  20.098  19.691  0.00  0.00    +0.037 C 
BRANCH   7   8
ATOM      8  C   UNL     1      46.240  20.974  20.907  0.00  0.00    +0.464 C 
ATOM     11  O   UNL     1      47.331  21.402  21.198  0.00  0.00    -0.500 OA
BRANCH   8   9
ATOM      9  O   UNL     1      45.175  21.278  21.665  0.00  0.00    -0.345 OA
ATOM     10  C   UNL     1      44.874  22.665  21.833  0.00  0.00    +0.250 C 
ENDBRANCH   8   9
ENDBRANCH   7   8
BRANCH   7   6
ATOM      6  C   UNL     1      44.963  20.663  18.804  0.00  0.00    +0.056 C 
BRANCH   6   5
ATOM      5  C   UNL     1      43.700  19.816  18.966  0.00  0.00    +0.047 C 
BRANCH   5   4
ATOM      1  C   UNL     1      41.299  19.242  20.330  0.00  0.00    +0.072 C 
ATOM      2  C   UNL     1      41.354  20.378  19.342  0.00  0.00    -0.128 C 
ATOM      3  C   UNL     1      40.107  21.167  19.031  0.00  0.00    +0.070 C 
ATOM      4  C   UNL     1      42.484  20.680  18.753  0.00  0.00    -0.063 C 
ENDBRANCH   5   4
ENDBRANCH   6   5
ENDBRANCH   7   6
ENDBRANCH  12   7
TORSDOF 8
ENDMDL
MODEL 6
REMARK VINA RESULT:      -5.4      2.185      8.892
REMARK  Name = ZINC95486092
REMARK  16 active torsions:
REMARK  status: ('A' for Active; 'I' for Inactive)
REMARK    1  A    between atoms: C1_1  and  C2_2
REMARK    2  A    between atoms: C2_2  and  C31_42
REMARK    3  A    between atoms: C3_3  and  C4_4
REMARK    4  A    between atoms: C4_4  and  C5_5
REMARK    5  A    between atoms: C5_5  and  C6_6
REMARK    6  A    between atoms: C6_6  and  C7_8
REMARK    7  A    between atoms: C6_6  and  C29_38
REMARK    8  A    between atoms: C8_10  and  O3_37
REMARK    9  A    between atoms: C10_13  and  C28_36
REMARK   10  A    between atoms: C11_14  and  C27_35
REMARK   11  A    between atoms: C17_21  and  O2_34
REMARK   12  A    between atoms: C19_25  and  C26_33
REMARK   13  A    between atoms: C23_30  and  C24_31
REMARK   14  A    between atoms: C23_30  and  C25_32
REMARK   15  A    between atoms: C29_38  and  O5_40
REMARK   16  A    between atoms: O5_40  and  C30_41
REMARK                            x       y       z     vdW  Elec       q    Type
REMARK                         _______ _______ _______ _____ _____    ______ ____
ROOT
ATOM     12  C   UNL     1      48.206  13.875  17.517  0.00  0.00    +0.029 C 
ATOM     13  C   UNL     1      46.825  13.170  17.591  0.00  0.00    +0.178 C 
ATOM     16  C   UNL     1      45.849  14.188  18.250  0.00  0.00    +0.003 C 
ATOM     17  C   UNL     1      46.814  15.175  18.936  0.00  0.00    -0.015 C 
ATOM     18  C   UNL     1      47.405  14.535  20.202  0.00  0.00    +0.047 C 
ATOM     19  C   UNL     1      46.236  16.521  19.264  0.00  0.00    -0.071 C 
ATOM     20  C   UNL     1      45.090  16.588  19.861  0.00  0.00    -0.086 C 
ATOM     21  C   UNL     1      44.468  17.894  20.295  0.00  0.00    +0.209 C 
ATOM     24  C   UNL     1      45.583  18.869  20.688  0.00  0.00    +0.048 C 
ATOM     25  C   UNL     1      46.538  19.040  19.510  0.00  0.00    -0.041 C 
ATOM     26  C   UNL     1      47.781  19.834  19.924  0.00  0.00    +0.038 C 
ATOM     27  C   UNL     1      45.833  19.813  18.381  0.00  0.00    +0.034 C 
ATOM     28  C   UNL     1      45.457  21.216  18.839  0.00  0.00    +0.025 C 
ATOM     29  C   UNL     1      44.614  21.108  20.083  0.00  0.00    +0.365 C 
ATOM     30  O   UNL     1      43.590  21.757  20.189  0.00  0.00    -0.454 OA
ATOM     31  C   UNL     1      45.037  20.191  21.205  0.00  0.00    -0.096 C 
ATOM     32  C   UNL     1      43.797  20.000  22.101  0.00  0.00    +0.057 C 
ATOM     33  C   UNL     1      46.055  20.914  22.105  0.00  0.00    +0.055 C 
ATOM     34  C   UNL     1      47.021  17.737  18.887  0.00  0.00    +0.035 C 
ATOM     35  C   UNL     1      48.514  17.500  18.986  0.00  0.00    +0.032 C 
ATOM     36  C   UNL     1      48.998  16.217  18.290  0.00  0.00    +0.025 C 
ATOM     37  C   UNL     1      47.878  15.347  17.822  0.00  0.00    -0.043 C 
ATOM     38  C   UNL     1      47.268  15.909  16.537  0.00  0.00    +0.029 C 
ENDROOT
BRANCH  13  14
ATOM     14  O   UNL     1      46.919  11.985  18.381  0.00  0.00    -0.556 OA
ATOM     15  H   UNL     1      46.271  11.939  19.099  0.00  0.00    +0.377 HD
ENDBRANCH  13  14
BRANCH  21  22
ATOM     22  O   UNL     1      43.630  17.531  21.403  0.00  0.00    -0.558 OA
ATOM     23  H   UNL     1      42.921  18.163  21.583  0.00  0.00    +0.376 HD
ENDBRANCH  21  22
BRANCH  12   7
ATOM      7  C   UNL     1      48.791  13.759  16.110  0.00  0.00    +0.037 C 
BRANCH   7   8
ATOM      8  C   UNL     1      48.240  12.529  15.436  0.00  0.00    +0.464 C 
ATOM     11  O   UNL     1      47.591  12.634  14.423  0.00  0.00    -0.500 OA
BRANCH   8   9
ATOM      9  O   UNL     1      48.473  11.316  15.961  0.00  0.00    -0.345 OA
ATOM     10  C   UNL     1      48.958  10.307  15.073  0.00  0.00    +0.250 C 
ENDBRANCH   8   9
ENDBRANCH   7   8
BRANCH   7   6
ATOM      6  C   UNL     1      50.315  13.653  16.199  0.00  0.00    +0.056 C 
BRANCH   6   5
ATOM      5  C   UNL     1      50.708  13.088  17.566  0.00  0.00    +0.047 C 
BRANCH   5   4
ATOM      1  C   UNL     1      50.891  13.599  20.333  0.00  0.00    +0.072 C 
ATOM      2  C   UNL     1      51.928  14.155  19.391  0.00  0.00    -0.128 C 
ATOM      3  C   UNL     1      53.027  15.042  19.920  0.00  0.00    +0.070 C 
ATOM      4  C   UNL     1      51.874  13.869  18.115  0.00  0.00    -0.063 C 
ENDBRANCH   5   4
ENDBRANCH   6   5
ENDBRANCH   7   6
ENDBRANCH  12   7
TORSDOF 8
ENDMDL
MODEL 7
REMARK VINA RESULT:      -5.3      3.335      6.193
REMARK  Name = ZINC95486092
REMARK  16 active torsions:
REMARK  status: ('A' for Active; 'I' for Inactive)
REMARK    1  A    between atoms: C1_1  and  C2_2
REMARK    2  A    between atoms: C2_2  and  C31_42
REMARK    3  A    between atoms: C3_3  and  C4_4
REMARK    4  A    between atoms: C4_4  and  C5_5
REMARK    5  A    between atoms: C5_5  and  C6_6
REMARK    6  A    between atoms: C6_6  and  C7_8
REMARK    7  A    between atoms: C6_6  and  C29_38
REMARK    8  A    between atoms: C8_10  and  O3_37
REMARK    9  A    between atoms: C10_13  and  C28_36
REMARK   10  A    between atoms: C11_14  and  C27_35
REMARK   11  A    between atoms: C17_21  and  O2_34
REMARK   12  A    between atoms: C19_25  and  C26_33
REMARK   13  A    between atoms: C23_30  and  C24_31
REMARK   14  A    between atoms: C23_30  and  C25_32
REMARK   15  A    between atoms: C29_38  and  O5_40
REMARK   16  A    between atoms: O5_40  and  C30_41
REMARK                            x       y       z     vdW  Elec       q    Type
REMARK                         _______ _______ _______ _____ _____    ______ ____
ROOT
ATOM     12  C   UNL     1      48.356  17.800  18.421  0.00  0.00    +0.029 C 
ATOM     13  C   UNL     1      47.634  16.845  17.433  0.00  0.00    +0.178 C 
ATOM     16  C   UNL     1      48.462  15.527  17.417  0.00  0.00    +0.003 C 
ATOM     17  C   UNL     1      49.820  15.981  17.987  0.00  0.00    -0.015 C 
ATOM     18  C   UNL     1      50.594  16.779  16.926  0.00  0.00    +0.047 C 
ATOM     19  C   UNL     1      50.687  14.888  18.541  0.00  0.00    -0.071 C 
ATOM     20  C   UNL     1      50.876  13.817  17.840  0.00  0.00    -0.086 C 
ATOM     21  C   UNL     1      51.791  12.700  18.284  0.00  0.00    +0.209 C 
ATOM     24  C   UNL     1      52.955  13.297  19.080  0.00  0.00    +0.048 C 
ATOM     25  C   UNL     1      52.402  14.099  20.254  0.00  0.00    -0.041 C 
ATOM     26  C   UNL     1      53.513  14.889  20.951  0.00  0.00    +0.038 C 
ATOM     27  C   UNL     1      51.779  13.141  21.286  0.00  0.00    +0.034 C 
ATOM     28  C   UNL     1      52.834  12.206  21.862  0.00  0.00    +0.025 C 
ATOM     29  C   UNL     1      53.506  11.479  20.726  0.00  0.00    +0.365 C 
ATOM     30  O   UNL     1      53.682  10.277  20.785  0.00  0.00    -0.454 OA
ATOM     31  C   UNL     1      53.964  12.242  19.506  0.00  0.00    -0.096 C 
ATOM     32  C   UNL     1      54.211  11.192  18.405  0.00  0.00    +0.057 C 
ATOM     33  C   UNL     1      55.350  12.854  19.774  0.00  0.00    +0.055 C 
ATOM     34  C   UNL     1      51.305  15.090  19.888  0.00  0.00    +0.035 C 
ATOM     35  C   UNL     1      51.651  16.543  20.140  0.00  0.00    +0.032 C 
ATOM     36  C   UNL     1      50.509  17.528  19.834  0.00  0.00    +0.025 C 
ATOM     37  C   UNL     1      49.345  16.881  19.157  0.00  0.00    -0.043 C 
ATOM     38  C   UNL     1      48.507  16.099  20.170  0.00  0.00    +0.029 C 
ENDROOT
BRANCH  13  14
ATOM     14  O   UNL     1      47.593  17.424  16.129  0.00  0.00    -0.556 OA
ATOM     15  H   UNL     1      47.768  16.796  15.414  0.00  0.00    +0.377 HD
ENDBRANCH  13  14
BRANCH  21  22
ATOM     22  O   UNL     1      52.214  12.086  17.057  0.00  0.00    -0.558 OA
ATOM     23  H   UNL     1      53.156  11.872  17.028  0.00  0.00    +0.376 HD
ENDBRANCH  21  22
BRANCH  12   7
ATOM      7  C   UNL     1      47.359  18.389  19.419  0.00  0.00    +0.037 C 
BRANCH   7   8
ATOM      8  C   UNL     1      45.970  18.328  18.838  0.00  0.00    +0.464 C 
ATOM     11  O   UNL     1      45.617  19.152  18.029  0.00  0.00    -0.500 OA
BRANCH   8   9
ATOM      9  O   UNL     1      45.126  17.357  19.220  0.00  0.00    -0.345 OA
ATOM     10  C   UNL     1      44.650  17.403  20.567  0.00  0.00    +0.250 C 
ENDBRANCH   8   9
ENDBRANCH   7   8
BRANCH   7   6
ATOM      6  C   UNL     1      47.727  19.846  19.708  0.00  0.00    +0.056 C 
BRANCH   6   5
ATOM      5  C   UNL     1      48.753  20.327  18.679  0.00  0.00    +0.047 C 
BRANCH   5   4
ATOM      1  C   UNL     1      51.198  20.680  17.320  0.00  0.00    +0.072 C 
ATOM      2  C   UNL     1      51.086  21.040  18.778  0.00  0.00    -0.128 C 
ATOM      3  C   UNL     1      52.299  21.528  19.529  0.00  0.00    +0.070 C 
ATOM      4  C   UNL     1      49.935  20.931  19.393  0.00  0.00    -0.063 C 
ENDBRANCH   5   4
ENDBRANCH   6   5
ENDBRANCH   7   6
ENDBRANCH  12   7
TORSDOF 8
ENDMDL
MODEL 8
REMARK VINA RESULT:      -5.2      2.177      8.724
REMARK  Name = ZINC95486092
REMARK  16 active torsions:
REMARK  status: ('A' for Active; 'I' for Inactive)
REMARK    1  A    between atoms: C1_1  and  C2_2
REMARK    2  A    between atoms: C2_2  and  C31_42
REMARK    3  A    between atoms: C3_3  and  C4_4
REMARK    4  A    between atoms: C4_4  and  C5_5
REMARK    5  A    between atoms: C5_5  and  C6_6
REMARK    6  A    between atoms: C6_6  and  C7_8
REMARK    7  A    between atoms: C6_6  and  C29_38
REMARK    8  A    between atoms: C8_10  and  O3_37
REMARK    9  A    between atoms: C10_13  and  C28_36
REMARK   10  A    between atoms: C11_14  and  C27_35
REMARK   11  A    between atoms: C17_21  and  O2_34
REMARK   12  A    between atoms: C19_25  and  C26_33
REMARK   13  A    between atoms: C23_30  and  C24_31
REMARK   14  A    between atoms: C23_30  and  C25_32
REMARK   15  A    between atoms: C29_38  and  O5_40
REMARK   16  A    between atoms: O5_40  and  C30_41
REMARK                            x       y       z     vdW  Elec       q    Type
REMARK                         _______ _______ _______ _____ _____    ______ ____
ROOT
ATOM     12  C   UNL     1      49.248  14.480  18.182  0.00  0.00    +0.029 C 
ATOM     13  C   UNL     1      48.234  13.321  18.370  0.00  0.00    +0.178 C 
ATOM     16  C   UNL     1      46.943  13.961  18.959  0.00  0.00    +0.003 C 
ATOM     17  C   UNL     1      47.462  15.302  19.512  0.00  0.00    -0.015 C 
ATOM     18  C   UNL     1      48.243  15.066  20.814  0.00  0.00    +0.047 C 
ATOM     19  C   UNL     1      46.418  16.360  19.725  0.00  0.00    -0.071 C 
ATOM     20  C   UNL     1      45.328  16.054  20.351  0.00  0.00    -0.086 C 
ATOM     21  C   UNL     1      44.257  17.069  20.676  0.00  0.00    +0.209 C 
ATOM     24  C   UNL     1      44.921  18.425  20.933  0.00  0.00    +0.048 C 
ATOM     25  C   UNL     1      45.749  18.820  19.714  0.00  0.00    -0.041 C 
ATOM     26  C   UNL     1      46.599  20.059  20.006  0.00  0.00    +0.038 C 
ATOM     27  C   UNL     1      44.811  19.151  18.538  0.00  0.00    +0.034 C 
ATOM     28  C   UNL     1      43.932  20.350  18.869  0.00  0.00    +0.025 C 
ATOM     29  C   UNL     1      43.184  20.063  20.145  0.00  0.00    +0.365 C 
ATOM     30  O   UNL     1      41.991  20.288  20.221  0.00  0.00    -0.454 OA
ATOM     31  C   UNL     1      43.915  19.492  21.337  0.00  0.00    -0.096 C 
ATOM     32  C   UNL     1      42.832  18.944  22.288  0.00  0.00    +0.057 C 
ATOM     33  C   UNL     1      44.580  20.633  22.126  0.00  0.00    +0.055 C 
ATOM     34  C   UNL     1      46.690  17.736  19.205  0.00  0.00    +0.035 C 
ATOM     35  C   UNL     1      48.161  18.087  19.277  0.00  0.00    +0.032 C 
ATOM     36  C   UNL     1      49.097  17.014  18.695  0.00  0.00    +0.025 C 
ATOM     37  C   UNL     1      48.389  15.744  18.352  0.00  0.00    -0.043 C 
ATOM     38  C   UNL     1      47.620  15.901  17.038  0.00  0.00    +0.029 C 
ENDROOT
BRANCH  13  14
ATOM     14  O   UNL     1      48.762  12.346  19.269  0.00  0.00    -0.556 OA
ATOM     15  H   UNL     1      49.529  11.868  18.925  0.00  0.00    +0.377 HD
ENDBRANCH  13  14
BRANCH  21  22
ATOM     22  O   UNL     1      43.611  16.536  21.842  0.00  0.00    -0.558 OA
ATOM     23  H   UNL     1      42.735  16.164  21.670  0.00  0.00    +0.376 HD
ENDBRANCH  21  22
BRANCH  12   7
ATOM      7  C   UNL     1      49.843  14.447  16.774  0.00  0.00    +0.037 C 
BRANCH   7   8
ATOM      8  C   UNL     1      49.649  13.076  16.178  0.00  0.00    +0.464 C 
ATOM     11  O   UNL     1      50.269  12.135  16.612  0.00  0.00    -0.500 OA
BRANCH   8   9
ATOM      9  O   UNL     1      48.785  12.901  15.166  0.00  0.00    -0.345 OA
ATOM     10  C   UNL     1      49.343  12.677  13.869  0.00  0.00    +0.250 C 
ENDBRANCH   8   9
ENDBRANCH   7   8
BRANCH   7   6
ATOM      6  C   UNL     1      51.338  14.765  16.844  0.00  0.00    +0.056 C 
BRANCH   6   5
ATOM      5  C   UNL     1      51.857  14.469  18.252  0.00  0.00    +0.047 C 
BRANCH   5   4
ATOM      1  C   UNL     1      51.802  14.920  21.036  0.00  0.00    +0.072 C 
ATOM      2  C   UNL     1      52.403  15.950  20.115  0.00  0.00    -0.128 C 
ATOM      3  C   UNL     1      52.916  17.253  20.675  0.00  0.00    +0.070 C 
ATOM      4  C   UNL     1      52.481  15.713  18.829  0.00  0.00    -0.063 C 
ENDBRANCH   5   4
ENDBRANCH   6   5
ENDBRANCH   7   6
ENDBRANCH  12   7
TORSDOF 8
ENDMDL
MODEL 9
REMARK VINA RESULT:      -5.0      2.417      8.937
REMARK  Name = ZINC95486092
REMARK  16 active torsions:
REMARK  status: ('A' for Active; 'I' for Inactive)
REMARK    1  A    between atoms: C1_1  and  C2_2
REMARK    2  A    between atoms: C2_2  and  C31_42
REMARK    3  A    between atoms: C3_3  and  C4_4
REMARK    4  A    between atoms: C4_4  and  C5_5
REMARK    5  A    between atoms: C5_5  and  C6_6
REMARK    6  A    between atoms: C6_6  and  C7_8
REMARK    7  A    between atoms: C6_6  and  C29_38
REMARK    8  A    between atoms: C8_10  and  O3_37
REMARK    9  A    between atoms: C10_13  and  C28_36
REMARK   10  A    between atoms: C11_14  and  C27_35
REMARK   11  A    between atoms: C17_21  and  O2_34
REMARK   12  A    between atoms: C19_25  and  C26_33
REMARK   13  A    between atoms: C23_30  and  C24_31
REMARK   14  A    between atoms: C23_30  and  C25_32
REMARK   15  A    between atoms: C29_38  and  O5_40
REMARK   16  A    between atoms: O5_40  and  C30_41
REMARK                            x       y       z     vdW  Elec       q    Type
REMARK                         _______ _______ _______ _____ _____    ______ ____
ROOT
ATOM     12  C   UNL     1      47.915  14.270  19.230  0.00  0.00    +0.029 C 
ATOM     13  C   UNL     1      46.552  13.764  19.772  0.00  0.00    +0.178 C 
ATOM     16  C   UNL     1      45.770  15.027  20.237  0.00  0.00    +0.003 C 
ATOM     17  C   UNL     1      46.891  16.074  20.387  0.00  0.00    -0.015 C 
ATOM     18  C   UNL     1      47.702  15.795  21.662  0.00  0.00    +0.047 C 
ATOM     19  C   UNL     1      46.444  17.507  20.366  0.00  0.00    -0.071 C 
ATOM     20  C   UNL     1      45.447  17.868  21.107  0.00  0.00    -0.086 C 
ATOM     21  C   UNL     1      44.977  19.300  21.207  0.00  0.00    +0.209 C 
ATOM     24  C   UNL     1      46.185  20.230  21.060  0.00  0.00    +0.048 C 
ATOM     25  C   UNL     1      46.887  19.937  19.738  0.00  0.00    -0.041 C 
ATOM     26  C   UNL     1      48.218  20.690  19.646  0.00  0.00    +0.038 C 
ATOM     27  C   UNL     1      45.998  20.396  18.567  0.00  0.00    +0.034 C 
ATOM     28  C   UNL     1      45.777  21.902  18.614  0.00  0.00    +0.025 C 
ATOM     29  C   UNL     1      45.200  22.264  19.958  0.00  0.00    +0.365 C 
ATOM     30  O   UNL     1      44.245  23.014  20.034  0.00  0.00    -0.454 OA
ATOM     31  C   UNL     1      45.807  21.695  21.219  0.00  0.00    -0.096 C 
ATOM     32  C   UNL     1      44.768  21.913  22.337  0.00  0.00    +0.057 C 
ATOM     33  C   UNL     1      47.013  22.552  21.641  0.00  0.00    +0.055 C 
ATOM     34  C   UNL     1      47.183  18.465  19.487  0.00  0.00    +0.035 C 
ATOM     35  C   UNL     1      48.654  18.120  19.385  0.00  0.00    +0.032 C 
ATOM     36  C   UNL     1      48.938  16.644  19.060  0.00  0.00    +0.025 C 
ATOM     37  C   UNL     1      47.713  15.790  19.104  0.00  0.00    -0.043 C 
ATOM     38  C   UNL     1      46.877  15.992  17.838  0.00  0.00    +0.029 C 
ENDROOT
BRANCH  13  14
ATOM     14  O   UNL     1      46.758  12.874  20.869  0.00  0.00    -0.556 OA
ATOM     15  H   UNL     1      46.755  11.938  20.623  0.00  0.00    +0.377 HD
ENDBRANCH  13  14
BRANCH  21  22
ATOM     22  O   UNL     1      44.368  19.379  22.505  0.00  0.00    -0.558 OA
ATOM     23  H   UNL     1      44.895  18.981  23.211  0.00  0.00    +0.376 HD
ENDBRANCH  21  22
BRANCH  12   7
ATOM      7  C   UNL     1      48.198  13.672  17.852  0.00  0.00    +0.037 C 
BRANCH   7   8
ATOM      8  C   UNL     1      47.713  12.245  17.814  0.00  0.00    +0.464 C 
ATOM     11  O   UNL     1      48.286  11.396  18.453  0.00  0.00    -0.500 OA
BRANCH   8   9
ATOM      9  O   UNL     1      46.643  11.920  17.072  0.00  0.00    -0.345 OA
ATOM     10  C   UNL     1      46.820  11.899  15.654  0.00  0.00    +0.250 C 
ENDBRANCH   8   9
ENDBRANCH   7   8
BRANCH   7   6
ATOM      6  C   UNL     1      49.703  13.706  17.580  0.00  0.00    +0.056 C 
BRANCH   6   5
ATOM      5  C   UNL     1      49.953  13.576  16.076  0.00  0.00    +0.047 C 
BRANCH   5   4
ATOM      1  C   UNL     1      51.522  13.265  13.754  0.00  0.00    +0.072 C 
ATOM      2  C   UNL     1      51.310  12.099  14.684  0.00  0.00    -0.128 C 
ATOM      3  C   UNL     1      51.880  10.747  14.340  0.00  0.00    +0.070 C 
ATOM      4  C   UNL     1      50.630  12.261  15.792  0.00  0.00    -0.063 C 
ENDBRANCH   5   4
ENDBRANCH   6   5
ENDBRANCH   7   6
ENDBRANCH  12   7
TORSDOF 8
ENDMDL
