MODEL 1
REMARK VINA RESULT:      -5.7      0.000      0.000
REMARK  Name = ZINC02386253
REMARK  5 active torsions:
REMARK  status: ('A' for Active; 'I' for Inactive)
REMARK    1  A    between atoms: C1_1  and  O1_2
REMARK    2  A    between atoms: O1_2  and  C2_3
REMARK    3  A    between atoms: C4_5  and  C7_10
REMARK    4  A    between atoms: C8_11  and  C9_12
REMARK    5  A    between atoms: C12_15  and  O4_18
REMARK                            x       y       z     vdW  Elec       q    Type
REMARK                         _______ _______ _______ _____ _____    ______ ____
ROOT
ATOM      6  C   UNL     1      48.167  20.842  19.727  0.00  0.00    +0.004 C 
ATOM      7  C   UNL     1      47.299  20.850  18.693  0.00  0.00    +0.114 C 
ENDROOT
BRANCH   6   5
ATOM      3  C   UNL     1      51.460  20.896  17.948  0.00  0.00    +0.245 A 
ATOM      4  C   UNL     1      50.077  20.943  18.187  0.00  0.00    -0.086 A 
ATOM      5  C   UNL     1      49.606  20.799  19.474  0.00  0.00    +0.215 A 
ATOM     16  O   UNL     1      50.458  20.626  20.504  0.00  0.00    -0.271 OA
ATOM     17  C   UNL     1      51.788  20.583  20.307  0.00  0.00    +0.515 A 
ATOM     18  O   UNL     1      52.536  20.425  21.258  0.00  0.00    -0.483 OA
ATOM     19  C   UNL     1      52.319  20.717  19.022  0.00  0.00    -0.235 A 
BRANCH   3   2
ATOM      1  C   UNL     1      52.170  19.829  15.950  0.00  0.00    +0.264 C 
ATOM      2  O   UNL     1      51.946  21.030  16.691  0.00  0.00    -0.296 OA
ENDBRANCH   3   2
ENDBRANCH   6   5
BRANCH   7   8
ATOM      8  C   UNL     1      45.851  20.894  18.949  0.00  0.00    -0.092 A 
ATOM      9  C   UNL     1      45.277  22.024  19.541  0.00  0.00    +0.053 A 
ATOM     10  C   UNL     1      43.920  22.062  19.773  0.00  0.00    -0.014 A 
ATOM     11  C   UNL     1      43.123  20.976  19.429  0.00  0.00    +0.123 A 
ATOM     14  C   UNL     1      43.689  19.850  18.845  0.00  0.00    -0.014 A 
ATOM     15  C   UNL     1      45.044  19.804  18.604  0.00  0.00    +0.062 A 
BRANCH  11  12
ATOM     12  O   UNL     1      41.787  21.017  19.665  0.00  0.00    -0.499 OA
ATOM     13  H   UNL     1      41.373  20.146  19.737  0.00  0.00    +0.396 HD
ENDBRANCH  11  12
ENDBRANCH   7   8
TORSDOF 4
ENDMDL
MODEL 2
REMARK VINA RESULT:      -5.4      0.863      2.642
REMARK  Name = ZINC02386253
REMARK  5 active torsions:
REMARK  status: ('A' for Active; 'I' for Inactive)
REMARK    1  A    between atoms: C1_1  and  O1_2
REMARK    2  A    between atoms: O1_2  and  C2_3
REMARK    3  A    between atoms: C4_5  and  C7_10
REMARK    4  A    between atoms: C8_11  and  C9_12
REMARK    5  A    between atoms: C12_15  and  O4_18
REMARK                            x       y       z     vdW  Elec       q    Type
REMARK                         _______ _______ _______ _____ _____    ______ ____
ROOT
ATOM      6  C   UNL     1      48.032  20.875  19.718  0.00  0.00    +0.004 C 
ATOM      7  C   UNL     1      47.169  20.928  18.682  0.00  0.00    +0.114 C 
ENDROOT
BRANCH   6   5
ATOM      3  C   UNL     1      51.724  20.612  20.274  0.00  0.00    +0.245 A 
ATOM      4  C   UNL     1      50.342  20.630  20.517  0.00  0.00    -0.086 A 
ATOM      5  C   UNL     1      49.472  20.851  19.470  0.00  0.00    +0.215 A 
ATOM     16  O   UNL     1      49.936  21.039  18.218  0.00  0.00    -0.271 OA
ATOM     17  C   UNL     1      51.254  21.021  17.954  0.00  0.00    +0.515 A 
ATOM     18  O   UNL     1      51.645  21.195  16.811  0.00  0.00    -0.483 OA
ATOM     19  C   UNL     1      52.180  20.807  18.979  0.00  0.00    -0.235 A 
BRANCH   3   2
ATOM      1  C   UNL     1      52.580  19.110  21.902  0.00  0.00    +0.264 C 
ATOM      2  O   UNL     1      52.598  20.400  21.287  0.00  0.00    -0.296 OA
ENDBRANCH   3   2
ENDBRANCH   6   5
BRANCH   7   8
ATOM      8  C   UNL     1      45.719  20.953  18.932  0.00  0.00    -0.092 A 
ATOM      9  C   UNL     1      44.934  19.836  18.623  0.00  0.00    +0.053 A 
ATOM     10  C   UNL     1      43.579  19.863  18.864  0.00  0.00    -0.014 A 
ATOM     11  C   UNL     1      42.989  20.999  19.405  0.00  0.00    +0.123 A 
ATOM     14  C   UNL     1      43.763  22.112  19.709  0.00  0.00    -0.014 A 
ATOM     15  C   UNL     1      45.120  22.094  19.477  0.00  0.00    +0.062 A 
BRANCH  11  12
ATOM     12  O   UNL     1      41.651  21.022  19.635  0.00  0.00    -0.499 OA
ATOM     13  H   UNL     1      41.276  21.912  19.693  0.00  0.00    +0.396 HD
ENDBRANCH  11  12
ENDBRANCH   7   8
TORSDOF 4
ENDMDL
MODEL 3
REMARK VINA RESULT:      -5.4      2.370      3.233
REMARK  Name = ZINC02386253
REMARK  5 active torsions:
REMARK  status: ('A' for Active; 'I' for Inactive)
REMARK    1  A    between atoms: C1_1  and  O1_2
REMARK    2  A    between atoms: O1_2  and  C2_3
REMARK    3  A    between atoms: C4_5  and  C7_10
REMARK    4  A    between atoms: C8_11  and  C9_12
REMARK    5  A    between atoms: C12_15  and  O4_18
REMARK                            x       y       z     vdW  Elec       q    Type
REMARK                         _______ _______ _______ _____ _____    ______ ____
ROOT
ATOM      6  C   UNL     1      49.016  20.780  19.169  0.00  0.00    +0.004 C 
ATOM      7  C   UNL     1      47.695  20.529  19.058  0.00  0.00    +0.114 C 
ENDROOT
BRANCH   6   5
ATOM      3  C   UNL     1      50.907  17.933  17.643  0.00  0.00    +0.245 A 
ATOM      4  C   UNL     1      49.983  18.650  18.419  0.00  0.00    -0.086 A 
ATOM      5  C   UNL     1      49.974  20.028  18.361  0.00  0.00    +0.215 A 
ATOM     16  O   UNL     1      50.834  20.688  17.560  0.00  0.00    -0.271 OA
ATOM     17  C   UNL     1      51.726  20.028  16.802  0.00  0.00    +0.515 A 
ATOM     18  O   UNL     1      52.493  20.653  16.087  0.00  0.00    -0.483 OA
ATOM     19  C   UNL     1      51.783  18.632  16.827  0.00  0.00    -0.235 A 
BRANCH   3   2
ATOM      1  C   UNL     1      49.710  15.893  17.437  0.00  0.00    +0.264 C 
ATOM      2  O   UNL     1      50.939  16.579  17.687  0.00  0.00    -0.296 OA
ENDBRANCH   3   2
ENDBRANCH   6   5
BRANCH   7   8
ATOM      8  C   UNL     1      46.731  21.286  19.872  0.00  0.00    -0.092 A 
ATOM      9  C   UNL     1      45.428  21.494  19.406  0.00  0.00    +0.053 A 
ATOM     10  C   UNL     1      44.529  22.199  20.174  0.00  0.00    -0.014 A 
ATOM     11  C   UNL     1      44.916  22.713  21.406  0.00  0.00    +0.123 A 
ATOM     14  C   UNL     1      46.211  22.514  21.871  0.00  0.00    -0.014 A 
ATOM     15  C   UNL     1      47.116  21.806  21.113  0.00  0.00    +0.062 A 
BRANCH  11  12
ATOM     12  O   UNL     1      44.028  23.413  22.157  0.00  0.00    -0.499 OA
ATOM     13  H   UNL     1      44.397  24.208  22.565  0.00  0.00    +0.396 HD
ENDBRANCH  11  12
ENDBRANCH   7   8
TORSDOF 4
ENDMDL
MODEL 4
REMARK VINA RESULT:      -5.3      1.838      7.521
REMARK  Name = ZINC02386253
REMARK  5 active torsions:
REMARK  status: ('A' for Active; 'I' for Inactive)
REMARK    1  A    between atoms: C1_1  and  O1_2
REMARK    2  A    between atoms: O1_2  and  C2_3
REMARK    3  A    between atoms: C4_5  and  C7_10
REMARK    4  A    between atoms: C8_11  and  C9_12
REMARK    5  A    between atoms: C12_15  and  O4_18
REMARK                            x       y       z     vdW  Elec       q    Type
REMARK                         _______ _______ _______ _____ _____    ______ ____
ROOT
ATOM      6  C   UNL     1      46.787  20.272  18.594  0.00  0.00    +0.004 C 
ATOM      7  C   UNL     1      47.874  20.788  19.207  0.00  0.00    +0.114 C 
ENDROOT
BRANCH   6   5
ATOM      3  C   UNL     1      43.091  20.447  19.157  0.00  0.00    +0.245 A 
ATOM      4  C   UNL     1      44.367  19.945  18.859  0.00  0.00    -0.086 A 
ATOM      5  C   UNL     1      45.456  20.789  18.908  0.00  0.00    +0.215 A 
ATOM     16  O   UNL     1      45.308  22.084  19.249  0.00  0.00    -0.271 OA
ATOM     17  C   UNL     1      44.099  22.592  19.545  0.00  0.00    +0.515 A 
ATOM     18  O   UNL     1      43.995  23.769  19.850  0.00  0.00    -0.483 OA
ATOM     19  C   UNL     1      42.961  21.783  19.505  0.00  0.00    -0.235 A 
BRANCH   3   2
ATOM      1  C   UNL     1      40.943  20.026  18.237  0.00  0.00    +0.264 C 
ATOM      2  O   UNL     1      42.005  19.638  19.111  0.00  0.00    -0.296 OA
ENDBRANCH   3   2
ENDBRANCH   6   5
BRANCH   7   8
ATOM      8  C   UNL     1      49.213  20.268  18.890  0.00  0.00    -0.092 A 
ATOM      9  C   UNL     1      50.196  21.123  18.381  0.00  0.00    +0.053 A 
ATOM     10  C   UNL     1      51.450  20.632  18.091  0.00  0.00    -0.014 A 
ATOM     11  C   UNL     1      51.736  19.287  18.295  0.00  0.00    +0.123 A 
ATOM     14  C   UNL     1      50.761  18.433  18.796  0.00  0.00    -0.014 A 
ATOM     15  C   UNL     1      49.506  18.915  19.094  0.00  0.00    +0.062 A 
BRANCH  11  12
ATOM     12  O   UNL     1      52.971  18.807  18.002  0.00  0.00    -0.499 OA
ATOM     13  H   UNL     1      53.288  19.046  17.119  0.00  0.00    +0.396 HD
ENDBRANCH  11  12
ENDBRANCH   7   8
TORSDOF 4
ENDMDL
MODEL 5
REMARK VINA RESULT:      -5.2      2.037      7.448
REMARK  Name = ZINC02386253
REMARK  5 active torsions:
REMARK  status: ('A' for Active; 'I' for Inactive)
REMARK    1  A    between atoms: C1_1  and  O1_2
REMARK    2  A    between atoms: O1_2  and  C2_3
REMARK    3  A    between atoms: C4_5  and  C7_10
REMARK    4  A    between atoms: C8_11  and  C9_12
REMARK    5  A    between atoms: C12_15  and  O4_18
REMARK                            x       y       z     vdW  Elec       q    Type
REMARK                         _______ _______ _______ _____ _____    ______ ____
ROOT
ATOM      6  C   UNL     1      47.201  19.437  19.482  0.00  0.00    +0.004 C 
ATOM      7  C   UNL     1      47.790  20.578  19.896  0.00  0.00    +0.114 C 
ENDROOT
BRANCH   6   5
ATOM      3  C   UNL     1      43.485  19.725  19.143  0.00  0.00    +0.245 A 
ATOM      4  C   UNL     1      44.858  19.922  18.929  0.00  0.00    -0.086 A 
ATOM      5  C   UNL     1      45.770  19.232  19.698  0.00  0.00    +0.215 A 
ATOM     16  O   UNL     1      45.356  18.365  20.644  0.00  0.00    -0.271 OA
ATOM     17  C   UNL     1      44.048  18.151  20.867  0.00  0.00    +0.515 A 
ATOM     18  O   UNL     1      43.702  17.361  21.730  0.00  0.00    -0.483 OA
ATOM     19  C   UNL     1      43.080  18.829  20.121  0.00  0.00    -0.235 A 
BRANCH   3   2
ATOM      1  C   UNL     1      41.194  20.086  18.635  0.00  0.00    +0.264 C 
ATOM      2  O   UNL     1      42.569  20.396  18.402  0.00  0.00    -0.296 OA
ENDBRANCH   3   2
ENDBRANCH   6   5
BRANCH   7   8
ATOM      8  C   UNL     1      49.230  20.784  19.678  0.00  0.00    -0.092 A 
ATOM      9  C   UNL     1      50.110  20.803  20.767  0.00  0.00    +0.053 A 
ATOM     10  C   UNL     1      51.457  20.991  20.556  0.00  0.00    -0.014 A 
ATOM     11  C   UNL     1      51.944  21.171  19.266  0.00  0.00    +0.123 A 
ATOM     14  C   UNL     1      51.074  21.158  18.183  0.00  0.00    -0.014 A 
ATOM     15  C   UNL     1      49.725  20.965  18.382  0.00  0.00    +0.062 A 
BRANCH  11  12
ATOM     12  O   UNL     1      53.272  21.362  19.065  0.00  0.00    -0.499 OA
ATOM     13  H   UNL     1      53.762  21.599  19.865  0.00  0.00    +0.396 HD
ENDBRANCH  11  12
ENDBRANCH   7   8
TORSDOF 4
ENDMDL
MODEL 6
REMARK VINA RESULT:      -5.2      1.853      7.461
REMARK  Name = ZINC02386253
REMARK  5 active torsions:
REMARK  status: ('A' for Active; 'I' for Inactive)
REMARK    1  A    between atoms: C1_1  and  O1_2
REMARK    2  A    between atoms: O1_2  and  C2_3
REMARK    3  A    between atoms: C4_5  and  C7_10
REMARK    4  A    between atoms: C8_11  and  C9_12
REMARK    5  A    between atoms: C12_15  and  O4_18
REMARK                            x       y       z     vdW  Elec       q    Type
REMARK                         _______ _______ _______ _____ _____    ______ ____
ROOT
ATOM      6  C   UNL     1      46.793  19.979  18.775  0.00  0.00    +0.004 C 
ATOM      7  C   UNL     1      47.897  20.684  19.101  0.00  0.00    +0.114 C 
ENDROOT
BRANCH   6   5
ATOM      3  C   UNL     1      44.060  22.428  19.513  0.00  0.00    +0.245 A 
ATOM      4  C   UNL     1      45.335  21.892  19.272  0.00  0.00    -0.086 A 
ATOM      5  C   UNL     1      45.467  20.543  19.022  0.00  0.00    +0.215 A 
ATOM     16  O   UNL     1      44.386  19.739  18.996  0.00  0.00    -0.271 OA
ATOM     17  C   UNL     1      43.151  20.224  19.217  0.00  0.00    +0.515 A 
ATOM     18  O   UNL     1      42.191  19.472  19.188  0.00  0.00    -0.483 OA
ATOM     19  C   UNL     1      42.960  21.583  19.481  0.00  0.00    -0.235 A 
BRANCH   3   2
ATOM      1  C   UNL     1      44.399  24.661  18.780  0.00  0.00    +0.264 C 
ATOM      2  O   UNL     1      43.905  23.750  19.765  0.00  0.00    -0.296 OA
ENDBRANCH   3   2
ENDBRANCH   6   5
BRANCH   7   8
ATOM      8  C   UNL     1      49.231  20.116  18.851  0.00  0.00    -0.092 A 
ATOM      9  C   UNL     1      49.436  18.735  18.949  0.00  0.00    +0.053 A 
ATOM     10  C   UNL     1      50.686  18.209  18.709  0.00  0.00    -0.014 A 
ATOM     11  C   UNL     1      51.745  19.047  18.381  0.00  0.00    +0.123 A 
ATOM     14  C   UNL     1      51.548  20.420  18.288  0.00  0.00    -0.014 A 
ATOM     15  C   UNL     1      50.301  20.956  18.520  0.00  0.00    +0.062 A 
BRANCH  11  12
ATOM     12  O   UNL     1      52.976  18.524  18.152  0.00  0.00    -0.499 OA
ATOM     13  H   UNL     1      53.084  17.617  18.470  0.00  0.00    +0.396 HD
ENDBRANCH  11  12
ENDBRANCH   7   8
TORSDOF 4
ENDMDL
MODEL 7
REMARK VINA RESULT:      -5.0      4.147      5.098
REMARK  Name = ZINC02386253
REMARK  5 active torsions:
REMARK  status: ('A' for Active; 'I' for Inactive)
REMARK    1  A    between atoms: C1_1  and  O1_2
REMARK    2  A    between atoms: O1_2  and  C2_3
REMARK    3  A    between atoms: C4_5  and  C7_10
REMARK    4  A    between atoms: C8_11  and  C9_12
REMARK    5  A    between atoms: C12_15  and  O4_18
REMARK                            x       y       z     vdW  Elec       q    Type
REMARK                         _______ _______ _______ _____ _____    ______ ____
ROOT
ATOM      6  C   UNL     1      46.865  18.359  18.452  0.00  0.00    +0.004 C 
ATOM      7  C   UNL     1      45.605  18.689  18.098  0.00  0.00    +0.114 C 
ENDROOT
BRANCH   6   5
ATOM      3  C   UNL     1      47.292  14.896  17.095  0.00  0.00    +0.245 A 
ATOM      4  C   UNL     1      46.694  16.058  17.608  0.00  0.00    -0.086 A 
ATOM      5  C   UNL     1      47.482  17.148  17.913  0.00  0.00    +0.215 A 
ATOM     16  O   UNL     1      48.814  17.112  17.712  0.00  0.00    -0.271 OA
ATOM     17  C   UNL     1      49.414  16.015  17.216  0.00  0.00    +0.515 A 
ATOM     18  O   UNL     1      50.622  16.011  17.045  0.00  0.00    -0.483 OA
ATOM     19  C   UNL     1      48.664  14.880  16.896  0.00  0.00    -0.235 A 
BRANCH   3   2
ATOM      1  C   UNL     1      45.835  13.189  17.870  0.00  0.00    +0.264 C 
ATOM      2  O   UNL     1      46.539  13.811  16.793  0.00  0.00    -0.296 OA
ENDBRANCH   3   2
ENDBRANCH   6   5
BRANCH   7   8
ATOM      8  C   UNL     1      44.985  19.908  18.641  0.00  0.00    -0.092 A 
ATOM      9  C   UNL     1      45.764  21.046  18.879  0.00  0.00    +0.053 A 
ATOM     10  C   UNL     1      45.177  22.186  19.382  0.00  0.00    -0.014 A 
ATOM     11  C   UNL     1      43.816  22.204  19.662  0.00  0.00    +0.123 A 
ATOM     14  C   UNL     1      43.039  21.075  19.432  0.00  0.00    -0.014 A 
ATOM     15  C   UNL     1      43.615  19.932  18.924  0.00  0.00    +0.062 A 
BRANCH  11  12
ATOM     12  O   UNL     1      43.244  23.328  20.164  0.00  0.00    -0.499 OA
ATOM     13  H   UNL     1      42.563  23.712  19.594  0.00  0.00    +0.396 HD
ENDBRANCH  11  12
ENDBRANCH   7   8
TORSDOF 4
ENDMDL
MODEL 8
REMARK VINA RESULT:      -4.9      4.367      5.193
REMARK  Name = ZINC02386253
REMARK  5 active torsions:
REMARK  status: ('A' for Active; 'I' for Inactive)
REMARK    1  A    between atoms: C1_1  and  O1_2
REMARK    2  A    between atoms: O1_2  and  C2_3
REMARK    3  A    between atoms: C4_5  and  C7_10
REMARK    4  A    between atoms: C8_11  and  C9_12
REMARK    5  A    between atoms: C12_15  and  O4_18
REMARK                            x       y       z     vdW  Elec       q    Type
REMARK                         _______ _______ _______ _____ _____    ______ ____
ROOT
ATOM      6  C   UNL     1      45.950  17.605  18.459  0.00  0.00    +0.004 C 
ATOM      7  C   UNL     1      46.142  18.867  18.022  0.00  0.00    +0.114 C 
ENDROOT
BRANCH   6   5
ATOM      3  C   UNL     1      48.865  15.637  17.176  0.00  0.00    +0.245 A 
ATOM      4  C   UNL     1      48.102  16.689  17.709  0.00  0.00    -0.086 A 
ATOM      5  C   UNL     1      46.749  16.512  17.908  0.00  0.00    +0.215 A 
ATOM     16  O   UNL     1      46.157  15.339  17.607  0.00  0.00    -0.271 OA
ATOM     17  C   UNL     1      46.863  14.312  17.101  0.00  0.00    +0.515 A 
ATOM     18  O   UNL     1      46.299  13.263  16.837  0.00  0.00    -0.483 OA
ATOM     19  C   UNL     1      48.235  14.439  16.873  0.00  0.00    -0.235 A 
BRANCH   3   2
ATOM      1  C   UNL     1      50.947  16.417  18.007  0.00  0.00    +0.264 C 
ATOM      2  O   UNL     1      50.195  15.789  16.966  0.00  0.00    -0.296 OA
ENDBRANCH   3   2
ENDBRANCH   6   5
BRANCH   7   8
ATOM      8  C   UNL     1      45.337  19.967  18.577  0.00  0.00    -0.092 A 
ATOM      9  C   UNL     1      43.973  19.781  18.830  0.00  0.00    +0.053 A 
ATOM     10  C   UNL     1      43.226  20.812  19.355  0.00  0.00    -0.014 A 
ATOM     11  C   UNL     1      43.823  22.039  19.624  0.00  0.00    +0.123 A 
ATOM     14  C   UNL     1      45.175  22.230  19.370  0.00  0.00    -0.014 A 
ATOM     15  C   UNL     1      45.932  21.204  18.850  0.00  0.00    +0.062 A 
BRANCH  11  12
ATOM     12  O   UNL     1      43.080  23.054  20.135  0.00  0.00    -0.499 OA
ATOM     13  H   UNL     1      42.772  23.689  19.473  0.00  0.00    +0.396 HD
ENDBRANCH  11  12
ENDBRANCH   7   8
TORSDOF 4
ENDMDL
MODEL 9
REMARK VINA RESULT:      -4.8      4.323      7.568
REMARK  Name = ZINC02386253
REMARK  5 active torsions:
REMARK  status: ('A' for Active; 'I' for Inactive)
REMARK    1  A    between atoms: C1_1  and  O1_2
REMARK    2  A    between atoms: O1_2  and  C2_3
REMARK    3  A    between atoms: C4_5  and  C7_10
REMARK    4  A    between atoms: C8_11  and  C9_12
REMARK    5  A    between atoms: C12_15  and  O4_18
REMARK                            x       y       z     vdW  Elec       q    Type
REMARK                         _______ _______ _______ _____ _____    ______ ____
ROOT
ATOM      6  C   UNL     1      48.044  17.757  18.223  0.00  0.00    +0.004 C 
ATOM      7  C   UNL     1      49.384  17.594  18.209  0.00  0.00    +0.114 C 
ENDROOT
BRANCH   6   5
ATOM      3  C   UNL     1      46.631  14.434  19.207  0.00  0.00    +0.245 A 
ATOM      4  C   UNL     1      47.456  15.406  18.620  0.00  0.00    -0.086 A 
ATOM      5  C   UNL     1      47.191  16.741  18.836  0.00  0.00    +0.215 A 
ATOM     16  O   UNL     1      46.156  17.120  19.613  0.00  0.00    -0.271 OA
ATOM     17  C   UNL     1      45.352  16.212  20.194  0.00  0.00    +0.515 A 
ATOM     18  O   UNL     1      44.423  16.584  20.891  0.00  0.00    -0.483 OA
ATOM     19  C   UNL     1      45.572  14.845  20.003  0.00  0.00    -0.235 A 
BRANCH   3   2
ATOM      1  C   UNL     1      47.266  12.722  17.690  0.00  0.00    +0.264 C 
ATOM      2  O   UNL     1      46.869  13.115  19.005  0.00  0.00    -0.296 OA
ENDBRANCH   3   2
ENDBRANCH   6   5
BRANCH   7   8
ATOM      8  C   UNL     1      50.243  18.617  17.592  0.00  0.00    -0.092 A 
ATOM      9  C   UNL     1      50.349  19.887  18.171  0.00  0.00    +0.053 A 
ATOM     10  C   UNL     1      51.158  20.839  17.593  0.00  0.00    -0.014 A 
ATOM     11  C   UNL     1      51.861  20.544  16.430  0.00  0.00    +0.123 A 
ATOM     14  C   UNL     1      51.754  19.287  15.848  0.00  0.00    -0.014 A 
ATOM     15  C   UNL     1      50.952  18.326  16.422  0.00  0.00    +0.062 A 
BRANCH  11  12
ATOM     12  O   UNL     1      52.652  21.489  15.861  0.00  0.00    -0.499 OA
ATOM     13  H   UNL     1      52.167  22.161  15.362  0.00  0.00    +0.396 HD
ENDBRANCH  11  12
ENDBRANCH   7   8
TORSDOF 4
ENDMDL
