MODEL 1
REMARK VINA RESULT:      -5.7      0.000      0.000
REMARK  Name = ZINC95486343
REMARK  10 active torsions:
REMARK  status: ('A' for Active; 'I' for Inactive)
REMARK    1  A    between atoms: C1_1  and  N1_2
REMARK    2  A    between atoms: C6_7  and  O5_26
REMARK    3  A    between atoms: C7_8  and  O3_23
REMARK    4  A    between atoms: C14_16  and  O2_22
REMARK    5  A    between atoms: C15_17  and  O1_20
REMARK    6  A    between atoms: O1_20  and  C18_21
REMARK    7  A    between atoms: O3_23  and  C19_24
REMARK    8  A    between atoms: C19_24  and  O4_25
REMARK    9  A    between atoms: O5_26  and  C20_27
REMARK   10  A    between atoms: C20_27  and  O6_28
REMARK                            x       y       z     vdW  Elec       q    Type
REMARK                         _______ _______ _______ _____ _____    ______ ____
ROOT
ATOM      1  C   UNL     1      44.470  14.775  22.505  0.00  0.00    +0.196 C 
ATOM      2  N   UNL     1      45.368  15.901  22.212  0.00  0.00    -0.534 NA
ATOM      3  C   UNL     1      46.611  15.408  21.610  0.00  0.00    +0.176 C 
ATOM      4  C   UNL     1      47.654  16.509  21.549  0.00  0.00    +0.090 C 
ATOM      5  C   UNL     1      47.051  17.844  21.218  0.00  0.00    -0.031 A 
ATOM      6  C   UNL     1      47.918  18.918  21.052  0.00  0.00    -0.055 A 
ATOM      7  C   UNL     1      47.427  20.177  20.767  0.00  0.00    +0.128 A 
ATOM     12  C   UNL     1      46.056  20.371  20.630  0.00  0.00    +0.095 A 
ATOM     17  C   UNL     1      45.185  19.295  20.742  0.00  0.00    -0.022 A 
ATOM     18  C   UNL     1      43.729  19.418  20.507  0.00  0.00    -0.034 A 
ATOM     19  C   UNL     1      43.186  20.323  19.600  0.00  0.00    +0.113 A 
ATOM     22  C   UNL     1      41.802  20.445  19.487  0.00  0.00    +0.090 A 
ATOM     25  C   UNL     1      40.966  19.621  20.221  0.00  0.00    -0.053 A 
ATOM     26  C   UNL     1      41.507  18.653  21.049  0.00  0.00    +0.044 A 
ATOM     27  C   UNL     1      42.874  18.530  21.164  0.00  0.00    -0.095 A 
ATOM     28  C   UNL     1      43.471  17.443  22.023  0.00  0.00    +0.106 C 
ATOM     29  C   UNL     1      45.694  18.030  21.084  0.00  0.00    -0.091 A 
ATOM     30  C   UNL     1      44.729  16.899  21.346  0.00  0.00    +0.193 C 
ENDROOT
BRANCH  19  20
ATOM     20  O   UNL     1      43.971  21.056  18.766  0.00  0.00    -0.463 OA
ATOM     21  H   UNL     1      44.900  20.787  18.764  0.00  0.00    +0.384 HD
ENDBRANCH  19  20
BRANCH  22  23
ATOM     23  O   UNL     1      41.274  21.378  18.648  0.00  0.00    -0.305 OA
ATOM     24  C   UNL     1      39.848  21.431  18.552  0.00  0.00    +0.238 C 
ENDBRANCH  22  23
BRANCH   7   8
ATOM      8  O   UNL     1      48.279  21.228  20.621  0.00  0.00    -0.271 OA
BRANCH   8   9
ATOM      9  C   UNL     1      49.592  20.936  20.137  0.00  0.00    +0.391 C 
BRANCH   9  10
ATOM     10  O   UNL     1      49.589  20.960  18.708  0.00  0.00    -0.590 OA
ATOM     11  H   UNL     1      49.105  21.706  18.328  0.00  0.00    +0.397 HD
ENDBRANCH   9  10
ENDBRANCH   8   9
ENDBRANCH   7   8
BRANCH  12  13
ATOM     13  O   UNL     1      45.600  21.640  20.453  0.00  0.00    -0.276 OA
BRANCH  13  14
ATOM     14  C   UNL     1      45.224  22.365  21.627  0.00  0.00    +0.375 C 
BRANCH  14  15
ATOM     15  O   UNL     1      43.993  23.051  21.390  0.00  0.00    -0.588 OA
ATOM     16  H   UNL     1      44.097  23.995  21.210  0.00  0.00    +0.390 HD
ENDBRANCH  14  15
ENDBRANCH  13  14
ENDBRANCH  12  13
TORSDOF 8
ENDMDL
MODEL 2
REMARK VINA RESULT:      -5.6      2.186      2.537
REMARK  Name = ZINC95486343
REMARK  10 active torsions:
REMARK  status: ('A' for Active; 'I' for Inactive)
REMARK    1  A    between atoms: C1_1  and  N1_2
REMARK    2  A    between atoms: C6_7  and  O5_26
REMARK    3  A    between atoms: C7_8  and  O3_23
REMARK    4  A    between atoms: C14_16  and  O2_22
REMARK    5  A    between atoms: C15_17  and  O1_20
REMARK    6  A    between atoms: O1_20  and  C18_21
REMARK    7  A    between atoms: O3_23  and  C19_24
REMARK    8  A    between atoms: C19_24  and  O4_25
REMARK    9  A    between atoms: O5_26  and  C20_27
REMARK   10  A    between atoms: C20_27  and  O6_28
REMARK                            x       y       z     vdW  Elec       q    Type
REMARK                         _______ _______ _______ _____ _____    ______ ____
ROOT
ATOM      1  C   UNL     1      45.860  14.371  18.910  0.00  0.00    +0.196 C 
ATOM      2  N   UNL     1      46.781  15.515  18.890  0.00  0.00    -0.534 NA
ATOM      3  C   UNL     1      47.752  15.358  17.802  0.00  0.00    +0.176 C 
ATOM      4  C   UNL     1      48.871  16.376  17.927  0.00  0.00    +0.090 C 
ATOM      5  C   UNL     1      48.372  17.712  18.401  0.00  0.00    -0.031 A 
ATOM      6  C   UNL     1      49.291  18.752  18.476  0.00  0.00    -0.055 A 
ATOM      7  C   UNL     1      48.903  19.999  18.924  0.00  0.00    +0.128 A 
ATOM     12  C   UNL     1      47.578  20.222  19.290  0.00  0.00    +0.095 A 
ATOM     17  C   UNL     1      46.641  19.204  19.168  0.00  0.00    -0.022 A 
ATOM     18  C   UNL     1      45.201  19.408  19.444  0.00  0.00    -0.034 A 
ATOM     19  C   UNL     1      44.555  20.621  19.223  0.00  0.00    +0.113 A 
ATOM     22  C   UNL     1      43.216  20.769  19.581  0.00  0.00    +0.090 A 
ATOM     25  C   UNL     1      42.508  19.695  20.090  0.00  0.00    -0.053 A 
ATOM     26  C   UNL     1      43.123  18.461  20.218  0.00  0.00    +0.044 A 
ATOM     27  C   UNL     1      44.446  18.312  19.865  0.00  0.00    -0.095 A 
ATOM     28  C   UNL     1      45.108  16.959  19.951  0.00  0.00    +0.106 C 
ATOM     29  C   UNL     1      47.061  17.926  18.762  0.00  0.00    -0.091 A 
ATOM     30  C   UNL     1      46.067  16.791  18.772  0.00  0.00    +0.193 C 
ENDROOT
BRANCH  19  20
ATOM     20  O   UNL     1      45.179  21.659  18.604  0.00  0.00    -0.463 OA
ATOM     21  H   UNL     1      44.592  22.203  18.061  0.00  0.00    +0.384 HD
ENDBRANCH  19  20
BRANCH  22  23
ATOM     23  O   UNL     1      42.607  21.976  19.426  0.00  0.00    -0.305 OA
ATOM     24  C   UNL     1      41.369  21.991  18.711  0.00  0.00    +0.238 C 
ENDBRANCH  22  23
BRANCH   7   8
ATOM      8  O   UNL     1      49.810  21.010  19.009  0.00  0.00    -0.271 OA
BRANCH   8   9
ATOM      9  C   UNL     1      50.918  20.964  18.109  0.00  0.00    +0.391 C 
BRANCH   9  10
ATOM     10  O   UNL     1      52.076  21.503  18.752  0.00  0.00    -0.590 OA
ATOM     11  H   UNL     1      52.486  22.236  18.273  0.00  0.00    +0.397 HD
ENDBRANCH   9  10
ENDBRANCH   8   9
ENDBRANCH   7   8
BRANCH  12  13
ATOM     13  O   UNL     1      47.253  21.430  19.824  0.00  0.00    -0.276 OA
BRANCH  13  14
ATOM     14  C   UNL     1      47.469  21.599  21.227  0.00  0.00    +0.375 C 
BRANCH  14  15
ATOM     15  O   UNL     1      46.917  22.848  21.647  0.00  0.00    -0.588 OA
ATOM     16  H   UNL     1      47.006  23.019  22.595  0.00  0.00    +0.390 HD
ENDBRANCH  14  15
ENDBRANCH  13  14
ENDBRANCH  12  13
TORSDOF 8
ENDMDL
MODEL 3
REMARK VINA RESULT:      -5.6      4.407      6.842
REMARK  Name = ZINC95486343
REMARK  10 active torsions:
REMARK  status: ('A' for Active; 'I' for Inactive)
REMARK    1  A    between atoms: C1_1  and  N1_2
REMARK    2  A    between atoms: C6_7  and  O5_26
REMARK    3  A    between atoms: C7_8  and  O3_23
REMARK    4  A    between atoms: C14_16  and  O2_22
REMARK    5  A    between atoms: C15_17  and  O1_20
REMARK    6  A    between atoms: O1_20  and  C18_21
REMARK    7  A    between atoms: O3_23  and  C19_24
REMARK    8  A    between atoms: C19_24  and  O4_25
REMARK    9  A    between atoms: O5_26  and  C20_27
REMARK   10  A    between atoms: C20_27  and  O6_28
REMARK                            x       y       z     vdW  Elec       q    Type
REMARK                         _______ _______ _______ _____ _____    ______ ____
ROOT
ATOM      1  C   UNL     1      44.248  19.652  19.130  0.00  0.00    +0.196 C 
ATOM      2  N   UNL     1      45.675  20.004  19.134  0.00  0.00    -0.534 NA
ATOM      3  C   UNL     1      46.016  20.703  20.378  0.00  0.00    +0.176 C 
ATOM      4  C   UNL     1      47.404  21.311  20.291  0.00  0.00    +0.090 C 
ATOM      5  C   UNL     1      48.366  20.425  19.552  0.00  0.00    -0.031 A 
ATOM      6  C   UNL     1      49.692  20.837  19.479  0.00  0.00    -0.055 A 
ATOM      7  C   UNL     1      50.623  20.079  18.797  0.00  0.00    +0.128 A 
ATOM     12  C   UNL     1      50.237  18.887  18.191  0.00  0.00    +0.095 A 
ATOM     17  C   UNL     1      48.927  18.441  18.304  0.00  0.00    -0.022 A 
ATOM     18  C   UNL     1      48.480  17.135  17.770  0.00  0.00    -0.034 A 
ATOM     19  C   UNL     1      49.313  16.022  17.704  0.00  0.00    +0.113 A 
ATOM     22  C   UNL     1      48.853  14.846  17.114  0.00  0.00    +0.090 A 
ATOM     25  C   UNL     1      47.550  14.757  16.657  0.00  0.00    -0.053 A 
ATOM     26  C   UNL     1      46.691  15.832  16.813  0.00  0.00    +0.044 A 
ATOM     27  C   UNL     1      47.142  16.996  17.395  0.00  0.00    -0.095 A 
ATOM     28  C   UNL     1      46.198  18.152  17.616  0.00  0.00    +0.106 C 
ATOM     29  C   UNL     1      47.979  19.247  18.955  0.00  0.00    -0.091 A 
ATOM     30  C   UNL     1      46.529  18.826  18.948  0.00  0.00    +0.193 C 
ENDROOT
BRANCH  19  20
ATOM     20  O   UNL     1      50.555  16.026  18.259  0.00  0.00    -0.463 OA
ATOM     21  H   UNL     1      50.645  15.441  19.023  0.00  0.00    +0.384 HD
ENDBRANCH  19  20
BRANCH  22  23
ATOM     23  O   UNL     1      49.693  13.781  16.990  0.00  0.00    -0.305 OA
ATOM     24  C   UNL     1      49.945  13.305  15.666  0.00  0.00    +0.238 C 
ENDBRANCH  22  23
BRANCH   7   8
ATOM      8  O   UNL     1      51.917  20.494  18.715  0.00  0.00    -0.271 OA
BRANCH   8   9
ATOM      9  C   UNL     1      52.528  20.954  19.922  0.00  0.00    +0.391 C 
BRANCH   9  10
ATOM     10  O   UNL     1      52.893  22.329  19.778  0.00  0.00    -0.590 OA
ATOM     11  H   UNL     1      53.777  22.539  20.109  0.00  0.00    +0.397 HD
ENDBRANCH   9  10
ENDBRANCH   8   9
ENDBRANCH   7   8
BRANCH  12  13
ATOM     13  O   UNL     1      51.156  18.220  17.441  0.00  0.00    -0.276 OA
BRANCH  13  14
ATOM     14  C   UNL     1      51.316  18.642  16.085  0.00  0.00    +0.375 C 
BRANCH  14  15
ATOM     15  O   UNL     1      52.560  19.333  15.945  0.00  0.00    -0.588 OA
ATOM     16  H   UNL     1      53.068  19.397  16.765  0.00  0.00    +0.390 HD
ENDBRANCH  14  15
ENDBRANCH  13  14
ENDBRANCH  12  13
TORSDOF 8
ENDMDL
MODEL 4
REMARK VINA RESULT:      -5.5      3.823      7.181
REMARK  Name = ZINC95486343
REMARK  10 active torsions:
REMARK  status: ('A' for Active; 'I' for Inactive)
REMARK    1  A    between atoms: C1_1  and  N1_2
REMARK    2  A    between atoms: C6_7  and  O5_26
REMARK    3  A    between atoms: C7_8  and  O3_23
REMARK    4  A    between atoms: C14_16  and  O2_22
REMARK    5  A    between atoms: C15_17  and  O1_20
REMARK    6  A    between atoms: O1_20  and  C18_21
REMARK    7  A    between atoms: O3_23  and  C19_24
REMARK    8  A    between atoms: C19_24  and  O4_25
REMARK    9  A    between atoms: O5_26  and  C20_27
REMARK   10  A    between atoms: C20_27  and  O6_28
REMARK                            x       y       z     vdW  Elec       q    Type
REMARK                         _______ _______ _______ _____ _____    ______ ____
ROOT
ATOM      1  C   UNL     1      45.083  22.458  19.916  0.00  0.00    +0.196 C 
ATOM      2  N   UNL     1      45.091  20.989  19.952  0.00  0.00    -0.534 NA
ATOM      3  C   UNL     1      43.820  20.468  19.438  0.00  0.00    +0.176 C 
ATOM      4  C   UNL     1      43.696  18.980  19.715  0.00  0.00    +0.090 C 
ATOM      5  C   UNL     1      45.007  18.263  19.556  0.00  0.00    -0.031 A 
ATOM      6  C   UNL     1      45.004  16.880  19.703  0.00  0.00    -0.055 A 
ATOM      7  C   UNL     1      46.177  16.162  19.590  0.00  0.00    +0.128 A 
ATOM     12  C   UNL     1      47.370  16.824  19.313  0.00  0.00    +0.095 A 
ATOM     17  C   UNL     1      47.375  18.198  19.112  0.00  0.00    -0.022 A 
ATOM     18  C   UNL     1      48.591  18.943  18.716  0.00  0.00    -0.034 A 
ATOM     19  C   UNL     1      49.592  18.386  17.926  0.00  0.00    +0.113 A 
ATOM     22  C   UNL     1      50.749  19.115  17.657  0.00  0.00    +0.090 A 
ATOM     25  C   UNL     1      50.876  20.415  18.113  0.00  0.00    -0.053 A 
ATOM     26  C   UNL     1      49.838  21.004  18.815  0.00  0.00    +0.044 A 
ATOM     27  C   UNL     1      48.694  20.286  19.083  0.00  0.00    -0.095 A 
ATOM     28  C   UNL     1      47.538  20.937  19.801  0.00  0.00    +0.106 C 
ATOM     29  C   UNL     1      46.183  18.922  19.282  0.00  0.00    -0.091 A 
ATOM     30  C   UNL     1      46.224  20.429  19.206  0.00  0.00    +0.193 C 
ENDROOT
BRANCH  19  20
ATOM     20  O   UNL     1      49.448  17.163  17.349  0.00  0.00    -0.463 OA
ATOM     21  H   UNL     1      49.714  16.427  17.917  0.00  0.00    +0.384 HD
ENDBRANCH  19  20
BRANCH  22  23
ATOM     23  O   UNL     1      51.755  18.543  16.940  0.00  0.00    -0.305 OA
ATOM     24  C   UNL     1      52.086  19.149  15.689  0.00  0.00    +0.238 C 
ENDBRANCH  22  23
BRANCH   7   8
ATOM      8  O   UNL     1      46.172  14.811  19.750  0.00  0.00    -0.271 OA
BRANCH   8   9
ATOM      9  C   UNL     1      45.728  14.028  18.639  0.00  0.00    +0.391 C 
BRANCH   9  10
ATOM     10  O   UNL     1      44.591  13.254  19.026  0.00  0.00    -0.590 OA
ATOM     11  H   UNL     1      44.218  13.503  19.883  0.00  0.00    +0.397 HD
ENDBRANCH   9  10
ENDBRANCH   8   9
ENDBRANCH   7   8
BRANCH  12  13
ATOM     13  O   UNL     1      48.522  16.099  19.312  0.00  0.00    -0.276 OA
BRANCH  13  14
ATOM     14  C   UNL     1      49.116  15.821  20.583  0.00  0.00    +0.375 C 
BRANCH  14  15
ATOM     15  O   UNL     1      48.924  14.442  20.906  0.00  0.00    -0.588 OA
ATOM     16  H   UNL     1      49.725  13.995  21.212  0.00  0.00    +0.390 HD
ENDBRANCH  14  15
ENDBRANCH  13  14
ENDBRANCH  12  13
TORSDOF 8
ENDMDL
MODEL 5
REMARK VINA RESULT:      -5.4      2.930      6.738
REMARK  Name = ZINC95486343
REMARK  10 active torsions:
REMARK  status: ('A' for Active; 'I' for Inactive)
REMARK    1  A    between atoms: C1_1  and  N1_2
REMARK    2  A    between atoms: C6_7  and  O5_26
REMARK    3  A    between atoms: C7_8  and  O3_23
REMARK    4  A    between atoms: C14_16  and  O2_22
REMARK    5  A    between atoms: C15_17  and  O1_20
REMARK    6  A    between atoms: O1_20  and  C18_21
REMARK    7  A    between atoms: O3_23  and  C19_24
REMARK    8  A    between atoms: C19_24  and  O4_25
REMARK    9  A    between atoms: O5_26  and  C20_27
REMARK   10  A    between atoms: C20_27  and  O6_28
REMARK                            x       y       z     vdW  Elec       q    Type
REMARK                         _______ _______ _______ _____ _____    ______ ____
ROOT
ATOM      1  C   UNL     1      46.269  24.975  21.010  0.00  0.00    +0.196 C 
ATOM      2  N   UNL     1      45.082  24.265  20.514  0.00  0.00    -0.534 NA
ATOM      3  C   UNL     1      44.690  24.798  19.205  0.00  0.00    +0.176 C 
ATOM      4  C   UNL     1      43.323  24.276  18.799  0.00  0.00    +0.090 C 
ATOM      5  C   UNL     1      43.122  22.842  19.200  0.00  0.00    -0.031 A 
ATOM      6  C   UNL     1      41.938  22.225  18.810  0.00  0.00    -0.055 A 
ATOM      7  C   UNL     1      41.681  20.916  19.164  0.00  0.00    +0.128 A 
ATOM     12  C   UNL     1      42.618  20.202  19.905  0.00  0.00    +0.095 A 
ATOM     17  C   UNL     1      43.826  20.792  20.255  0.00  0.00    -0.022 A 
ATOM     18  C   UNL     1      44.902  20.054  20.953  0.00  0.00    -0.034 A 
ATOM     19  C   UNL     1      45.121  18.691  20.774  0.00  0.00    +0.113 A 
ATOM     22  C   UNL     1      46.099  18.041  21.524  0.00  0.00    +0.090 A 
ATOM     25  C   UNL     1      46.901  18.758  22.395  0.00  0.00    -0.053 A 
ATOM     26  C   UNL     1      46.750  20.130  22.501  0.00  0.00    +0.044 A 
ATOM     27  C   UNL     1      45.784  20.775  21.761  0.00  0.00    -0.095 A 
ATOM     28  C   UNL     1      45.648  22.276  21.831  0.00  0.00    +0.106 C 
ATOM     29  C   UNL     1      44.052  22.141  19.933  0.00  0.00    -0.091 A 
ATOM     30  C   UNL     1      45.302  22.816  20.443  0.00  0.00    +0.193 C 
ENDROOT
BRANCH  19  20
ATOM     20  O   UNL     1      44.445  17.978  19.834  0.00  0.00    -0.463 OA
ATOM     21  H   UNL     1      44.937  17.221  19.487  0.00  0.00    +0.384 HD
ENDBRANCH  19  20
BRANCH  22  23
ATOM     23  O   UNL     1      46.265  16.696  21.395  0.00  0.00    -0.305 OA
ATOM     24  C   UNL     1      45.652  15.869  22.387  0.00  0.00    +0.238 C 
ENDBRANCH  22  23
BRANCH   7   8
ATOM      8  O   UNL     1      40.515  20.322  18.791  0.00  0.00    -0.271 OA
BRANCH   8   9
ATOM      9  C   UNL     1      39.590  21.118  18.048  0.00  0.00    +0.391 C 
BRANCH   9  10
ATOM     10  O   UNL     1      38.733  21.821  18.950  0.00  0.00    -0.590 OA
ATOM     11  H   UNL     1      38.290  22.586  18.557  0.00  0.00    +0.397 HD
ENDBRANCH   9  10
ENDBRANCH   8   9
ENDBRANCH   7   8
BRANCH  12  13
ATOM     13  O   UNL     1      42.288  18.951  20.325  0.00  0.00    -0.276 OA
BRANCH  13  14
ATOM     14  C   UNL     1      41.721  18.833  21.632  0.00  0.00    +0.375 C 
BRANCH  14  15
ATOM     15  O   UNL     1      40.454  19.493  21.664  0.00  0.00    -0.588 OA
ATOM     16  H   UNL     1      39.767  19.002  22.133  0.00  0.00    +0.390 HD
ENDBRANCH  14  15
ENDBRANCH  13  14
ENDBRANCH  12  13
TORSDOF 8
ENDMDL
MODEL 6
REMARK VINA RESULT:      -5.3      3.724      6.467
REMARK  Name = ZINC95486343
REMARK  10 active torsions:
REMARK  status: ('A' for Active; 'I' for Inactive)
REMARK    1  A    between atoms: C1_1  and  N1_2
REMARK    2  A    between atoms: C6_7  and  O5_26
REMARK    3  A    between atoms: C7_8  and  O3_23
REMARK    4  A    between atoms: C14_16  and  O2_22
REMARK    5  A    between atoms: C15_17  and  O1_20
REMARK    6  A    between atoms: O1_20  and  C18_21
REMARK    7  A    between atoms: O3_23  and  C19_24
REMARK    8  A    between atoms: C19_24  and  O4_25
REMARK    9  A    between atoms: O5_26  and  C20_27
REMARK   10  A    between atoms: C20_27  and  O6_28
REMARK                            x       y       z     vdW  Elec       q    Type
REMARK                         _______ _______ _______ _____ _____    ______ ____
ROOT
ATOM      1  C   UNL     1      52.511  18.456  19.630  0.00  0.00    +0.196 C 
ATOM      2  N   UNL     1      51.169  19.046  19.532  0.00  0.00    -0.534 NA
ATOM      3  C   UNL     1      51.252  20.386  18.941  0.00  0.00    +0.176 C 
ATOM      4  C   UNL     1      49.929  21.118  19.078  0.00  0.00    +0.090 C 
ATOM      5  C   UNL     1      48.752  20.203  18.887  0.00  0.00    -0.031 A 
ATOM      6  C   UNL     1      47.484  20.774  18.907  0.00  0.00    -0.055 A 
ATOM      7  C   UNL     1      46.360  19.987  18.758  0.00  0.00    +0.128 A 
ATOM     12  C   UNL     1      46.495  18.614  18.572  0.00  0.00    +0.095 A 
ATOM     17  C   UNL     1      47.758  18.042  18.497  0.00  0.00    -0.022 A 
ATOM     18  C   UNL     1      47.969  16.607  18.201  0.00  0.00    -0.034 A 
ATOM     19  C   UNL     1      47.111  15.872  17.388  0.00  0.00    +0.113 A 
ATOM     22  C   UNL     1      47.321  14.505  17.215  0.00  0.00    +0.090 A 
ATOM     25  C   UNL     1      48.418  13.890  17.792  0.00  0.00    -0.053 A 
ATOM     26  C   UNL     1      49.327  14.640  18.519  0.00  0.00    +0.044 A 
ATOM     27  C   UNL     1      49.121  15.991  18.691  0.00  0.00    -0.095 A 
ATOM     28  C   UNL     1      50.134  16.826  19.437  0.00  0.00    +0.106 C 
ATOM     29  C   UNL     1      48.892  18.847  18.703  0.00  0.00    -0.091 A 
ATOM     30  C   UNL     1      50.251  18.194  18.766  0.00  0.00    +0.193 C 
ENDROOT
BRANCH  19  20
ATOM     20  O   UNL     1      46.098  16.464  16.699  0.00  0.00    -0.463 OA
ATOM     21  H   UNL     1      45.472  16.944  17.256  0.00  0.00    +0.384 HD
ENDBRANCH  19  20
BRANCH  22  23
ATOM     23  O   UNL     1      46.442  13.776  16.475  0.00  0.00    -0.305 OA
ATOM     24  C   UNL     1      45.844  12.642  17.108  0.00  0.00    +0.238 C 
ENDBRANCH  22  23
BRANCH   7   8
ATOM      8  O   UNL     1      45.121  20.549  18.793  0.00  0.00    -0.271 OA
BRANCH   8   9
ATOM      9  C   UNL     1      44.885  21.537  19.798  0.00  0.00    +0.391 C 
BRANCH   9  10
ATOM     10  O   UNL     1      43.664  21.241  20.479  0.00  0.00    -0.590 OA
ATOM     11  H   UNL     1      43.781  20.735  21.295  0.00  0.00    +0.397 HD
ENDBRANCH   9  10
ENDBRANCH   8   9
ENDBRANCH   7   8
BRANCH  12  13
ATOM     13  O   UNL     1      45.366  17.856  18.533  0.00  0.00    -0.276 OA
BRANCH  13  14
ATOM     14  C   UNL     1      44.797  17.473  19.788  0.00  0.00    +0.375 C 
BRANCH  14  15
ATOM     15  O   UNL     1      43.639  18.268  20.049  0.00  0.00    -0.588 OA
ATOM     16  H   UNL     1      43.686  18.772  20.873  0.00  0.00    +0.390 HD
ENDBRANCH  14  15
ENDBRANCH  13  14
ENDBRANCH  12  13
TORSDOF 8
ENDMDL
MODEL 7
REMARK VINA RESULT:      -5.1      2.021      2.741
REMARK  Name = ZINC95486343
REMARK  10 active torsions:
REMARK  status: ('A' for Active; 'I' for Inactive)
REMARK    1  A    between atoms: C1_1  and  N1_2
REMARK    2  A    between atoms: C6_7  and  O5_26
REMARK    3  A    between atoms: C7_8  and  O3_23
REMARK    4  A    between atoms: C14_16  and  O2_22
REMARK    5  A    between atoms: C15_17  and  O1_20
REMARK    6  A    between atoms: O1_20  and  C18_21
REMARK    7  A    between atoms: O3_23  and  C19_24
REMARK    8  A    between atoms: C19_24  and  O4_25
REMARK    9  A    between atoms: O5_26  and  C20_27
REMARK   10  A    between atoms: C20_27  and  O6_28
REMARK                            x       y       z     vdW  Elec       q    Type
REMARK                         _______ _______ _______ _____ _____    ______ ____
ROOT
ATOM      1  C   UNL     1      45.097  13.405  22.188  0.00  0.00    +0.196 C 
ATOM      2  N   UNL     1      46.021  14.180  21.348  0.00  0.00    -0.534 NA
ATOM      3  C   UNL     1      46.654  13.303  20.358  0.00  0.00    +0.176 C 
ATOM      4  C   UNL     1      47.802  14.013  19.665  0.00  0.00    +0.090 C 
ATOM      5  C   UNL     1      47.500  15.463  19.409  0.00  0.00    -0.031 A 
ATOM      6  C   UNL     1      48.444  16.202  18.704  0.00  0.00    -0.055 A 
ATOM      7  C   UNL     1      48.238  17.543  18.454  0.00  0.00    +0.128 A 
ATOM     12  C   UNL     1      47.071  18.160  18.897  0.00  0.00    +0.095 A 
ATOM     17  C   UNL     1      46.099  17.419  19.556  0.00  0.00    -0.022 A 
ATOM     18  C   UNL     1      44.796  17.993  19.961  0.00  0.00    -0.034 A 
ATOM     19  C   UNL     1      44.161  19.001  19.243  0.00  0.00    +0.113 A 
ATOM     22  C   UNL     1      42.975  19.554  19.725  0.00  0.00    +0.090 A 
ATOM     25  C   UNL     1      42.391  19.056  20.877  0.00  0.00    -0.053 A 
ATOM     26  C   UNL     1      42.971  17.987  21.537  0.00  0.00    +0.044 A 
ATOM     27  C   UNL     1      44.143  17.439  21.064  0.00  0.00    -0.095 A 
ATOM     28  C   UNL     1      44.752  16.240  21.747  0.00  0.00    +0.106 C 
ATOM     29  C   UNL     1      46.345  16.067  19.850  0.00  0.00    -0.091 A 
ATOM     30  C   UNL     1      45.349  15.307  20.692  0.00  0.00    +0.193 C 
ENDROOT
BRANCH  19  20
ATOM     20  O   UNL     1      44.632  19.427  18.041  0.00  0.00    -0.463 OA
ATOM     21  H   UNL     1      44.044  19.233  17.298  0.00  0.00    +0.384 HD
ENDBRANCH  19  20
BRANCH  22  23
ATOM     23  O   UNL     1      42.392  20.586  19.056  0.00  0.00    -0.305 OA
ATOM     24  C   UNL     1      41.192  20.296  18.335  0.00  0.00    +0.238 C 
ENDBRANCH  22  23
BRANCH   7   8
ATOM      8  O   UNL     1      49.172  18.265  17.776  0.00  0.00    -0.271 OA
BRANCH   8   9
ATOM      9  C   UNL     1      50.540  18.037  18.117  0.00  0.00    +0.391 C 
BRANCH   9  10
ATOM     10  O   UNL     1      50.887  18.834  19.252  0.00  0.00    -0.590 OA
ATOM     11  H   UNL     1      50.181  18.914  19.908  0.00  0.00    +0.397 HD
ENDBRANCH   9  10
ENDBRANCH   8   9
ENDBRANCH   7   8
BRANCH  12  13
ATOM     13  O   UNL     1      46.949  19.504  18.725  0.00  0.00    -0.276 OA
BRANCH  13  14
ATOM     14  C   UNL     1      47.557  20.343  19.710  0.00  0.00    +0.375 C 
BRANCH  14  15
ATOM     15  O   UNL     1      48.773  20.884  19.189  0.00  0.00    -0.588 OA
ATOM     16  H   UNL     1      49.550  20.333  19.352  0.00  0.00    +0.390 HD
ENDBRANCH  14  15
ENDBRANCH  13  14
ENDBRANCH  12  13
TORSDOF 8
ENDMDL
MODEL 8
REMARK VINA RESULT:      -5.1      4.018      5.964
REMARK  Name = ZINC95486343
REMARK  10 active torsions:
REMARK  status: ('A' for Active; 'I' for Inactive)
REMARK    1  A    between atoms: C1_1  and  N1_2
REMARK    2  A    between atoms: C6_7  and  O5_26
REMARK    3  A    between atoms: C7_8  and  O3_23
REMARK    4  A    between atoms: C14_16  and  O2_22
REMARK    5  A    between atoms: C15_17  and  O1_20
REMARK    6  A    between atoms: O1_20  and  C18_21
REMARK    7  A    between atoms: O3_23  and  C19_24
REMARK    8  A    between atoms: C19_24  and  O4_25
REMARK    9  A    between atoms: O5_26  and  C20_27
REMARK   10  A    between atoms: C20_27  and  O6_28
REMARK                            x       y       z     vdW  Elec       q    Type
REMARK                         _______ _______ _______ _____ _____    ______ ____
ROOT
ATOM      1  C   UNL     1      51.459  21.060  19.987  0.00  0.00    +0.196 C 
ATOM      2  N   UNL     1      51.091  19.689  19.610  0.00  0.00    -0.534 NA
ATOM      3  C   UNL     1      51.824  18.727  20.441  0.00  0.00    +0.176 C 
ATOM      4  C   UNL     1      51.672  17.318  19.895  0.00  0.00    +0.090 C 
ATOM      5  C   UNL     1      50.291  17.063  19.360  0.00  0.00    -0.031 A 
ATOM      6  C   UNL     1      50.004  15.780  18.908  0.00  0.00    -0.055 A 
ATOM      7  C   UNL     1      48.761  15.484  18.386  0.00  0.00    +0.128 A 
ATOM     12  C   UNL     1      47.782  16.472  18.324  0.00  0.00    +0.095 A 
ATOM     17  C   UNL     1      48.042  17.743  18.821  0.00  0.00    -0.022 A 
ATOM     18  C   UNL     1      47.012  18.805  18.876  0.00  0.00    -0.034 A 
ATOM     19  C   UNL     1      45.660  18.534  19.062  0.00  0.00    +0.113 A 
ATOM     22  C   UNL     1      44.733  19.575  19.022  0.00  0.00    +0.090 A 
ATOM     25  C   UNL     1      45.158  20.882  18.869  0.00  0.00    -0.053 A 
ATOM     26  C   UNL     1      46.512  21.162  18.783  0.00  0.00    +0.044 A 
ATOM     27  C   UNL     1      47.430  20.136  18.822  0.00  0.00    -0.095 A 
ATOM     28  C   UNL     1      48.908  20.436  18.782  0.00  0.00    +0.106 C 
ATOM     29  C   UNL     1      49.328  18.044  19.302  0.00  0.00    -0.091 A 
ATOM     30  C   UNL     1      49.645  19.464  19.705  0.00  0.00    +0.193 C 
ENDROOT
BRANCH  19  20
ATOM     20  O   UNL     1      45.215  17.281  19.347  0.00  0.00    -0.463 OA
ATOM     21  H   UNL     1      45.875  16.717  19.773  0.00  0.00    +0.384 HD
ENDBRANCH  19  20
BRANCH  22  23
ATOM     23  O   UNL     1      43.405  19.299  19.137  0.00  0.00    -0.305 OA
ATOM     24  C   UNL     1      42.498  20.391  18.963  0.00  0.00    +0.238 C 
ENDBRANCH  22  23
BRANCH   7   8
ATOM      8  O   UNL     1      48.489  14.231  17.931  0.00  0.00    -0.271 OA
BRANCH   8   9
ATOM      9  C   UNL     1      47.747  13.372  18.799  0.00  0.00    +0.391 C 
BRANCH   9  10
ATOM     10  O   UNL     1      46.423  13.206  18.287  0.00  0.00    -0.590 OA
ATOM     11  H   UNL     1      45.774  12.938  18.952  0.00  0.00    +0.397 HD
ENDBRANCH   9  10
ENDBRANCH   8   9
ENDBRANCH   7   8
BRANCH  12  13
ATOM     13  O   UNL     1      46.605  16.175  17.709  0.00  0.00    -0.276 OA
BRANCH  13  14
ATOM     14  C   UNL     1      46.589  16.226  16.280  0.00  0.00    +0.375 C 
BRANCH  14  15
ATOM     15  O   UNL     1      46.588  14.897  15.755  0.00  0.00    -0.588 OA
ATOM     16  H   UNL     1      47.096  14.266  16.284  0.00  0.00    +0.390 HD
ENDBRANCH  14  15
ENDBRANCH  13  14
ENDBRANCH  12  13
TORSDOF 8
ENDMDL
MODEL 9
REMARK VINA RESULT:      -5.0      3.013      4.292
REMARK  Name = ZINC95486343
REMARK  10 active torsions:
REMARK  status: ('A' for Active; 'I' for Inactive)
REMARK    1  A    between atoms: C1_1  and  N1_2
REMARK    2  A    between atoms: C6_7  and  O5_26
REMARK    3  A    between atoms: C7_8  and  O3_23
REMARK    4  A    between atoms: C14_16  and  O2_22
REMARK    5  A    between atoms: C15_17  and  O1_20
REMARK    6  A    between atoms: O1_20  and  C18_21
REMARK    7  A    between atoms: O3_23  and  C19_24
REMARK    8  A    between atoms: C19_24  and  O4_25
REMARK    9  A    between atoms: O5_26  and  C20_27
REMARK   10  A    between atoms: C20_27  and  O6_28
REMARK                            x       y       z     vdW  Elec       q    Type
REMARK                         _______ _______ _______ _____ _____    ______ ____
ROOT
ATOM      1  C   UNL     1      48.959  14.120  17.752  0.00  0.00    +0.196 C 
ATOM      2  N   UNL     1      49.586  15.433  17.954  0.00  0.00    -0.534 NA
ATOM      3  C   UNL     1      50.602  15.667  16.921  0.00  0.00    +0.176 C 
ATOM      4  C   UNL     1      51.446  16.882  17.262  0.00  0.00    +0.090 C 
ATOM      5  C   UNL     1      50.632  17.982  17.884  0.00  0.00    -0.031 A 
ATOM      6  C   UNL     1      51.280  19.180  18.164  0.00  0.00    -0.055 A 
ATOM      7  C   UNL     1      50.595  20.224  18.754  0.00  0.00    +0.128 A 
ATOM     12  C   UNL     1      49.244  20.082  19.058  0.00  0.00    +0.095 A 
ATOM     17  C   UNL     1      48.576  18.909  18.734  0.00  0.00    -0.022 A 
ATOM     18  C   UNL     1      47.120  18.736  18.938  0.00  0.00    -0.034 A 
ATOM     19  C   UNL     1      46.216  19.790  18.846  0.00  0.00    +0.113 A 
ATOM     22  C   UNL     1      44.869  19.574  19.130  0.00  0.00    +0.090 A 
ATOM     25  C   UNL     1      44.415  18.303  19.436  0.00  0.00    -0.053 A 
ATOM     26  C   UNL     1      45.298  17.236  19.431  0.00  0.00    +0.044 A 
ATOM     27  C   UNL     1      46.630  17.446  19.151  0.00  0.00    -0.095 A 
ATOM     28  C   UNL     1      47.587  16.282  19.091  0.00  0.00    +0.106 C 
ATOM     29  C   UNL     1      49.297  17.836  18.182  0.00  0.00    -0.091 A 
ATOM     30  C   UNL     1      48.597  16.516  17.967  0.00  0.00    +0.193 C 
ENDROOT
BRANCH  19  20
ATOM     20  O   UNL     1      46.599  21.024  18.421  0.00  0.00    -0.463 OA
ATOM     21  H   UNL     1      46.230  21.276  17.563  0.00  0.00    +0.384 HD
ENDBRANCH  19  20
BRANCH  22  23
ATOM     23  O   UNL     1      43.998  20.620  19.105  0.00  0.00    -0.305 OA
ATOM     24  C   UNL     1      42.605  20.304  19.061  0.00  0.00    +0.238 C 
ENDBRANCH  22  23
BRANCH   7   8
ATOM      8  O   UNL     1      51.237  21.389  19.041  0.00  0.00    -0.271 OA
BRANCH   8   9
ATOM      9  C   UNL     1      52.496  21.289  19.709  0.00  0.00    +0.391 C 
BRANCH   9  10
ATOM     10  O   UNL     1      52.936  22.593  20.094  0.00  0.00    -0.590 OA
ATOM     11  H   UNL     1      53.465  22.608  20.903  0.00  0.00    +0.397 HD
ENDBRANCH   9  10
ENDBRANCH   8   9
ENDBRANCH   7   8
BRANCH  12  13
ATOM     13  O   UNL     1      48.628  21.090  19.733  0.00  0.00    -0.276 OA
BRANCH  13  14
ATOM     14  C   UNL     1      48.714  21.064  21.160  0.00  0.00    +0.375 C 
BRANCH  14  15
ATOM     15  O   UNL     1      47.548  21.673  21.719  0.00  0.00    -0.588 OA
ATOM     16  H   UNL     1      46.931  22.019  21.060  0.00  0.00    +0.390 HD
ENDBRANCH  14  15
ENDBRANCH  13  14
ENDBRANCH  12  13
TORSDOF 8
ENDMDL
