MODEL 1
REMARK VINA RESULT:      -6.0      0.000      0.000
REMARK  Name = ZINC53229570
REMARK  8 active torsions:
REMARK  status: ('A' for Active; 'I' for Inactive)
REMARK    1  A    between atoms: C1_1  and  C2_2
REMARK    2  A    between atoms: C6_8  and  O3_18
REMARK    3  A    between atoms: C8_11  and  C12_16
REMARK    4  A    between atoms: C8_11  and  O2_17
REMARK    5  A    between atoms: O3_18  and  C13_19
REMARK    6  A    between atoms: C13_19  and  C14_21
REMARK    7  A    between atoms: C14_21  and  C15_22
REMARK    8  A    between atoms: C14_21  and  C16_23
REMARK                            x       y       z     vdW  Elec       q    Type
REMARK                         _______ _______ _______ _____ _____    ______ ____
ROOT
ATOM      1  C   UNL     1      44.489  17.168  22.487  0.00  0.00    +0.118 C 
ATOM      2  C   UNL     1      43.935  17.776  21.249  0.00  0.00    -0.126 C 
ATOM      3  C   UNL     1      44.358  17.451  20.026  0.00  0.00    +0.045 C 
ATOM      4  C   UNL     1      45.528  16.608  19.699  0.00  0.00    +0.233 C 
ATOM      5  C   UNL     1      45.938  16.958  18.237  0.00  0.00    +0.024 C 
ATOM      6  C   UNL     1      46.874  15.799  17.944  0.00  0.00    -0.217 C 
ATOM      7  C   UNL     1      46.363  14.734  18.836  0.00  0.00    +0.505 C 
ATOM      8  O   UNL     1      46.802  13.605  18.868  0.00  0.00    -0.442 OA
ATOM      9  C   UNL     1      47.897  15.739  17.101  0.00  0.00    +0.197 C 
ATOM     10  C   UNL     1      46.493  18.360  18.139  0.00  0.00    +0.209 C 
ATOM     17  C   UNL     1      45.343  19.357  17.996  0.00  0.00    +0.051 C 
ATOM     18  C   UNL     1      44.996  20.172  19.227  0.00  0.00    +0.167 C 
ATOM     21  C   UNL     1      45.590  21.583  19.037  0.00  0.00    +0.014 C 
ATOM     22  C   UNL     1      43.504  20.335  19.352  0.00  0.00    +0.012 C 
ATOM     23  C   UNL     1      42.683  19.782  20.213  0.00  0.00    -0.066 C 
ATOM     24  O   UNL     1      45.346  15.178  19.632  0.00  0.00    -0.320 OA
ATOM     25  C   UNL     1      42.931  18.835  21.273  0.00  0.00    +0.413 C 
ATOM     26  O   UNL     1      42.242  18.922  22.283  0.00  0.00    -0.455 OA
ENDROOT
BRANCH  18  19
ATOM     19  O   UNL     1      45.532  19.639  20.427  0.00  0.00    -0.527 OA
ATOM     20  H   UNL     1      46.495  19.543  20.418  0.00  0.00    +0.374 HD
ENDBRANCH  18  19
BRANCH  10  11
ATOM     11  O   UNL     1      47.354  18.657  19.229  0.00  0.00    -0.307 OA
BRANCH  11  12
ATOM     12  C   UNL     1      48.574  19.127  18.932  0.00  0.00    +0.468 C 
ATOM     16  O   UNL     1      49.420  18.380  18.498  0.00  0.00    -0.508 OA
BRANCH  12  13
ATOM     13  C   UNL     1      48.891  20.587  19.136  0.00  0.00    +0.027 C 
ATOM     14  C   UNL     1      50.241  20.910  18.493  0.00  0.00    +0.058 C 
ATOM     15  C   UNL     1      48.954  20.890  20.634  0.00  0.00    +0.055 C 
ENDBRANCH  12  13
ENDBRANCH  11  12
ENDBRANCH  10  11
TORSDOF 4
ENDMDL
MODEL 2
REMARK VINA RESULT:      -5.9      1.641      6.019
REMARK  Name = ZINC53229570
REMARK  8 active torsions:
REMARK  status: ('A' for Active; 'I' for Inactive)
REMARK    1  A    between atoms: C1_1  and  C2_2
REMARK    2  A    between atoms: C6_8  and  O3_18
REMARK    3  A    between atoms: C8_11  and  C12_16
REMARK    4  A    between atoms: C8_11  and  O2_17
REMARK    5  A    between atoms: O3_18  and  C13_19
REMARK    6  A    between atoms: C13_19  and  C14_21
REMARK    7  A    between atoms: C14_21  and  C15_22
REMARK    8  A    between atoms: C14_21  and  C16_23
REMARK                            x       y       z     vdW  Elec       q    Type
REMARK                         _______ _______ _______ _____ _____    ______ ____
ROOT
ATOM      1  C   UNL     1      48.579  21.382  21.366  0.00  0.00    +0.118 C 
ATOM      2  C   UNL     1      48.632  20.810  19.995  0.00  0.00    -0.126 C 
ATOM      3  C   UNL     1      47.550  20.649  19.232  0.00  0.00    +0.045 C 
ATOM      4  C   UNL     1      46.143  20.824  19.657  0.00  0.00    +0.233 C 
ATOM      5  C   UNL     1      45.268  20.022  18.648  0.00  0.00    +0.024 C 
ATOM      6  C   UNL     1      43.898  20.581  18.991  0.00  0.00    -0.217 C 
ATOM      7  C   UNL     1      44.217  21.929  19.512  0.00  0.00    +0.505 C 
ATOM      8  O   UNL     1      43.385  22.742  19.849  0.00  0.00    -0.442 OA
ATOM      9  C   UNL     1      42.705  20.016  18.859  0.00  0.00    +0.197 C 
ATOM     10  C   UNL     1      45.482  18.533  18.791  0.00  0.00    +0.209 C 
ATOM     17  C   UNL     1      46.705  18.112  17.977  0.00  0.00    +0.051 C 
ATOM     18  C   UNL     1      47.970  17.812  18.760  0.00  0.00    +0.167 C 
ATOM     21  C   UNL     1      48.113  16.278  18.847  0.00  0.00    +0.014 C 
ATOM     22  C   UNL     1      49.181  18.328  18.028  0.00  0.00    +0.012 C 
ATOM     23  C   UNL     1      49.949  19.349  18.323  0.00  0.00    -0.066 C 
ATOM     24  O   UNL     1      45.564  22.143  19.585  0.00  0.00    -0.320 OA
ATOM     25  C   UNL     1      49.865  20.309  19.397  0.00  0.00    +0.413 C 
ATOM     26  O   UNL     1      50.917  20.746  19.850  0.00  0.00    -0.455 OA
ENDROOT
BRANCH  18  19
ATOM     19  O   UNL     1      47.946  18.316  20.085  0.00  0.00    -0.527 OA
ATOM     20  H   UNL     1      48.121  19.266  20.148  0.00  0.00    +0.374 HD
ENDBRANCH  18  19
BRANCH  10  11
ATOM     11  O   UNL     1      45.562  18.146  20.155  0.00  0.00    -0.307 OA
BRANCH  11  12
ATOM     12  C   UNL     1      44.669  17.244  20.586  0.00  0.00    +0.468 C 
ATOM     16  O   UNL     1      44.757  16.091  20.234  0.00  0.00    -0.508 OA
BRANCH  12  13
ATOM     13  C   UNL     1      43.556  17.666  21.510  0.00  0.00    +0.027 C 
ATOM     14  C   UNL     1      43.975  18.924  22.272  0.00  0.00    +0.058 C 
ATOM     15  C   UNL     1      43.265  16.541  22.505  0.00  0.00    +0.055 C 
ENDBRANCH  12  13
ENDBRANCH  11  12
ENDBRANCH  10  11
TORSDOF 4
ENDMDL
MODEL 3
REMARK VINA RESULT:      -5.3      2.341      4.824
REMARK  Name = ZINC53229570
REMARK  8 active torsions:
REMARK  status: ('A' for Active; 'I' for Inactive)
REMARK    1  A    between atoms: C1_1  and  C2_2
REMARK    2  A    between atoms: C6_8  and  O3_18
REMARK    3  A    between atoms: C8_11  and  C12_16
REMARK    4  A    between atoms: C8_11  and  O2_17
REMARK    5  A    between atoms: O3_18  and  C13_19
REMARK    6  A    between atoms: C13_19  and  C14_21
REMARK    7  A    between atoms: C14_21  and  C15_22
REMARK    8  A    between atoms: C14_21  and  C16_23
REMARK                            x       y       z     vdW  Elec       q    Type
REMARK                         _______ _______ _______ _____ _____    ______ ____
ROOT
ATOM      1  C   UNL     1      43.005  20.739  19.338  0.00  0.00    +0.118 C 
ATOM      2  C   UNL     1      43.111  19.971  20.605  0.00  0.00    -0.126 C 
ATOM      3  C   UNL     1      44.103  20.143  21.480  0.00  0.00    +0.045 C 
ATOM      4  C   UNL     1      45.322  20.955  21.274  0.00  0.00    +0.233 C 
ATOM      5  C   UNL     1      46.387  20.427  22.282  0.00  0.00    +0.024 C 
ATOM      6  C   UNL     1      47.402  21.553  22.201  0.00  0.00    -0.217 C 
ATOM      7  C   UNL     1      46.571  22.716  21.816  0.00  0.00    +0.505 C 
ATOM      8  O   UNL     1      46.993  23.845  21.701  0.00  0.00    -0.442 OA
ATOM      9  C   UNL     1      48.711  21.520  22.420  0.00  0.00    +0.197 C 
ATOM     10  C   UNL     1      46.844  19.032  21.924  0.00  0.00    +0.209 C 
ATOM     17  C   UNL     1      45.869  18.010  22.505  0.00  0.00    +0.051 C 
ATOM     18  C   UNL     1      44.913  17.352  21.528  0.00  0.00    +0.167 C 
ATOM     21  C   UNL     1      45.450  15.937  21.227  0.00  0.00    +0.014 C 
ATOM     22  C   UNL     1      43.552  17.185  22.148  0.00  0.00    +0.012 C 
ATOM     23  C   UNL     1      42.440  17.831  21.885  0.00  0.00    -0.066 C 
ATOM     24  O   UNL     1      45.271  22.361  21.591  0.00  0.00    -0.320 OA
ATOM     25  C   UNL     1      42.176  18.909  20.963  0.00  0.00    +0.413 C 
ATOM     26  O   UNL     1      41.072  18.941  20.431  0.00  0.00    -0.455 OA
ENDROOT
BRANCH  18  19
ATOM     19  O   UNL     1      44.808  18.041  20.293  0.00  0.00    -0.527 OA
ATOM     20  H   UNL     1      45.624  18.481  20.017  0.00  0.00    +0.374 HD
ENDBRANCH  18  19
BRANCH  10  11
ATOM     11  O   UNL     1      47.031  18.889  20.524  0.00  0.00    -0.307 OA
BRANCH  11  12
ATOM     12  C   UNL     1      48.267  18.585  20.102  0.00  0.00    +0.468 C 
ATOM     16  O   UNL     1      48.847  17.631  20.567  0.00  0.00    -0.508 OA
BRANCH  12  13
ATOM     13  C   UNL     1      48.934  19.430  19.047  0.00  0.00    +0.027 C 
ATOM     14  C   UNL     1      50.331  19.833  19.523  0.00  0.00    +0.058 C 
ATOM     15  C   UNL     1      48.099  20.687  18.799  0.00  0.00    +0.055 C 
ENDBRANCH  12  13
ENDBRANCH  11  12
ENDBRANCH  10  11
TORSDOF 4
ENDMDL
MODEL 4
REMARK VINA RESULT:      -5.2      3.156      6.618
REMARK  Name = ZINC53229570
REMARK  8 active torsions:
REMARK  status: ('A' for Active; 'I' for Inactive)
REMARK    1  A    between atoms: C1_1  and  C2_2
REMARK    2  A    between atoms: C6_8  and  O3_18
REMARK    3  A    between atoms: C8_11  and  C12_16
REMARK    4  A    between atoms: C8_11  and  O2_17
REMARK    5  A    between atoms: O3_18  and  C13_19
REMARK    6  A    between atoms: C13_19  and  C14_21
REMARK    7  A    between atoms: C14_21  and  C15_22
REMARK    8  A    between atoms: C14_21  and  C16_23
REMARK                            x       y       z     vdW  Elec       q    Type
REMARK                         _______ _______ _______ _____ _____    ______ ____
ROOT
ATOM      1  C   UNL     1      51.953  18.308  15.797  0.00  0.00    +0.118 C 
ATOM      2  C   UNL     1      51.815  19.060  17.071  0.00  0.00    -0.126 C 
ATOM      3  C   UNL     1      51.819  18.472  18.268  0.00  0.00    +0.045 C 
ATOM      4  C   UNL     1      51.774  17.017  18.529  0.00  0.00    +0.233 C 
ATOM      5  C   UNL     1      51.253  16.840  19.987  0.00  0.00    +0.024 C 
ATOM      6  C   UNL     1      51.601  15.379  20.212  0.00  0.00    -0.217 C 
ATOM      7  C   UNL     1      52.753  15.175  19.305  0.00  0.00    +0.505 C 
ATOM      8  O   UNL     1      53.378  14.140  19.224  0.00  0.00    -0.442 OA
ATOM      9  C   UNL     1      51.028  14.495  21.019  0.00  0.00    +0.197 C 
ATOM     10  C   UNL     1      49.804  17.250  20.110  0.00  0.00    +0.209 C 
ATOM     17  C   UNL     1      49.717  18.761  20.322  0.00  0.00    +0.051 C 
ATOM     18  C   UNL     1      49.278  19.590  19.129  0.00  0.00    +0.167 C 
ATOM     21  C   UNL     1      47.798  19.971  19.343  0.00  0.00    +0.014 C 
ATOM     22  C   UNL     1      50.059  20.875  19.060  0.00  0.00    +0.012 C 
ATOM     23  C   UNL     1      50.994  21.227  18.209  0.00  0.00    -0.066 C 
ATOM     24  O   UNL     1      53.018  16.287  18.558  0.00  0.00    -0.320 OA
ATOM     25  C   UNL     1      51.589  20.502  17.113  0.00  0.00    +0.413 C 
ATOM     26  O   UNL     1      51.936  21.146  16.129  0.00  0.00    -0.455 OA
ENDROOT
BRANCH  18  19
ATOM     19  O   UNL     1      49.368  18.895  17.897  0.00  0.00    -0.527 OA
ATOM     20  H   UNL     1      48.648  18.266  17.747  0.00  0.00    +0.374 HD
ENDBRANCH  18  19
BRANCH  10  11
ATOM     11  O   UNL     1      49.039  16.800  19.001  0.00  0.00    -0.307 OA
BRANCH  11  12
ATOM     12  C   UNL     1      47.951  16.064  19.271  0.00  0.00    +0.468 C 
ATOM     16  O   UNL     1      47.729  15.706  20.404  0.00  0.00    -0.508 OA
BRANCH  12  13
ATOM     13  C   UNL     1      47.003  15.684  18.162  0.00  0.00    +0.027 C 
ATOM     14  C   UNL     1      46.361  16.947  17.585  0.00  0.00    +0.058 C 
ATOM     15  C   UNL     1      45.913  14.765  18.715  0.00  0.00    +0.055 C 
ENDBRANCH  12  13
ENDBRANCH  11  12
ENDBRANCH  10  11
TORSDOF 4
ENDMDL
MODEL 5
REMARK VINA RESULT:      -5.2      1.811      6.302
REMARK  Name = ZINC53229570
REMARK  8 active torsions:
REMARK  status: ('A' for Active; 'I' for Inactive)
REMARK    1  A    between atoms: C1_1  and  C2_2
REMARK    2  A    between atoms: C6_8  and  O3_18
REMARK    3  A    between atoms: C8_11  and  C12_16
REMARK    4  A    between atoms: C8_11  and  O2_17
REMARK    5  A    between atoms: O3_18  and  C13_19
REMARK    6  A    between atoms: C13_19  and  C14_21
REMARK    7  A    between atoms: C14_21  and  C15_22
REMARK    8  A    between atoms: C14_21  and  C16_23
REMARK                            x       y       z     vdW  Elec       q    Type
REMARK                         _______ _______ _______ _____ _____    ______ ____
ROOT
ATOM      1  C   UNL     1      50.417  20.703  20.665  0.00  0.00    +0.118 C 
ATOM      2  C   UNL     1      50.165  20.309  19.254  0.00  0.00    -0.126 C 
ATOM      3  C   UNL     1      48.942  20.106  18.762  0.00  0.00    +0.045 C 
ATOM      4  C   UNL     1      47.683  20.053  19.538  0.00  0.00    +0.233 C 
ATOM      5  C   UNL     1      46.653  19.274  18.667  0.00  0.00    +0.024 C 
ATOM      6  C   UNL     1      45.374  19.614  19.411  0.00  0.00    -0.217 C 
ATOM      7  C   UNL     1      45.693  20.920  20.030  0.00  0.00    +0.505 C 
ATOM      8  O   UNL     1      44.906  21.577  20.674  0.00  0.00    -0.442 OA
ATOM      9  C   UNL     1      44.243  18.925  19.493  0.00  0.00    +0.197 C 
ATOM     10  C   UNL     1      47.031  17.817  18.534  0.00  0.00    +0.209 C 
ATOM     17  C   UNL     1      48.035  17.651  17.394  0.00  0.00    +0.051 C 
ATOM     18  C   UNL     1      49.480  17.420  17.793  0.00  0.00    +0.167 C 
ATOM     21  C   UNL     1      49.779  15.916  17.617  0.00  0.00    +0.014 C 
ATOM     22  C   UNL     1      50.410  18.165  16.872  0.00  0.00    +0.012 C 
ATOM     23  C   UNL     1      51.133  19.232  17.117  0.00  0.00    -0.066 C 
ATOM     24  O   UNL     1      46.988  21.289  19.803  0.00  0.00    -0.320 OA
ATOM     25  C   UNL     1      51.242  20.040  18.307  0.00  0.00    +0.413 C 
ATOM     26  O   UNL     1      52.332  20.547  18.549  0.00  0.00    -0.455 OA
ENDROOT
BRANCH  18  19
ATOM     19  O   UNL     1      49.754  17.756  19.143  0.00  0.00    -0.527 OA
ATOM     20  H   UNL     1      49.064  18.290  19.562  0.00  0.00    +0.374 HD
ENDBRANCH  18  19
BRANCH  10  11
ATOM     11  O   UNL     1      47.494  17.285  19.766  0.00  0.00    -0.307 OA
BRANCH  11  12
ATOM     12  C   UNL     1      47.046  16.069  20.112  0.00  0.00    +0.468 C 
ATOM     16  O   UNL     1      47.780  15.293  20.678  0.00  0.00    -0.508 OA
BRANCH  12  13
ATOM     13  C   UNL     1      45.627  15.670  19.796  0.00  0.00    +0.027 C 
ATOM     14  C   UNL     1      44.800  15.665  21.082  0.00  0.00    +0.058 C 
ATOM     15  C   UNL     1      45.616  14.271  19.177  0.00  0.00    +0.055 C 
ENDBRANCH  12  13
ENDBRANCH  11  12
ENDBRANCH  10  11
TORSDOF 4
ENDMDL
MODEL 6
REMARK VINA RESULT:      -5.1     21.268     23.721
REMARK  Name = ZINC53229570
REMARK  8 active torsions:
REMARK  status: ('A' for Active; 'I' for Inactive)
REMARK    1  A    between atoms: C1_1  and  C2_2
REMARK    2  A    between atoms: C6_8  and  O3_18
REMARK    3  A    between atoms: C8_11  and  C12_16
REMARK    4  A    between atoms: C8_11  and  O2_17
REMARK    5  A    between atoms: O3_18  and  C13_19
REMARK    6  A    between atoms: C13_19  and  C14_21
REMARK    7  A    between atoms: C14_21  and  C15_22
REMARK    8  A    between atoms: C14_21  and  C16_23
REMARK                            x       y       z     vdW  Elec       q    Type
REMARK                         _______ _______ _______ _____ _____    ______ ____
ROOT
ATOM      1  C   UNL     1      54.760  35.399   6.303  0.00  0.00    +0.118 C 
ATOM      2  C   UNL     1      53.901  34.208   6.073  0.00  0.00    -0.126 C 
ATOM      3  C   UNL     1      54.293  33.157   5.353  0.00  0.00    +0.045 C 
ATOM      4  C   UNL     1      55.521  33.064   4.532  0.00  0.00    +0.233 C 
ATOM      5  C   UNL     1      55.278  31.933   3.489  0.00  0.00    +0.024 C 
ATOM      6  C   UNL     1      56.698  31.727   2.993  0.00  0.00    -0.217 C 
ATOM      7  C   UNL     1      57.514  32.149   4.154  0.00  0.00    +0.505 C 
ATOM      8  O   UNL     1      58.722  32.083   4.196  0.00  0.00    -0.442 OA
ATOM      9  C   UNL     1      57.120  31.280   1.817  0.00  0.00    +0.197 C 
ATOM     10  C   UNL     1      54.224  32.328   2.479  0.00  0.00    +0.209 C 
ATOM     17  C   UNL     1      52.837  32.027   3.045  0.00  0.00    +0.051 C 
ATOM     18  C   UNL     1      52.030  33.217   3.530  0.00  0.00    +0.167 C 
ATOM     21  C   UNL     1      50.979  33.542   2.448  0.00  0.00    +0.014 C 
ATOM     22  C   UNL     1      51.277  32.870   4.787  0.00  0.00    +0.012 C 
ATOM     23  C   UNL     1      51.497  33.270   6.017  0.00  0.00    -0.066 C 
ATOM     24  O   UNL     1      56.742  32.636   5.170  0.00  0.00    -0.320 OA
ATOM     25  C   UNL     1      52.527  34.123   6.558  0.00  0.00    +0.413 C 
ATOM     26  O   UNL     1      52.229  34.841   7.506  0.00  0.00    -0.455 OA
ENDROOT
BRANCH  18  19
ATOM     19  O   UNL     1      52.811  34.383   3.732  0.00  0.00    -0.527 OA
ATOM     20  H   UNL     1      52.769  35.016   3.002  0.00  0.00    +0.374 HD
ENDBRANCH  18  19
BRANCH  10  11
ATOM     11  O   UNL     1      54.377  33.678   2.069  0.00  0.00    -0.307 OA
BRANCH  11  12
ATOM     12  C   UNL     1      54.612  33.896   0.766  0.00  0.00    +0.468 C 
ATOM     16  O   UNL     1      53.903  33.387  -0.069  0.00  0.00    -0.508 OA
BRANCH  12  13
ATOM     13  C   UNL     1      55.760  34.778   0.345  0.00  0.00    +0.027 C 
ATOM     14  C   UNL     1      56.644  34.023  -0.649  0.00  0.00    +0.058 C 
ATOM     15  C   UNL     1      56.586  35.161   1.573  0.00  0.00    +0.055 C 
ENDBRANCH  12  13
ENDBRANCH  11  12
ENDBRANCH  10  11
TORSDOF 4
ENDMDL
MODEL 7
REMARK VINA RESULT:      -5.1      1.735      4.602
REMARK  Name = ZINC53229570
REMARK  8 active torsions:
REMARK  status: ('A' for Active; 'I' for Inactive)
REMARK    1  A    between atoms: C1_1  and  C2_2
REMARK    2  A    between atoms: C6_8  and  O3_18
REMARK    3  A    between atoms: C8_11  and  C12_16
REMARK    4  A    between atoms: C8_11  and  O2_17
REMARK    5  A    between atoms: O3_18  and  C13_19
REMARK    6  A    between atoms: C13_19  and  C14_21
REMARK    7  A    between atoms: C14_21  and  C15_22
REMARK    8  A    between atoms: C14_21  and  C16_23
REMARK                            x       y       z     vdW  Elec       q    Type
REMARK                         _______ _______ _______ _____ _____    ______ ____
ROOT
ATOM      1  C   UNL     1      44.056  19.779  18.792  0.00  0.00    +0.118 C 
ATOM      2  C   UNL     1      44.450  18.992  19.989  0.00  0.00    -0.126 C 
ATOM      3  C   UNL     1      45.720  18.734  20.304  0.00  0.00    +0.045 C 
ATOM      4  C   UNL     1      46.906  19.008  19.462  0.00  0.00    +0.233 C 
ATOM      5  C   UNL     1      48.043  18.074  19.974  0.00  0.00    +0.024 C 
ATOM      6  C   UNL     1      49.234  18.712  19.282  0.00  0.00    -0.217 C 
ATOM      7  C   UNL     1      48.803  20.120  19.122  0.00  0.00    +0.505 C 
ATOM      8  O   UNL     1      49.500  20.995  18.659  0.00  0.00    -0.442 OA
ATOM      9  C   UNL     1      50.383  18.162  18.910  0.00  0.00    +0.197 C 
ATOM     10  C   UNL     1      47.743  16.623  19.675  0.00  0.00    +0.209 C 
ATOM     17  C   UNL     1      46.854  16.048  20.776  0.00  0.00    +0.051 C 
ATOM     18  C   UNL     1      45.390  15.849  20.430  0.00  0.00    +0.167 C 
ATOM     21  C   UNL     1      45.174  14.347  20.152  0.00  0.00    +0.014 C 
ATOM     22  C   UNL     1      44.514  16.211  21.601  0.00  0.00    +0.012 C 
ATOM     23  C   UNL     1      43.726  17.249  21.751  0.00  0.00    -0.066 C 
ATOM     24  O   UNL     1      47.519  20.311  19.545  0.00  0.00    -0.320 OA
ATOM     25  C   UNL     1      43.475  18.372  20.881  0.00  0.00    +0.413 C 
ATOM     26  O   UNL     1      42.346  18.852  20.886  0.00  0.00    -0.455 OA
ENDROOT
BRANCH  18  19
ATOM     19  O   UNL     1      44.982  16.562  19.274  0.00  0.00    -0.527 OA
ATOM     20  H   UNL     1      45.655  16.603  18.580  0.00  0.00    +0.374 HD
ENDBRANCH  18  19
BRANCH  10  11
ATOM     11  O   UNL     1      47.195  16.461  18.376  0.00  0.00    -0.307 OA
BRANCH  11  12
ATOM     12  C   UNL     1      47.695  15.470  17.622  0.00  0.00    +0.468 C 
ATOM     16  O   UNL     1      47.136  15.147  16.601  0.00  0.00    -0.508 OA
BRANCH  12  13
ATOM     13  C   UNL     1      48.956  14.762  18.048  0.00  0.00    +0.027 C 
ATOM     14  C   UNL     1      50.039  14.965  16.987  0.00  0.00    +0.058 C 
ATOM     15  C   UNL     1      48.672  13.267  18.206  0.00  0.00    +0.055 C 
ENDBRANCH  12  13
ENDBRANCH  11  12
ENDBRANCH  10  11
TORSDOF 4
ENDMDL
MODEL 8
REMARK VINA RESULT:      -5.0      2.653      6.290
REMARK  Name = ZINC53229570
REMARK  8 active torsions:
REMARK  status: ('A' for Active; 'I' for Inactive)
REMARK    1  A    between atoms: C1_1  and  C2_2
REMARK    2  A    between atoms: C6_8  and  O3_18
REMARK    3  A    between atoms: C8_11  and  C12_16
REMARK    4  A    between atoms: C8_11  and  O2_17
REMARK    5  A    between atoms: O3_18  and  C13_19
REMARK    6  A    between atoms: C13_19  and  C14_21
REMARK    7  A    between atoms: C14_21  and  C15_22
REMARK    8  A    between atoms: C14_21  and  C16_23
REMARK                            x       y       z     vdW  Elec       q    Type
REMARK                         _______ _______ _______ _____ _____    ______ ____
ROOT
ATOM      1  C   UNL     1      49.706  20.779  21.117  0.00  0.00    +0.118 C 
ATOM      2  C   UNL     1      50.325  20.546  19.786  0.00  0.00    -0.126 C 
ATOM      3  C   UNL     1      49.704  19.902  18.797  0.00  0.00    +0.045 C 
ATOM      4  C   UNL     1      48.422  19.170  18.897  0.00  0.00    +0.233 C 
ATOM      5  C   UNL     1      48.386  18.165  17.707  0.00  0.00    +0.024 C 
ATOM      6  C   UNL     1      46.919  17.775  17.740  0.00  0.00    -0.217 C 
ATOM      7  C   UNL     1      46.278  18.969  18.336  0.00  0.00    +0.505 C 
ATOM      8  O   UNL     1      45.083  19.094  18.486  0.00  0.00    -0.442 OA
ATOM      9  C   UNL     1      46.341  16.651  17.336  0.00  0.00    +0.197 C 
ATOM     10  C   UNL     1      49.415  17.070  17.877  0.00  0.00    +0.209 C 
ATOM     17  C   UNL     1      50.767  17.554  17.354  0.00  0.00    +0.051 C 
ATOM     18  C   UNL     1      51.802  17.930  18.397  0.00  0.00    +0.167 C 
ATOM     21  C   UNL     1      52.811  16.767  18.496  0.00  0.00    +0.014 C 
ATOM     22  C   UNL     1      52.574  19.148  17.964  0.00  0.00    +0.012 C 
ATOM     23  C   UNL     1      52.519  20.371  18.436  0.00  0.00    -0.066 C 
ATOM     24  O   UNL     1      47.196  19.907  18.712  0.00  0.00    -0.320 OA
ATOM     25  C   UNL     1      51.696  20.940  19.475  0.00  0.00    +0.413 C 
ATOM     26  O   UNL     1      52.184  21.833  20.159  0.00  0.00    -0.455 OA
ENDROOT
BRANCH  18  19
ATOM     19  O   UNL     1      51.253  18.132  19.689  0.00  0.00    -0.527 OA
ATOM     20  H   UNL     1      51.668  17.598  20.380  0.00  0.00    +0.374 HD
ENDBRANCH  18  19
BRANCH  10  11
ATOM     11  O   UNL     1      49.470  16.610  19.219  0.00  0.00    -0.307 OA
BRANCH  11  12
ATOM     12  C   UNL     1      49.199  15.314  19.430  0.00  0.00    +0.468 C 
ATOM     16  O   UNL     1      49.956  14.465  19.023  0.00  0.00    -0.508 OA
BRANCH  12  13
ATOM     13  C   UNL     1      47.951  14.916  20.177  0.00  0.00    +0.027 C 
ATOM     14  C   UNL     1      47.451  16.103  21.003  0.00  0.00    +0.058 C 
ATOM     15  C   UNL     1      48.267  13.745  21.109  0.00  0.00    +0.055 C 
ENDBRANCH  12  13
ENDBRANCH  11  12
ENDBRANCH  10  11
TORSDOF 4
ENDMDL
MODEL 9
REMARK VINA RESULT:      -5.0      1.935      3.115
REMARK  Name = ZINC53229570
REMARK  8 active torsions:
REMARK  status: ('A' for Active; 'I' for Inactive)
REMARK    1  A    between atoms: C1_1  and  C2_2
REMARK    2  A    between atoms: C6_8  and  O3_18
REMARK    3  A    between atoms: C8_11  and  C12_16
REMARK    4  A    between atoms: C8_11  and  O2_17
REMARK    5  A    between atoms: O3_18  and  C13_19
REMARK    6  A    between atoms: C13_19  and  C14_21
REMARK    7  A    between atoms: C14_21  and  C15_22
REMARK    8  A    between atoms: C14_21  and  C16_23
REMARK                            x       y       z     vdW  Elec       q    Type
REMARK                         _______ _______ _______ _____ _____    ______ ____
ROOT
ATOM      1  C   UNL     1      45.704  14.882  21.963  0.00  0.00    +0.118 C 
ATOM      2  C   UNL     1      45.085  15.743  20.922  0.00  0.00    -0.126 C 
ATOM      3  C   UNL     1      45.218  15.515  19.614  0.00  0.00    +0.045 C 
ATOM      4  C   UNL     1      46.118  14.523  18.985  0.00  0.00    +0.233 C 
ATOM      5  C   UNL     1      46.336  14.987  17.514  0.00  0.00    +0.024 C 
ATOM      6  C   UNL     1      46.950  13.726  16.932  0.00  0.00    -0.217 C 
ATOM      7  C   UNL     1      46.391  12.662  17.796  0.00  0.00    +0.505 C 
ATOM      8  O   UNL     1      46.589  11.478  17.631  0.00  0.00    -0.442 OA
ATOM      9  C   UNL     1      47.780  13.594  15.905  0.00  0.00    +0.197 C 
ATOM     10  C   UNL     1      47.142  16.263  17.450  0.00  0.00    +0.209 C 
ATOM     17  C   UNL     1      46.213  17.464  17.631  0.00  0.00    +0.051 C 
ATOM     18  C   UNL     1      46.255  18.155  18.981  0.00  0.00    +0.167 C 
ATOM     21  C   UNL     1      47.085  19.446  18.820  0.00  0.00    +0.014 C 
ATOM     22  C   UNL     1      44.872  18.570  19.406  0.00  0.00    +0.012 C 
ATOM     23  C   UNL     1      44.114  18.066  20.351  0.00  0.00    -0.066 C 
ATOM     24  O   UNL     1      45.637  13.174  18.813  0.00  0.00    -0.320 OA
ATOM     25  C   UNL     1      44.339  16.955  21.244  0.00  0.00    +0.413 C 
ATOM     26  O   UNL     1      43.864  17.030  22.372  0.00  0.00    -0.455 OA
ENDROOT
BRANCH  18  19
ATOM     19  O   UNL     1      46.867  17.376  19.995  0.00  0.00    -0.527 OA
ATOM     20  H   UNL     1      47.616  16.847  19.686  0.00  0.00    +0.374 HD
ENDBRANCH  18  19
BRANCH  10  11
ATOM     11  O   UNL     1      48.217  16.247  18.376  0.00  0.00    -0.307 OA
BRANCH  11  12
ATOM     12  C   UNL     1      49.451  16.423  17.881  0.00  0.00    +0.468 C 
ATOM     16  O   UNL     1      49.695  17.386  17.193  0.00  0.00    -0.508 OA
BRANCH  12  13
ATOM     13  C   UNL     1      50.535  15.420  18.183  0.00  0.00    +0.027 C 
ATOM     14  C   UNL     1      51.089  14.857  16.873  0.00  0.00    +0.058 C 
ATOM     15  C   UNL     1      49.955  14.280  19.022  0.00  0.00    +0.055 C 
ENDBRANCH  12  13
ENDBRANCH  11  12
ENDBRANCH  10  11
TORSDOF 4
ENDMDL
