MODEL 1
REMARK VINA RESULT:      -7.5      0.000      0.000
REMARK  Name = ZINC95486207
REMARK  13 active torsions:
REMARK  status: ('A' for Active; 'I' for Inactive)
REMARK    1  A    between atoms: C1_1  and  N1_2
REMARK    2  A    between atoms: C6_8  and  O6_47
REMARK    3  A    between atoms: C7_9  and  O5_46
REMARK    4  A    between atoms: C15_18  and  O4_44
REMARK    5  A    between atoms: C16_19  and  O3_42
REMARK    6  A    between atoms: C17_20  and  O1_21
REMARK    7  A    between atoms: O1_21  and  C18_22
REMARK    8  A    between atoms: C24_28  and  C27_33
REMARK    9  A    between atoms: C27_33  and  C28_34
REMARK   10  A    between atoms: C31_37  and  O2_40
REMARK   11  A    between atoms: O2_40  and  C34_41
REMARK   12  A    between atoms: O3_42  and  C35_43
REMARK   13  A    between atoms: O4_44  and  C36_45
REMARK                            x       y       z     vdW  Elec       q    Type
REMARK                         _______ _______ _______ _____ _____    ______ ____
ROOT
ATOM      1  C   UNL     1      48.322  15.550  22.232  0.00  0.00    +0.333 C 
ATOM      2  N   UNL     1      47.601  14.639  21.332  0.00  0.00    -0.372 N 
ATOM      3  H   UNL     1      47.809  13.684  21.584  0.00  0.00    +0.434 HD
ATOM      4  C   UNL     1      46.161  14.873  21.455  0.00  0.00    +0.239 C 
ATOM      5  C   UNL     1      45.406  13.756  20.733  0.00  0.00    +0.142 C 
ATOM      6  C   UNL     1      45.941  13.606  19.331  0.00  0.00    -0.074 A 
ATOM      7  C   UNL     1      45.176  12.925  18.397  0.00  0.00    +0.027 A 
ATOM      8  C   UNL     1      45.634  12.764  17.101  0.00  0.00    +0.113 A 
ATOM     11  C   UNL     1      46.870  13.290  16.739  0.00  0.00    +0.101 A 
ATOM     14  C   UNL     1      47.629  13.970  17.674  0.00  0.00    +0.042 A 
ATOM     15  C   UNL     1      47.165  14.130  18.973  0.00  0.00    -0.114 A 
ATOM     16  C   UNL     1      45.767  16.201  20.870  0.00  0.00    -0.068 A 
ATOM     17  C   UNL     1      44.528  16.728  21.204  0.00  0.00    -0.030 A 
ATOM     18  C   UNL     1      44.121  17.948  20.690  0.00  0.00    +0.140 A 
ATOM     21  C   UNL     1      44.958  18.651  19.832  0.00  0.00    +0.087 A 
ATOM     24  C   UNL     1      46.205  18.146  19.539  0.00  0.00    +0.122 A 
ATOM     46  C   UNL     1      46.606  16.915  20.047  0.00  0.00    -0.118 A 
ATOM     47  C   UNL     1      47.960  16.380  19.661  0.00  0.00    +0.145 C 
ATOM     48  C   UNL     1      48.024  14.881  19.952  0.00  0.00    +0.238 C 
ENDROOT
BRANCH   8   9
ATOM      9  O   UNL     1      44.880  12.095  16.187  0.00  0.00    -0.481 OA
ATOM     10  H   UNL     1      44.886  12.493  15.306  0.00  0.00    +0.399 HD
ENDBRANCH   8   9
BRANCH  11  12
ATOM     12  O   UNL     1      47.331  13.136  15.468  0.00  0.00    -0.479 OA
ATOM     13  H   UNL     1      48.296  13.120  15.399  0.00  0.00    +0.397 HD
ENDBRANCH  11  12
BRANCH  18  19
ATOM     19  O   UNL     1      42.904  18.455  21.023  0.00  0.00    -0.292 OA
ATOM     20  C   UNL     1      42.738  18.919  22.364  0.00  0.00    +0.256 C 
ENDBRANCH  18  19
BRANCH  21  22
ATOM     22  O   UNL     1      44.564  19.849  19.321  0.00  0.00    -0.315 OA
ATOM     23  C   UNL     1      44.865  21.013  20.092  0.00  0.00    +0.246 C 
ENDBRANCH  21  22
BRANCH  24  25
ATOM     25  O   UNL     1      47.032  18.839  18.711  0.00  0.00    -0.249 OA
BRANCH  25  26
ATOM     26  C   UNL     1      48.135  19.420  19.250  0.00  0.00    +0.116 A 
ATOM     27  C   UNL     1      48.257  19.541  20.627  0.00  0.00    -0.063 A 
ATOM     28  C   UNL     1      49.381  20.130  21.166  0.00  0.00    +0.040 A 
ATOM     29  C   UNL     1      50.391  20.602  20.341  0.00  0.00    -0.097 A 
ATOM     30  C   UNL     1      50.272  20.487  18.972  0.00  0.00    -0.070 A 
ATOM     31  C   UNL     1      51.337  20.996  18.036  0.00  0.00    +0.231 C 
ATOM     41  N   UNL     1      52.596  21.205  18.756  0.00  0.00    -0.665 NA
ATOM     42  H   UNL     1      53.016  20.325  19.013  0.00  0.00    +0.344 HD
ATOM     43  C   UNL     1      52.374  22.050  19.940  0.00  0.00    +0.219 C 
ATOM     44  C   UNL     1      51.602  21.234  20.978  0.00  0.00    +0.040 C 
ATOM     45  C   UNL     1      49.146  19.888  18.426  0.00  0.00    +0.006 A 
BRANCH  31  32
ATOM     32  C   UNL     1      51.558  19.974  16.919  0.00  0.00    +0.085 C 
BRANCH  32  33
ATOM     33  C   UNL     1      51.753  18.607  17.521  0.00  0.00    -0.113 A 
ATOM     34  C   UNL     1      50.993  17.541  17.075  0.00  0.00    +0.045 A 
ATOM     35  C   UNL     1      51.170  16.287  17.627  0.00  0.00    -0.024 A 
ATOM     36  C   UNL     1      52.110  16.097  18.629  0.00  0.00    +0.127 A 
ATOM     39  C   UNL     1      52.871  17.168  19.075  0.00  0.00    -0.080 A 
ATOM     40  C   UNL     1      52.695  18.419  18.516  0.00  0.00    +0.068 A 
BRANCH  36  37
ATOM     37  O   UNL     1      52.286  14.864  19.173  0.00  0.00    -0.319 OA
ATOM     38  C   UNL     1      51.599  13.777  18.552  0.00  0.00    +0.240 C 
ENDBRANCH  36  37
ENDBRANCH  32  33
ENDBRANCH  31  32
ENDBRANCH  25  26
ENDBRANCH  24  25
TORSDOF 9
ENDMDL
MODEL 2
REMARK VINA RESULT:      -7.3      2.725      5.803
REMARK  Name = ZINC95486207
REMARK  13 active torsions:
REMARK  status: ('A' for Active; 'I' for Inactive)
REMARK    1  A    between atoms: C1_1  and  N1_2
REMARK    2  A    between atoms: C6_8  and  O6_47
REMARK    3  A    between atoms: C7_9  and  O5_46
REMARK    4  A    between atoms: C15_18  and  O4_44
REMARK    5  A    between atoms: C16_19  and  O3_42
REMARK    6  A    between atoms: C17_20  and  O1_21
REMARK    7  A    between atoms: O1_21  and  C18_22
REMARK    8  A    between atoms: C24_28  and  C27_33
REMARK    9  A    between atoms: C27_33  and  C28_34
REMARK   10  A    between atoms: C31_37  and  O2_40
REMARK   11  A    between atoms: O2_40  and  C34_41
REMARK   12  A    between atoms: O3_42  and  C35_43
REMARK   13  A    between atoms: O4_44  and  C36_45
REMARK                            x       y       z     vdW  Elec       q    Type
REMARK                         _______ _______ _______ _____ _____    ______ ____
ROOT
ATOM      1  C   UNL     1      52.115  10.278  18.992  0.00  0.00    +0.333 C 
ATOM      2  N   UNL     1      51.493  10.495  17.679  0.00  0.00    -0.372 N 
ATOM      3  H   UNL     1      51.572   9.654  17.126  0.00  0.00    +0.434 HD
ATOM      4  C   UNL     1      50.079  10.827  17.859  0.00  0.00    +0.239 C 
ATOM      5  C   UNL     1      49.375  10.787  16.503  0.00  0.00    +0.142 C 
ATOM      6  C   UNL     1      50.136  11.629  15.510  0.00  0.00    -0.074 A 
ATOM      7  C   UNL     1      49.496  12.028  14.348  0.00  0.00    +0.027 A 
ATOM      8  C   UNL     1      50.163  12.799  13.411  0.00  0.00    +0.113 A 
ATOM     11  C   UNL     1      51.483  13.172  13.643  0.00  0.00    +0.101 A 
ATOM     14  C   UNL     1      52.117  12.772  14.805  0.00  0.00    +0.042 A 
ATOM     15  C   UNL     1      51.444  12.000  15.743  0.00  0.00    -0.114 A 
ATOM     16  C   UNL     1      49.906  12.190  18.471  0.00  0.00    -0.068 A 
ATOM     17  C   UNL     1      48.675  12.516  19.022  0.00  0.00    -0.030 A 
ATOM     18  C   UNL     1      48.469  13.760  19.596  0.00  0.00    +0.140 A 
ATOM     21  C   UNL     1      49.501  14.690  19.621  0.00  0.00    +0.087 A 
ATOM     24  C   UNL     1      50.735  14.346  19.114  0.00  0.00    +0.122 A 
ATOM     46  C   UNL     1      50.935  13.102  18.527  0.00  0.00    -0.118 A 
ATOM     47  C   UNL     1      52.287  12.787  17.942  0.00  0.00    +0.145 C 
ATOM     48  C   UNL     1      52.174  11.594  16.993  0.00  0.00    +0.238 C 
ENDROOT
BRANCH   8   9
ATOM      9  O   UNL     1      49.532  13.189  12.271  0.00  0.00    -0.481 OA
ATOM     10  H   UNL     1      49.506  12.509  11.584  0.00  0.00    +0.399 HD
ENDBRANCH   8   9
BRANCH  11  12
ATOM     12  O   UNL     1      52.149  13.928  12.729  0.00  0.00    -0.479 OA
ATOM     13  H   UNL     1      52.065  14.881  12.871  0.00  0.00    +0.397 HD
ENDBRANCH  11  12
BRANCH  18  19
ATOM     19  O   UNL     1      47.259  14.070  20.132  0.00  0.00    -0.292 OA
ATOM     20  C   UNL     1      46.205  14.385  19.220  0.00  0.00    +0.256 C 
ENDBRANCH  18  19
BRANCH  21  22
ATOM     22  O   UNL     1      49.306  15.914  20.181  0.00  0.00    -0.315 OA
ATOM     23  C   UNL     1      49.525  16.027  21.588  0.00  0.00    +0.246 C 
ENDBRANCH  21  22
BRANCH  24  25
ATOM     25  O   UNL     1      51.750  15.250  19.149  0.00  0.00    -0.249 OA
BRANCH  25  26
ATOM     26  C   UNL     1      51.661  16.341  18.345  0.00  0.00    +0.116 A 
ATOM     27  C   UNL     1      51.679  16.195  16.966  0.00  0.00    -0.063 A 
ATOM     28  C   UNL     1      51.585  17.308  16.157  0.00  0.00    +0.040 A 
ATOM     29  C   UNL     1      51.473  18.573  16.714  0.00  0.00    -0.097 A 
ATOM     30  C   UNL     1      51.458  18.723  18.085  0.00  0.00    -0.070 A 
ATOM     31  C   UNL     1      51.350  20.078  18.735  0.00  0.00    +0.231 C 
ATOM     41  N   UNL     1      50.859  21.071  17.776  0.00  0.00    -0.665 NA
ATOM     42  H   UNL     1      49.885  20.917  17.563  0.00  0.00    +0.344 HD
ATOM     43  C   UNL     1      51.676  21.047  16.552  0.00  0.00    +0.219 C 
ATOM     44  C   UNL     1      51.368  19.758  15.789  0.00  0.00    +0.040 C 
ATOM     45  C   UNL     1      51.544  17.605  18.901  0.00  0.00    +0.006 A 
BRANCH  31  32
ATOM     32  C   UNL     1      50.381  19.995  19.917  0.00  0.00    +0.085 C 
BRANCH  32  33
ATOM     33  C   UNL     1      48.969  19.884  19.401  0.00  0.00    -0.113 A 
ATOM     34  C   UNL     1      48.510  18.681  18.898  0.00  0.00    +0.045 A 
ATOM     35  C   UNL     1      47.216  18.578  18.425  0.00  0.00    -0.024 A 
ATOM     36  C   UNL     1      46.379  19.683  18.452  0.00  0.00    +0.127 A 
ATOM     39  C   UNL     1      46.842  20.890  18.955  0.00  0.00    -0.080 A 
ATOM     40  C   UNL     1      48.134  20.986  19.434  0.00  0.00    +0.068 A 
BRANCH  36  37
ATOM     37  O   UNL     1      45.106  19.584  17.985  0.00  0.00    -0.319 OA
ATOM     38  C   UNL     1      44.052  19.781  18.929  0.00  0.00    +0.240 C 
ENDBRANCH  36  37
ENDBRANCH  32  33
ENDBRANCH  31  32
ENDBRANCH  25  26
ENDBRANCH  24  25
TORSDOF 9
ENDMDL
MODEL 3
REMARK VINA RESULT:      -7.1      2.828      6.951
REMARK  Name = ZINC95486207
REMARK  13 active torsions:
REMARK  status: ('A' for Active; 'I' for Inactive)
REMARK    1  A    between atoms: C1_1  and  N1_2
REMARK    2  A    between atoms: C6_8  and  O6_47
REMARK    3  A    between atoms: C7_9  and  O5_46
REMARK    4  A    between atoms: C15_18  and  O4_44
REMARK    5  A    between atoms: C16_19  and  O3_42
REMARK    6  A    between atoms: C17_20  and  O1_21
REMARK    7  A    between atoms: O1_21  and  C18_22
REMARK    8  A    between atoms: C24_28  and  C27_33
REMARK    9  A    between atoms: C27_33  and  C28_34
REMARK   10  A    between atoms: C31_37  and  O2_40
REMARK   11  A    between atoms: O2_40  and  C34_41
REMARK   12  A    between atoms: O3_42  and  C35_43
REMARK   13  A    between atoms: O4_44  and  C36_45
REMARK                            x       y       z     vdW  Elec       q    Type
REMARK                         _______ _______ _______ _____ _____    ______ ____
ROOT
ATOM      1  C   UNL     1      51.617  19.410  15.761  0.00  0.00    +0.333 C 
ATOM      2  N   UNL     1      52.198  18.909  17.014  0.00  0.00    -0.372 N 
ATOM      3  H   UNL     1      53.204  18.967  16.964  0.00  0.00    +0.434 HD
ATOM      4  C   UNL     1      51.717  19.721  18.132  0.00  0.00    +0.239 C 
ATOM      5  C   UNL     1      52.521  19.378  19.387  0.00  0.00    +0.142 C 
ATOM      6  C   UNL     1      52.520  17.884  19.598  0.00  0.00    -0.074 A 
ATOM      7  C   UNL     1      52.865  17.389  20.845  0.00  0.00    +0.027 A 
ATOM      8  C   UNL     1      52.878  16.025  21.077  0.00  0.00    +0.113 A 
ATOM     11  C   UNL     1      52.543  15.150  20.048  0.00  0.00    +0.101 A 
ATOM     14  C   UNL     1      52.199  15.650  18.806  0.00  0.00    +0.042 A 
ATOM     15  C   UNL     1      52.186  17.019  18.577  0.00  0.00    -0.114 A 
ATOM     16  C   UNL     1      50.256  19.486  18.397  0.00  0.00    -0.068 A 
ATOM     17  C   UNL     1      49.568  20.407  19.174  0.00  0.00    -0.030 A 
ATOM     18  C   UNL     1      48.221  20.232  19.446  0.00  0.00    +0.140 A 
ATOM     21  C   UNL     1      47.551  19.126  18.937  0.00  0.00    +0.087 A 
ATOM     24  C   UNL     1      48.226  18.239  18.128  0.00  0.00    +0.122 A 
ATOM     46  C   UNL     1      49.581  18.410  17.868  0.00  0.00    -0.118 A 
ATOM     47  C   UNL     1      50.290  17.388  17.018  0.00  0.00    +0.145 C 
ATOM     48  C   UNL     1      51.801  17.514  17.211  0.00  0.00    +0.238 C 
ENDROOT
BRANCH   8   9
ATOM      9  O   UNL     1      53.216  15.543  22.303  0.00  0.00    -0.481 OA
ATOM     10  H   UNL     1      54.158  15.620  22.510  0.00  0.00    +0.399 HD
ENDBRANCH   8   9
BRANCH  11  12
ATOM     12  O   UNL     1      52.555  13.807  20.265  0.00  0.00    -0.479 OA
ATOM     13  H   UNL     1      51.679  13.396  20.235  0.00  0.00    +0.397 HD
ENDBRANCH  11  12
BRANCH  18  19
ATOM     19  O   UNL     1      47.557  21.140  20.210  0.00  0.00    -0.292 OA
ATOM     20  C   UNL     1      47.880  21.178  21.601  0.00  0.00    +0.256 C 
ENDBRANCH  18  19
BRANCH  21  22
ATOM     22  O   UNL     1      46.229  18.946  19.200  0.00  0.00    -0.315 OA
ATOM     23  C   UNL     1      45.299  19.503  18.269  0.00  0.00    +0.246 C 
ENDBRANCH  21  22
BRANCH  24  25
ATOM     25  O   UNL     1      47.569  17.163  17.617  0.00  0.00    -0.249 OA
BRANCH  25  26
ATOM     26  C   UNL     1      47.809  15.947  18.173  0.00  0.00    +0.116 A 
ATOM     27  C   UNL     1      47.642  15.758  19.538  0.00  0.00    -0.063 A 
ATOM     28  C   UNL     1      47.886  14.520  20.093  0.00  0.00    +0.040 A 
ATOM     29  C   UNL     1      48.298  13.462  19.297  0.00  0.00    -0.097 A 
ATOM     30  C   UNL     1      48.470  13.646  17.941  0.00  0.00    -0.070 A 
ATOM     31  C   UNL     1      48.928  12.530  17.039  0.00  0.00    +0.231 C 
ATOM     41  N   UNL     1      48.746  11.232  17.694  0.00  0.00    -0.665 NA
ATOM     42  H   UNL     1      47.768  10.994  17.760  0.00  0.00    +0.344 HD
ATOM     43  C   UNL     1      49.378  11.237  19.023  0.00  0.00    +0.219 C 
ATOM     44  C   UNL     1      48.547  12.127  19.950  0.00  0.00    +0.040 C 
ATOM     45  C   UNL     1      48.218  14.888  17.378  0.00  0.00    +0.006 A 
BRANCH  31  32
ATOM     32  C   UNL     1      48.113  12.561  15.744  0.00  0.00    +0.085 C 
BRANCH  32  33
ATOM     33  C   UNL     1      49.039  12.770  14.573  0.00  0.00    -0.113 A 
ATOM     34  C   UNL     1      48.520  12.910  13.299  0.00  0.00    +0.045 A 
ATOM     35  C   UNL     1      49.367  13.101  12.225  0.00  0.00    -0.024 A 
ATOM     36  C   UNL     1      50.739  13.152  12.425  0.00  0.00    +0.127 A 
ATOM     39  C   UNL     1      51.257  13.010  13.704  0.00  0.00    -0.080 A 
ATOM     40  C   UNL     1      50.405  12.825  14.776  0.00  0.00    +0.068 A 
BRANCH  36  37
ATOM     37  O   UNL     1      51.574  13.339  11.369  0.00  0.00    -0.319 OA
ATOM     38  C   UNL     1      51.225  12.693  10.143  0.00  0.00    +0.240 C 
ENDBRANCH  36  37
ENDBRANCH  32  33
ENDBRANCH  31  32
ENDBRANCH  25  26
ENDBRANCH  24  25
TORSDOF 9
ENDMDL
MODEL 4
REMARK VINA RESULT:      -7.0      2.920      6.164
REMARK  Name = ZINC95486207
REMARK  13 active torsions:
REMARK  status: ('A' for Active; 'I' for Inactive)
REMARK    1  A    between atoms: C1_1  and  N1_2
REMARK    2  A    between atoms: C6_8  and  O6_47
REMARK    3  A    between atoms: C7_9  and  O5_46
REMARK    4  A    between atoms: C15_18  and  O4_44
REMARK    5  A    between atoms: C16_19  and  O3_42
REMARK    6  A    between atoms: C17_20  and  O1_21
REMARK    7  A    between atoms: O1_21  and  C18_22
REMARK    8  A    between atoms: C24_28  and  C27_33
REMARK    9  A    between atoms: C27_33  and  C28_34
REMARK   10  A    between atoms: C31_37  and  O2_40
REMARK   11  A    between atoms: O2_40  and  C34_41
REMARK   12  A    between atoms: O3_42  and  C35_43
REMARK   13  A    between atoms: O4_44  and  C36_45
REMARK                            x       y       z     vdW  Elec       q    Type
REMARK                         _______ _______ _______ _____ _____    ______ ____
ROOT
ATOM      1  C   UNL     1      46.164  19.189  21.541  0.00  0.00    +0.333 C 
ATOM      2  N   UNL     1      46.008  18.510  20.248  0.00  0.00    -0.372 N 
ATOM      3  H   UNL     1      45.047  18.574  19.948  0.00  0.00    +0.434 HD
ATOM      4  C   UNL     1      46.871  19.152  19.255  0.00  0.00    +0.239 C 
ATOM      5  C   UNL     1      46.514  18.629  17.863  0.00  0.00    +0.142 C 
ATOM      6  C   UNL     1      46.514  17.121  17.872  0.00  0.00    -0.074 A 
ATOM      7  C   UNL     1      46.581  16.449  16.662  0.00  0.00    +0.027 A 
ATOM      8  C   UNL     1      46.580  15.066  16.629  0.00  0.00    +0.113 A 
ATOM     11  C   UNL     1      46.512  14.350  17.820  0.00  0.00    +0.101 A 
ATOM     14  C   UNL     1      46.447  15.025  19.025  0.00  0.00    +0.042 A 
ATOM     15  C   UNL     1      46.449  16.413  19.054  0.00  0.00    -0.114 A 
ATOM     16  C   UNL     1      48.324  18.883  19.531  0.00  0.00    -0.068 A 
ATOM     17  C   UNL     1      49.275  19.682  18.911  0.00  0.00    -0.030 A 
ATOM     18  C   UNL     1      50.625  19.471  19.134  0.00  0.00    +0.140 A 
ATOM     21  C   UNL     1      51.035  18.452  19.985  0.00  0.00    +0.087 A 
ATOM     24  C   UNL     1      50.088  17.691  20.634  0.00  0.00    +0.122 A 
ATOM     46  C   UNL     1      48.733  17.896  20.398  0.00  0.00    -0.118 A 
ATOM     47  C   UNL     1      47.735  17.008  21.093  0.00  0.00    +0.145 C 
ATOM     48  C   UNL     1      46.382  17.102  20.389  0.00  0.00    +0.238 C 
ENDROOT
BRANCH   8   9
ATOM      9  O   UNL     1      46.645  14.410  15.439  0.00  0.00    -0.481 OA
ATOM     10  H   UNL     1      47.067  13.541  15.492  0.00  0.00    +0.399 HD
ENDBRANCH   8   9
BRANCH  11  12
ATOM     12  O   UNL     1      46.509  12.990  17.799  0.00  0.00    -0.479 OA
ATOM     13  H   UNL     1      45.635  12.601  17.656  0.00  0.00    +0.397 HD
ENDBRANCH  11  12
BRANCH  18  19
ATOM     19  O   UNL     1      51.548  20.259  18.520  0.00  0.00    -0.292 OA
ATOM     20  C   UNL     1      51.104  21.026  17.399  0.00  0.00    +0.256 C 
ENDBRANCH  18  19
BRANCH  21  22
ATOM     22  O   UNL     1      52.359  18.237  20.208  0.00  0.00    -0.315 OA
ATOM     23  C   UNL     1      53.035  17.358  19.306  0.00  0.00    +0.246 C 
ENDBRANCH  21  22
BRANCH  24  25
ATOM     25  O   UNL     1      50.486  16.701  21.478  0.00  0.00    -0.249 OA
BRANCH  25  26
ATOM     26  C   UNL     1      50.125  15.426  21.181  0.00  0.00    +0.116 A 
ATOM     27  C   UNL     1      49.505  14.635  22.137  0.00  0.00    -0.063 A 
ATOM     28  C   UNL     1      49.139  13.342  21.826  0.00  0.00    +0.040 A 
ATOM     29  C   UNL     1      49.388  12.827  20.562  0.00  0.00    -0.097 A 
ATOM     30  C   UNL     1      50.007  13.609  19.610  0.00  0.00    -0.070 A 
ATOM     31  C   UNL     1      50.308  13.089  18.229  0.00  0.00    +0.231 C 
ATOM     41  N   UNL     1      49.512  11.891  17.945  0.00  0.00    -0.665 NA
ATOM     42  H   UNL     1      48.539  12.125  17.821  0.00  0.00    +0.344 HD
ATOM     43  C   UNL     1      49.682  10.899  19.019  0.00  0.00    +0.219 C 
ATOM     44  C   UNL     1      48.965  11.411  20.269  0.00  0.00    +0.040 C 
ATOM     45  C   UNL     1      50.369  14.912  19.917  0.00  0.00    +0.006 A 
BRANCH  31  32
ATOM     32  C   UNL     1      49.976  14.170  17.198  0.00  0.00    +0.085 C 
BRANCH  32  33
ATOM     33  C   UNL     1      50.278  13.655  15.815  0.00  0.00    -0.113 A 
ATOM     34  C   UNL     1      49.290  13.021  15.083  0.00  0.00    +0.045 A 
ATOM     35  C   UNL     1      49.565  12.548  13.815  0.00  0.00    -0.024 A 
ATOM     36  C   UNL     1      50.833  12.707  13.276  0.00  0.00    +0.127 A 
ATOM     39  C   UNL     1      51.823  13.341  14.012  0.00  0.00    -0.080 A 
ATOM     40  C   UNL     1      51.541  13.819  15.278  0.00  0.00    +0.068 A 
BRANCH  36  37
ATOM     37  O   UNL     1      51.106  12.241  12.029  0.00  0.00    -0.319 OA
ATOM     38  C   UNL     1      51.076  13.189  10.961  0.00  0.00    +0.240 C 
ENDBRANCH  36  37
ENDBRANCH  32  33
ENDBRANCH  31  32
ENDBRANCH  25  26
ENDBRANCH  24  25
TORSDOF 9
ENDMDL
MODEL 5
REMARK VINA RESULT:      -6.9      2.916      7.040
REMARK  Name = ZINC95486207
REMARK  13 active torsions:
REMARK  status: ('A' for Active; 'I' for Inactive)
REMARK    1  A    between atoms: C1_1  and  N1_2
REMARK    2  A    between atoms: C6_8  and  O6_47
REMARK    3  A    between atoms: C7_9  and  O5_46
REMARK    4  A    between atoms: C15_18  and  O4_44
REMARK    5  A    between atoms: C16_19  and  O3_42
REMARK    6  A    between atoms: C17_20  and  O1_21
REMARK    7  A    between atoms: O1_21  and  C18_22
REMARK    8  A    between atoms: C24_28  and  C27_33
REMARK    9  A    between atoms: C27_33  and  C28_34
REMARK   10  A    between atoms: C31_37  and  O2_40
REMARK   11  A    between atoms: O2_40  and  C34_41
REMARK   12  A    between atoms: O3_42  and  C35_43
REMARK   13  A    between atoms: O4_44  and  C36_45
REMARK                            x       y       z     vdW  Elec       q    Type
REMARK                         _______ _______ _______ _____ _____    ______ ____
ROOT
ATOM      1  C   UNL     1      46.176  16.596  17.193  0.00  0.00    +0.333 C 
ATOM      2  N   UNL     1      46.885  15.328  17.408  0.00  0.00    -0.372 N 
ATOM      3  H   UNL     1      46.405  14.587  16.918  0.00  0.00    +0.434 HD
ATOM      4  C   UNL     1      48.252  15.441  16.900  0.00  0.00    +0.239 C 
ATOM      5  C   UNL     1      48.898  14.056  16.876  0.00  0.00    +0.142 C 
ATOM      6  C   UNL     1      48.740  13.398  18.224  0.00  0.00    -0.074 A 
ATOM      7  C   UNL     1      49.552  12.319  18.536  0.00  0.00    +0.027 A 
ATOM      8  C   UNL     1      49.435  11.688  19.762  0.00  0.00    +0.113 A 
ATOM     11  C   UNL     1      48.496  12.143  20.682  0.00  0.00    +0.101 A 
ATOM     14  C   UNL     1      47.689  13.221  20.366  0.00  0.00    +0.042 A 
ATOM     15  C   UNL     1      47.810  13.852  19.135  0.00  0.00    -0.114 A 
ATOM     16  C   UNL     1      49.082  16.364  17.750  0.00  0.00    -0.068 A 
ATOM     17  C   UNL     1      50.272  16.851  17.229  0.00  0.00    -0.030 A 
ATOM     18  C   UNL     1      51.070  17.703  17.975  0.00  0.00    +0.140 A 
ATOM     21  C   UNL     1      50.678  18.073  19.256  0.00  0.00    +0.087 A 
ATOM     24  C   UNL     1      49.473  17.624  19.751  0.00  0.00    +0.122 A 
ATOM     46  C   UNL     1      48.681  16.759  19.005  0.00  0.00    -0.118 A 
ATOM     47  C   UNL     1      47.395  16.254  19.607  0.00  0.00    +0.145 C 
ATOM     48  C   UNL     1      46.915  15.023  18.840  0.00  0.00    +0.238 C 
ENDROOT
BRANCH   8   9
ATOM      9  O   UNL     1      50.233  10.629  20.065  0.00  0.00    -0.481 OA
ATOM     10  H   UNL     1      49.761   9.788  20.135  0.00  0.00    +0.399 HD
ENDBRANCH   8   9
BRANCH  11  12
ATOM     12  O   UNL     1      48.371  11.528  21.889  0.00  0.00    -0.479 OA
ATOM     13  H   UNL     1      48.298  10.565  21.835  0.00  0.00    +0.397 HD
ENDBRANCH  11  12
BRANCH  18  19
ATOM     19  O   UNL     1      52.235  18.174  17.456  0.00  0.00    -0.292 OA
ATOM     20  C   UNL     1      52.136  19.075  16.352  0.00  0.00    +0.256 C 
ENDBRANCH  18  19
BRANCH  21  22
ATOM     22  O   UNL     1      51.456  18.908  19.996  0.00  0.00    -0.315 OA
ATOM     23  C   UNL     1      52.321  18.304  20.959  0.00  0.00    +0.246 C 
ENDBRANCH  21  22
BRANCH  24  25
ATOM     25  O   UNL     1      49.081  17.996  20.999  0.00  0.00    -0.249 OA
BRANCH  25  26
ATOM     26  C   UNL     1      48.323  19.117  21.122  0.00  0.00    +0.116 A 
ATOM     27  C   UNL     1      48.800  20.335  20.660  0.00  0.00    -0.063 A 
ATOM     28  C   UNL     1      48.024  21.467  20.786  0.00  0.00    +0.040 A 
ATOM     29  C   UNL     1      46.769  21.397  21.373  0.00  0.00    -0.097 A 
ATOM     30  C   UNL     1      46.293  20.189  21.837  0.00  0.00    -0.070 A 
ATOM     31  C   UNL     1      44.942  20.066  22.493  0.00  0.00    +0.231 C 
ATOM     41  N   UNL     1      44.112  21.233  22.182  0.00  0.00    -0.665 NA
ATOM     42  H   UNL     1      43.823  21.225  21.216  0.00  0.00    +0.344 HD
ATOM     43  C   UNL     1      44.834  22.474  22.505  0.00  0.00    +0.219 C 
ATOM     44  C   UNL     1      45.957  22.661  21.483  0.00  0.00    +0.040 C 
ATOM     45  C   UNL     1      47.068  19.047  21.705  0.00  0.00    +0.006 A 
BRANCH  31  32
ATOM     32  C   UNL     1      44.247  18.802  21.983  0.00  0.00    +0.085 C 
BRANCH  32  33
ATOM     33  C   UNL     1      43.259  19.172  20.906  0.00  0.00    -0.113 A 
ATOM     34  C   UNL     1      43.700  19.772  19.741  0.00  0.00    +0.045 A 
ATOM     35  C   UNL     1      42.797  20.113  18.754  0.00  0.00    -0.024 A 
ATOM     36  C   UNL     1      41.446  19.854  18.932  0.00  0.00    +0.127 A 
ATOM     39  C   UNL     1      41.005  19.253  20.101  0.00  0.00    -0.080 A 
ATOM     40  C   UNL     1      41.914  18.908  21.084  0.00  0.00    +0.068 A 
BRANCH  36  37
ATOM     37  O   UNL     1      40.554  20.189  17.962  0.00  0.00    -0.319 OA
ATOM     38  C   UNL     1      39.609  21.213  18.276  0.00  0.00    +0.240 C 
ENDBRANCH  36  37
ENDBRANCH  32  33
ENDBRANCH  31  32
ENDBRANCH  25  26
ENDBRANCH  24  25
TORSDOF 9
ENDMDL
MODEL 6
REMARK VINA RESULT:      -6.9      2.948      7.827
REMARK  Name = ZINC95486207
REMARK  13 active torsions:
REMARK  status: ('A' for Active; 'I' for Inactive)
REMARK    1  A    between atoms: C1_1  and  N1_2
REMARK    2  A    between atoms: C6_8  and  O6_47
REMARK    3  A    between atoms: C7_9  and  O5_46
REMARK    4  A    between atoms: C15_18  and  O4_44
REMARK    5  A    between atoms: C16_19  and  O3_42
REMARK    6  A    between atoms: C17_20  and  O1_21
REMARK    7  A    between atoms: O1_21  and  C18_22
REMARK    8  A    between atoms: C24_28  and  C27_33
REMARK    9  A    between atoms: C27_33  and  C28_34
REMARK   10  A    between atoms: C31_37  and  O2_40
REMARK   11  A    between atoms: O2_40  and  C34_41
REMARK   12  A    between atoms: O3_42  and  C35_43
REMARK   13  A    between atoms: O4_44  and  C36_45
REMARK                            x       y       z     vdW  Elec       q    Type
REMARK                         _______ _______ _______ _____ _____    ______ ____
ROOT
ATOM      1  C   UNL     1      50.080  12.570  14.509  0.00  0.00    +0.333 C 
ATOM      2  N   UNL     1      50.551  12.194  15.848  0.00  0.00    -0.372 N 
ATOM      3  H   UNL     1      51.040  11.313  15.797  0.00  0.00    +0.434 HD
ATOM      4  C   UNL     1      51.460  13.226  16.351  0.00  0.00    +0.239 C 
ATOM      5  C   UNL     1      52.155  12.714  17.613  0.00  0.00    +0.142 C 
ATOM      6  C   UNL     1      51.125  12.199  18.587  0.00  0.00    -0.074 A 
ATOM      7  C   UNL     1      51.490  12.034  19.914  0.00  0.00    +0.027 A 
ATOM      8  C   UNL     1      50.573  11.561  20.837  0.00  0.00    +0.113 A 
ATOM     11  C   UNL     1      49.281  11.251  20.425  0.00  0.00    +0.101 A 
ATOM     14  C   UNL     1      48.923  11.418  19.100  0.00  0.00    +0.042 A 
ATOM     15  C   UNL     1      49.844  11.894  18.178  0.00  0.00    -0.114 A 
ATOM     16  C   UNL     1      50.726  14.500  16.668  0.00  0.00    -0.068 A 
ATOM     17  C   UNL     1      51.461  15.666  16.820  0.00  0.00    -0.030 A 
ATOM     18  C   UNL     1      50.830  16.863  17.114  0.00  0.00    +0.140 A 
ATOM     21  C   UNL     1      49.448  16.899  17.258  0.00  0.00    +0.087 A 
ATOM     24  C   UNL     1      48.717  15.748  17.061  0.00  0.00    +0.122 A 
ATOM     46  C   UNL     1      49.356  14.546  16.780  0.00  0.00    -0.118 A 
ATOM     47  C   UNL     1      48.519  13.302  16.620  0.00  0.00    +0.145 C 
ATOM     48  C   UNL     1      49.406  12.064  16.749  0.00  0.00    +0.238 C 
ENDROOT
BRANCH   8   9
ATOM      9  O   UNL     1      50.934  11.400  22.139  0.00  0.00    -0.481 OA
ATOM     10  H   UNL     1      50.187  11.290  22.743  0.00  0.00    +0.399 HD
ENDBRANCH   8   9
BRANCH  11  12
ATOM     12  O   UNL     1      48.373  10.783  21.324  0.00  0.00    -0.479 OA
ATOM     13  H   UNL     1      48.486  11.136  22.218  0.00  0.00    +0.397 HD
ENDBRANCH  11  12
BRANCH  18  19
ATOM     19  O   UNL     1      51.560  18.001  17.262  0.00  0.00    -0.292 OA
ATOM     20  C   UNL     1      51.725  18.822  16.104  0.00  0.00    +0.256 C 
ENDBRANCH  18  19
BRANCH  21  22
ATOM     22  O   UNL     1      48.820  18.070  17.548  0.00  0.00    -0.315 OA
ATOM     23  C   UNL     1      48.764  18.454  18.923  0.00  0.00    +0.246 C 
ENDBRANCH  21  22
BRANCH  24  25
ATOM     25  O   UNL     1      47.363  15.783  17.188  0.00  0.00    -0.249 OA
BRANCH  25  26
ATOM     26  C   UNL     1      46.838  15.711  18.438  0.00  0.00    +0.116 A 
ATOM     27  C   UNL     1      47.243  14.709  19.309  0.00  0.00    -0.063 A 
ATOM     28  C   UNL     1      46.707  14.645  20.577  0.00  0.00    +0.040 A 
ATOM     29  C   UNL     1      45.765  15.576  20.989  0.00  0.00    -0.097 A 
ATOM     30  C   UNL     1      45.357  16.571  20.126  0.00  0.00    -0.070 A 
ATOM     31  C   UNL     1      44.327  17.596  20.524  0.00  0.00    +0.231 C 
ATOM     41  N   UNL     1      44.177  17.634  21.982  0.00  0.00    -0.665 NA
ATOM     42  H   UNL     1      44.989  18.043  22.419  0.00  0.00    +0.344 HD
ATOM     43  C   UNL     1      43.923  16.282  22.505  0.00  0.00    +0.219 C 
ATOM     44  C   UNL     1      45.212  15.467  22.387  0.00  0.00    +0.040 C 
ATOM     45  C   UNL     1      45.900  16.643  18.852  0.00  0.00    +0.006 A 
BRANCH  31  32
ATOM     32  C   UNL     1      44.768  18.974  20.027  0.00  0.00    +0.085 C 
BRANCH  32  33
ATOM     33  C   UNL     1      43.552  19.797  19.686  0.00  0.00    -0.113 A 
ATOM     34  C   UNL     1      42.313  19.191  19.586  0.00  0.00    +0.045 A 
ATOM     35  C   UNL     1      41.198  19.943  19.274  0.00  0.00    -0.024 A 
ATOM     36  C   UNL     1      41.321  21.308  19.059  0.00  0.00    +0.127 A 
ATOM     39  C   UNL     1      42.564  21.914  19.159  0.00  0.00    -0.080 A 
ATOM     40  C   UNL     1      43.676  21.158  19.477  0.00  0.00    +0.068 A 
BRANCH  36  37
ATOM     37  O   UNL     1      40.225  22.050  18.750  0.00  0.00    -0.319 OA
ATOM     38  C   UNL     1      39.057  21.340  18.335  0.00  0.00    +0.240 C 
ENDBRANCH  36  37
ENDBRANCH  32  33
ENDBRANCH  31  32
ENDBRANCH  25  26
ENDBRANCH  24  25
TORSDOF 9
ENDMDL
MODEL 7
REMARK VINA RESULT:      -6.9      3.267      6.536
REMARK  Name = ZINC95486207
REMARK  13 active torsions:
REMARK  status: ('A' for Active; 'I' for Inactive)
REMARK    1  A    between atoms: C1_1  and  N1_2
REMARK    2  A    between atoms: C6_8  and  O6_47
REMARK    3  A    between atoms: C7_9  and  O5_46
REMARK    4  A    between atoms: C15_18  and  O4_44
REMARK    5  A    between atoms: C16_19  and  O3_42
REMARK    6  A    between atoms: C17_20  and  O1_21
REMARK    7  A    between atoms: O1_21  and  C18_22
REMARK    8  A    between atoms: C24_28  and  C27_33
REMARK    9  A    between atoms: C27_33  and  C28_34
REMARK   10  A    between atoms: C31_37  and  O2_40
REMARK   11  A    between atoms: O2_40  and  C34_41
REMARK   12  A    between atoms: O3_42  and  C35_43
REMARK   13  A    between atoms: O4_44  and  C36_45
REMARK                            x       y       z     vdW  Elec       q    Type
REMARK                         _______ _______ _______ _____ _____    ______ ____
ROOT
ATOM      1  C   UNL     1      45.774  10.292  15.616  0.00  0.00    +0.333 C 
ATOM      2  N   UNL     1      47.023  10.779  15.017  0.00  0.00    -0.372 N 
ATOM      3  H   UNL     1      47.140  10.368  14.103  0.00  0.00    +0.434 HD
ATOM      4  C   UNL     1      46.968  12.236  14.893  0.00  0.00    +0.239 C 
ATOM      5  C   UNL     1      48.138  12.714  14.033  0.00  0.00    +0.142 C 
ATOM      6  C   UNL     1      49.427  12.138  14.564  0.00  0.00    -0.074 A 
ATOM      7  C   UNL     1      50.624  12.719  14.176  0.00  0.00    +0.027 A 
ATOM      8  C   UNL     1      51.827  12.218  14.640  0.00  0.00    +0.113 A 
ATOM     11  C   UNL     1      51.830  11.124  15.500  0.00  0.00    +0.101 A 
ATOM     14  C   UNL     1      50.633  10.549  15.885  0.00  0.00    +0.042 A 
ATOM     15  C   UNL     1      49.427  11.056  15.418  0.00  0.00    -0.114 A 
ATOM     16  C   UNL     1      47.031  12.907  16.237  0.00  0.00    -0.068 A 
ATOM     17  C   UNL     1      46.647  14.237  16.332  0.00  0.00    -0.030 A 
ATOM     18  C   UNL     1      46.689  14.897  17.548  0.00  0.00    +0.140 A 
ATOM     21  C   UNL     1      47.118  14.224  18.686  0.00  0.00    +0.087 A 
ATOM     24  C   UNL     1      47.454  12.892  18.598  0.00  0.00    +0.122 A 
ATOM     46  C   UNL     1      47.424  12.236  17.372  0.00  0.00    -0.118 A 
ATOM     47  C   UNL     1      47.847  10.790  17.314  0.00  0.00    +0.145 C 
ATOM     48  C   UNL     1      48.152  10.400  15.869  0.00  0.00    +0.238 C 
ENDROOT
BRANCH   8   9
ATOM      9  O   UNL     1      53.000  12.791  14.257  0.00  0.00    -0.481 OA
ATOM     10  H   UNL     1      53.313  12.503  13.388  0.00  0.00    +0.399 HD
ENDBRANCH   8   9
BRANCH  11  12
ATOM     12  O   UNL     1      53.007  10.621  15.960  0.00  0.00    -0.479 OA
ATOM     13  H   UNL     1      53.605  11.290  16.324  0.00  0.00    +0.397 HD
ENDBRANCH  11  12
BRANCH  18  19
ATOM     19  O   UNL     1      46.312  16.201  17.629  0.00  0.00    -0.292 OA
ATOM     20  C   UNL     1      47.078  17.146  16.881  0.00  0.00    +0.256 C 
ENDBRANCH  18  19
BRANCH  21  22
ATOM     22  O   UNL     1      47.164  14.866  19.884  0.00  0.00    -0.315 OA
ATOM     23  C   UNL     1      45.976  14.847  20.677  0.00  0.00    +0.246 C 
ENDBRANCH  21  22
BRANCH  24  25
ATOM     25  O   UNL     1      47.862  12.227  19.712  0.00  0.00    -0.249 OA
BRANCH  25  26
ATOM     26  C   UNL     1      49.196  12.051  19.897  0.00  0.00    +0.116 A 
ATOM     27  C   UNL     1      49.672  10.887  20.482  0.00  0.00    -0.063 A 
ATOM     28  C   UNL     1      51.028  10.716  20.664  0.00  0.00    +0.040 A 
ATOM     29  C   UNL     1      51.920  11.701  20.266  0.00  0.00    -0.097 A 
ATOM     30  C   UNL     1      51.451  12.862  19.688  0.00  0.00    -0.070 A 
ATOM     31  C   UNL     1      52.380  13.964  19.252  0.00  0.00    +0.231 C 
ATOM     41  N   UNL     1      53.753  13.465  19.139  0.00  0.00    -0.665 NA
ATOM     42  H   UNL     1      53.850  12.849  18.346  0.00  0.00    +0.344 HD
ATOM     43  C   UNL     1      54.154  12.788  20.383  0.00  0.00    +0.219 C 
ATOM     44  C   UNL     1      53.393  11.465  20.482  0.00  0.00    +0.040 C 
ATOM     45  C   UNL     1      50.088  13.034  19.496  0.00  0.00    +0.006 A 
BRANCH  31  32
ATOM     32  C   UNL     1      51.925  14.500  17.892  0.00  0.00    +0.085 C 
BRANCH  32  33
ATOM     33  C   UNL     1      52.051  16.002  17.877  0.00  0.00    -0.113 A 
ATOM     34  C   UNL     1      52.620  16.658  18.952  0.00  0.00    +0.045 A 
ATOM     35  C   UNL     1      52.736  18.034  18.940  0.00  0.00    -0.024 A 
ATOM     36  C   UNL     1      52.280  18.758  17.848  0.00  0.00    +0.127 A 
ATOM     39  C   UNL     1      51.709  18.098  16.771  0.00  0.00    -0.080 A 
ATOM     40  C   UNL     1      51.600  16.720  16.785  0.00  0.00    +0.068 A 
BRANCH  36  37
ATOM     37  O   UNL     1      52.392  20.113  17.834  0.00  0.00    -0.319 OA
ATOM     38  C   UNL     1      51.288  20.850  17.306  0.00  0.00    +0.240 C 
ENDBRANCH  36  37
ENDBRANCH  32  33
ENDBRANCH  31  32
ENDBRANCH  25  26
ENDBRANCH  24  25
TORSDOF 9
ENDMDL
MODEL 8
REMARK VINA RESULT:      -6.8      2.180      6.248
REMARK  Name = ZINC95486207
REMARK  13 active torsions:
REMARK  status: ('A' for Active; 'I' for Inactive)
REMARK    1  A    between atoms: C1_1  and  N1_2
REMARK    2  A    between atoms: C6_8  and  O6_47
REMARK    3  A    between atoms: C7_9  and  O5_46
REMARK    4  A    between atoms: C15_18  and  O4_44
REMARK    5  A    between atoms: C16_19  and  O3_42
REMARK    6  A    between atoms: C17_20  and  O1_21
REMARK    7  A    between atoms: O1_21  and  C18_22
REMARK    8  A    between atoms: C24_28  and  C27_33
REMARK    9  A    between atoms: C27_33  and  C28_34
REMARK   10  A    between atoms: C31_37  and  O2_40
REMARK   11  A    between atoms: O2_40  and  C34_41
REMARK   12  A    between atoms: O3_42  and  C35_43
REMARK   13  A    between atoms: O4_44  and  C36_45
REMARK                            x       y       z     vdW  Elec       q    Type
REMARK                         _______ _______ _______ _____ _____    ______ ____
ROOT
ATOM      1  C   UNL     1      48.213  11.484  17.080  0.00  0.00    +0.333 C 
ATOM      2  N   UNL     1      47.444  12.450  17.878  0.00  0.00    -0.372 N 
ATOM      3  H   UNL     1      46.508  12.101  18.018  0.00  0.00    +0.434 HD
ATOM      4  C   UNL     1      48.094  12.635  19.176  0.00  0.00    +0.239 C 
ATOM      5  C   UNL     1      47.162  13.422  20.098  0.00  0.00    +0.142 C 
ATOM      6  C   UNL     1      46.696  14.675  19.401  0.00  0.00    -0.074 A 
ATOM      7  C   UNL     1      46.155  15.698  20.163  0.00  0.00    +0.027 A 
ATOM      8  C   UNL     1      45.714  16.862  19.559  0.00  0.00    +0.113 A 
ATOM     11  C   UNL     1      45.815  17.001  18.179  0.00  0.00    +0.101 A 
ATOM     14  C   UNL     1      46.357  15.978  17.423  0.00  0.00    +0.042 A 
ATOM     15  C   UNL     1      46.800  14.812  18.032  0.00  0.00    -0.114 A 
ATOM     16  C   UNL     1      49.398  13.371  19.040  0.00  0.00    -0.068 A 
ATOM     17  C   UNL     1      50.296  13.328  20.098  0.00  0.00    -0.030 A 
ATOM     18  C   UNL     1      51.509  13.990  20.019  0.00  0.00    +0.140 A 
ATOM     21  C   UNL     1      51.833  14.706  18.872  0.00  0.00    +0.087 A 
ATOM     24  C   UNL     1      50.961  14.708  17.807  0.00  0.00    +0.122 A 
ATOM     46  C   UNL     1      49.737  14.053  17.894  0.00  0.00    -0.118 A 
ATOM     47  C   UNL     1      48.793  14.123  16.722  0.00  0.00    +0.145 C 
ATOM     48  C   UNL     1      47.386  13.729  17.169  0.00  0.00    +0.238 C 
ENDROOT
BRANCH   8   9
ATOM      9  O   UNL     1      45.183  17.864  20.311  0.00  0.00    -0.481 OA
ATOM     10  H   UNL     1      45.799  18.242  20.954  0.00  0.00    +0.399 HD
ENDBRANCH   8   9
BRANCH  11  12
ATOM     12  O   UNL     1      45.383  18.140  17.574  0.00  0.00    -0.479 OA
ATOM     13  H   UNL     1      46.096  18.720  17.270  0.00  0.00    +0.397 HD
ENDBRANCH  11  12
BRANCH  18  19
ATOM     19  O   UNL     1      52.380  13.942  21.062  0.00  0.00    -0.292 OA
ATOM     20  C   UNL     1      53.237  12.802  21.140  0.00  0.00    +0.256 C 
ENDBRANCH  18  19
BRANCH  21  22
ATOM     22  O   UNL     1      53.022  15.361  18.787  0.00  0.00    -0.315 OA
ATOM     23  C   UNL     1      53.265  16.391  19.747  0.00  0.00    +0.246 C 
ENDBRANCH  21  22
BRANCH  24  25
ATOM     25  O   UNL     1      51.281  15.396  16.678  0.00  0.00    -0.249 OA
BRANCH  25  26
ATOM     26  C   UNL     1      51.345  16.751  16.754  0.00  0.00    +0.116 A 
ATOM     27  C   UNL     1      52.012  17.473  15.775  0.00  0.00    -0.063 A 
ATOM     28  C   UNL     1      52.070  18.848  15.858  0.00  0.00    +0.040 A 
ATOM     29  C   UNL     1      51.466  19.514  16.915  0.00  0.00    -0.097 A 
ATOM     30  C   UNL     1      50.805  18.800  17.892  0.00  0.00    -0.070 A 
ATOM     31  C   UNL     1      50.145  19.477  19.064  0.00  0.00    +0.231 C 
ATOM     41  N   UNL     1      49.950  20.904  18.789  0.00  0.00    -0.665 NA
ATOM     42  H   UNL     1      49.231  21.044  18.096  0.00  0.00    +0.344 HD
ATOM     43  C   UNL     1      51.217  21.520  18.364  0.00  0.00    +0.219 C 
ATOM     44  C   UNL     1      51.553  21.018  16.959  0.00  0.00    +0.040 C 
ATOM     45  C   UNL     1      50.738  17.417  17.807  0.00  0.00    +0.006 A 
BRANCH  31  32
ATOM     32  C   UNL     1      48.787  18.824  19.326  0.00  0.00    +0.085 C 
BRANCH  32  33
ATOM     33  C   UNL     1      47.786  19.883  19.710  0.00  0.00    -0.113 A 
ATOM     34  C   UNL     1      47.677  20.285  21.028  0.00  0.00    +0.045 A 
ATOM     35  C   UNL     1      46.760  21.256  21.382  0.00  0.00    -0.024 A 
ATOM     36  C   UNL     1      45.948  21.827  20.414  0.00  0.00    +0.127 A 
ATOM     39  C   UNL     1      46.058  21.422  19.092  0.00  0.00    -0.080 A 
ATOM     40  C   UNL     1      46.981  20.455  18.742  0.00  0.00    +0.068 A 
BRANCH  36  37
ATOM     37  O   UNL     1      45.044  22.781  20.760  0.00  0.00    -0.319 OA
ATOM     38  C   UNL     1      43.925  22.961  19.890  0.00  0.00    +0.240 C 
ENDBRANCH  36  37
ENDBRANCH  32  33
ENDBRANCH  31  32
ENDBRANCH  25  26
ENDBRANCH  24  25
TORSDOF 9
ENDMDL
MODEL 9
REMARK VINA RESULT:      -6.7      2.766      6.902
REMARK  Name = ZINC95486207
REMARK  13 active torsions:
REMARK  status: ('A' for Active; 'I' for Inactive)
REMARK    1  A    between atoms: C1_1  and  N1_2
REMARK    2  A    between atoms: C6_8  and  O6_47
REMARK    3  A    between atoms: C7_9  and  O5_46
REMARK    4  A    between atoms: C15_18  and  O4_44
REMARK    5  A    between atoms: C16_19  and  O3_42
REMARK    6  A    between atoms: C17_20  and  O1_21
REMARK    7  A    between atoms: O1_21  and  C18_22
REMARK    8  A    between atoms: C24_28  and  C27_33
REMARK    9  A    between atoms: C27_33  and  C28_34
REMARK   10  A    between atoms: C31_37  and  O2_40
REMARK   11  A    between atoms: O2_40  and  C34_41
REMARK   12  A    between atoms: O3_42  and  C35_43
REMARK   13  A    between atoms: O4_44  and  C36_45
REMARK                            x       y       z     vdW  Elec       q    Type
REMARK                         _______ _______ _______ _____ _____    ______ ____
ROOT
ATOM      1  C   UNL     1      50.279  15.011  22.505  0.00  0.00    +0.333 C 
ATOM      2  N   UNL     1      51.613  14.538  22.110  0.00  0.00    -0.372 N 
ATOM      3  H   UNL     1      51.945  13.867  22.787  0.00  0.00    +0.434 HD
ATOM      4  C   UNL     1      51.535  13.905  20.793  0.00  0.00    +0.239 C 
ATOM      5  C   UNL     1      52.850  13.181  20.504  0.00  0.00    +0.142 C 
ATOM      6  C   UNL     1      54.007  14.122  20.724  0.00  0.00    -0.074 A 
ATOM      7  C   UNL     1      55.239  13.800  20.177  0.00  0.00    +0.027 A 
ATOM      8  C   UNL     1      56.326  14.637  20.360  0.00  0.00    +0.113 A 
ATOM     11  C   UNL     1      56.175  15.807  21.097  0.00  0.00    +0.101 A 
ATOM     14  C   UNL     1      54.943  16.125  21.639  0.00  0.00    +0.042 A 
ATOM     15  C   UNL     1      53.855  15.283  21.453  0.00  0.00    -0.114 A 
ATOM     16  C   UNL     1      51.272  14.914  19.711  0.00  0.00    -0.068 A 
ATOM     17  C   UNL     1      50.831  14.461  18.476  0.00  0.00    -0.030 A 
ATOM     18  C   UNL     1      50.577  15.353  17.448  0.00  0.00    +0.140 A 
ATOM     21  C   UNL     1      50.765  16.715  17.652  0.00  0.00    +0.087 A 
ATOM     24  C   UNL     1      51.159  17.165  18.892  0.00  0.00    +0.122 A 
ATOM     46  C   UNL     1      51.426  16.266  19.918  0.00  0.00    -0.118 A 
ATOM     47  C   UNL     1      51.902  16.801  21.244  0.00  0.00    +0.145 C 
ATOM     48  C   UNL     1      52.535  15.673  22.058  0.00  0.00    +0.238 C 
ENDROOT
BRANCH   8   9
ATOM      9  O   UNL     1      57.534  14.318  19.822  0.00  0.00    -0.481 OA
ATOM     10  H   UNL     1      57.756  14.822  19.027  0.00  0.00    +0.399 HD
ENDBRANCH   8   9
BRANCH  11  12
ATOM     12  O   UNL     1      57.237  16.637  21.285  0.00  0.00    -0.479 OA
ATOM     13  H   UNL     1      57.047  17.567  21.100  0.00  0.00    +0.397 HD
ENDBRANCH  11  12
BRANCH  18  19
ATOM     19  O   UNL     1      50.145  14.898  16.241  0.00  0.00    -0.292 OA
ATOM     20  C   UNL     1      50.592  13.602  15.839  0.00  0.00    +0.256 C 
ENDBRANCH  18  19
BRANCH  21  22
ATOM     22  O   UNL     1      50.520  17.598  16.647  0.00  0.00    -0.315 OA
ATOM     23  C   UNL     1      51.653  18.124  15.954  0.00  0.00    +0.246 C 
ENDBRANCH  21  22
BRANCH  24  25
ATOM     25  O   UNL     1      51.331  18.499  19.098  0.00  0.00    -0.249 OA
BRANCH  25  26
ATOM     26  C   UNL     1      50.287  19.206  19.603  0.00  0.00    +0.116 A 
ATOM     27  C   UNL     1      50.517  20.347  20.358  0.00  0.00    -0.063 A 
ATOM     28  C   UNL     1      49.452  21.060  20.865  0.00  0.00    +0.040 A 
ATOM     29  C   UNL     1      48.150  20.644  20.626  0.00  0.00    -0.097 A 
ATOM     30  C   UNL     1      47.917  19.508  19.879  0.00  0.00    -0.070 A 
ATOM     31  C   UNL     1      46.523  19.010  19.604  0.00  0.00    +0.231 C 
ATOM     41  N   UNL     1      45.541  20.070  19.850  0.00  0.00    -0.665 NA
ATOM     42  H   UNL     1      45.598  20.787  19.144  0.00  0.00    +0.344 HD
ATOM     43  C   UNL     1      45.729  20.638  21.195  0.00  0.00    +0.219 C 
ATOM     44  C   UNL     1      47.020  21.459  21.197  0.00  0.00    +0.040 C 
ATOM     45  C   UNL     1      48.987  18.792  19.362  0.00  0.00    +0.006 A 
BRANCH  31  32
ATOM     32  C   UNL     1      46.425  18.562  18.144  0.00  0.00    +0.085 C 
BRANCH  32  33
ATOM     33  C   UNL     1      46.369  17.057  18.084  0.00  0.00    -0.113 A 
ATOM     34  C   UNL     1      45.793  16.345  19.119  0.00  0.00    +0.045 A 
ATOM     35  C   UNL     1      45.742  14.966  19.066  0.00  0.00    -0.024 A 
ATOM     36  C   UNL     1      46.269  14.295  17.973  0.00  0.00    +0.127 A 
ATOM     39  C   UNL     1      46.848  15.011  16.935  0.00  0.00    -0.080 A 
ATOM     40  C   UNL     1      46.892  16.391  16.990  0.00  0.00    +0.068 A 
BRANCH  36  37
ATOM     37  O   UNL     1      46.221  12.938  17.918  0.00  0.00    -0.319 OA
ATOM     38  C   UNL     1      47.464  12.240  18.007  0.00  0.00    +0.240 C 
ENDBRANCH  36  37
ENDBRANCH  32  33
ENDBRANCH  31  32
ENDBRANCH  25  26
ENDBRANCH  24  25
TORSDOF 9
ENDMDL
