MODEL 1
REMARK VINA RESULT:      -5.8      0.000      0.000
REMARK  Name = ZINC95485968
REMARK  23 active torsions:
REMARK  status: ('A' for Active; 'I' for Inactive)
REMARK    1  A    between atoms: C1_1  and  C2_2
REMARK    2  A    between atoms: C2_2  and  C41_49
REMARK    3  A    between atoms: C3_3  and  C4_4
REMARK    4  A    between atoms: C4_4  and  C5_5
REMARK    5  A    between atoms: C5_5  and  C6_6
REMARK    6  A    between atoms: C10_11  and  C35_43
REMARK    7  A    between atoms: C11_13  and  C33_41
REMARK    8  A    between atoms: C11_13  and  C34_42
REMARK    9  A    between atoms: C13_16  and  C26_31
REMARK   10  A    between atoms: C15_19  and  C20_25
REMARK   11  A    between atoms: C17_22  and  C18_23
REMARK   12  A    between atoms: C17_22  and  C19_24
REMARK   13  A    between atoms: C20_25  and  C21_26
REMARK   14  A    between atoms: C21_26  and  C22_27
REMARK   15  A    between atoms: C23_28  and  C24_29
REMARK   16  A    between atoms: C23_28  and  C25_30
REMARK   17  A    between atoms: C26_31  and  C27_33
REMARK   18  A    between atoms: C30_36  and  O6_40
REMARK   19  A    between atoms: C31_37  and  O5_39
REMARK   20  A    between atoms: C35_43  and  C36_44
REMARK   21  A    between atoms: C36_44  and  C37_45
REMARK   22  A    between atoms: C38_46  and  C39_47
REMARK   23  A    between atoms: C38_46  and  C40_48
REMARK                            x       y       z     vdW  Elec       q    Type
REMARK                         _______ _______ _______ _____ _____    ______ ____
ROOT
ATOM      7  C   UNL     1      50.420  18.297  18.754  0.00  0.00    -0.014 C 
ATOM      8  C   UNL     1      50.428  17.233  19.852  0.00  0.00    +0.086 C 
ATOM      9  C   UNL     1      49.204  17.435  20.756  0.00  0.00    -0.100 C 
ATOM     10  C   UNL     1      49.210  16.436  21.892  0.00  0.00    +0.066 C 
ATOM     11  C   UNL     1      48.531  15.123  21.545  0.00  0.00    -0.011 C 
ATOM     18  C   UNL     1      47.172  15.365  20.891  0.00  0.00    +0.115 C 
ATOM     19  C   UNL     1      46.255  16.099  21.872  0.00  0.00    +0.036 C 
ATOM     20  C   UNL     1      46.544  14.025  20.504  0.00  0.00    +0.088 C 
ATOM     21  O   UNL     1      47.358  16.165  19.719  0.00  0.00    -0.283 OA
ATOM     22  C   UNL     1      49.292  18.845  21.320  0.00  0.00    +0.384 C 
ATOM     23  O   UNL     1      49.340  19.071  22.505  0.00  0.00    -0.405 OA
ATOM     24  C   UNL     1      49.313  19.952  20.273  0.00  0.00    -0.129 C 
ATOM     31  C   UNL     1      48.053  19.791  19.450  0.00  0.00    +0.432 C 
ATOM     32  O   UNL     1      47.559  20.754  18.902  0.00  0.00    -0.425 OA
ATOM     33  C   UNL     1      47.435  18.476  19.316  0.00  0.00    -0.329 C 
ATOM     46  C   UNL     1      47.961  17.351  19.913  0.00  0.00    +0.241 C 
ATOM     47  C   UNL     1      50.526  19.693  19.370  0.00  0.00    -0.034 C 
ATOM     48  C   UNL     1      50.559  20.740  18.255  0.00  0.00    +0.048 C 
ATOM     49  C   UNL     1      51.811  19.788  20.195  0.00  0.00    +0.046 C 
ENDROOT
BRANCH  33  34
ATOM     34  C   UNL     1      46.208  18.347  18.515  0.00  0.00    +0.469 C 
ATOM     45  O   UNL     1      46.261  17.889  17.390  0.00  0.00    -0.429 OA
BRANCH  34  35
ATOM     35  C   UNL     1      44.911  18.775  19.077  0.00  0.00    -0.145 A 
ATOM     36  C   UNL     1      44.265  17.981  20.029  0.00  0.00    +0.070 A 
ATOM     37  C   UNL     1      43.055  18.381  20.553  0.00  0.00    -0.000 A 
ATOM     38  C   UNL     1      42.474  19.571  20.136  0.00  0.00    +0.115 A 
ATOM     41  C   UNL     1      43.113  20.368  19.186  0.00  0.00    +0.071 A 
ATOM     44  C   UNL     1      44.330  19.975  18.663  0.00  0.00    +0.074 A 
BRANCH  38  39
ATOM     39  O   UNL     1      41.281  19.961  20.655  0.00  0.00    -0.486 OA
ATOM     40  H   UNL     1      41.355  20.621  21.358  0.00  0.00    +0.394 HD
ENDBRANCH  38  39
BRANCH  41  42
ATOM     42  O   UNL     1      42.542  21.532  18.780  0.00  0.00    -0.483 OA
ATOM     43  H   UNL     1      43.110  22.308  18.886  0.00  0.00    +0.390 HD
ENDBRANCH  41  42
ENDBRANCH  34  35
ENDBRANCH  33  34
BRANCH   7   6
ATOM      6  C   UNL     1      51.605  18.067  17.816  0.00  0.00    +0.038 C 
BRANCH   6   5
ATOM      5  C   UNL     1      51.615  16.608  17.355  0.00  0.00    +0.045 C 
BRANCH   5   4
ATOM      1  C   UNL     1      51.039  13.865  17.034  0.00  0.00    +0.071 C 
ATOM      2  C   UNL     1      49.927  14.882  16.990  0.00  0.00    -0.130 C 
ATOM      3  C   UNL     1      48.498  14.428  16.842  0.00  0.00    +0.070 C 
ATOM      4  C   UNL     1      50.203  16.159  17.080  0.00  0.00    -0.061 C 
ENDBRANCH   5   4
ENDBRANCH   6   5
ENDBRANCH   7   6
BRANCH  11  12
ATOM     12  C   UNL     1      49.419  14.340  20.577  0.00  0.00    +0.029 C 
BRANCH  12  13
ATOM     13  C   UNL     1      50.548  13.661  21.356  0.00  0.00    +0.049 C 
BRANCH  13  14
ATOM     14  C   UNL     1      51.878  14.113  20.810  0.00  0.00    -0.062 C 
ATOM     15  C   UNL     1      52.690  13.243  20.262  0.00  0.00    -0.129 C 
ATOM     16  C   UNL     1      53.956  13.712  19.592  0.00  0.00    +0.071 C 
ATOM     17  C   UNL     1      52.357  11.773  20.300  0.00  0.00    +0.071 C 
ENDBRANCH  13  14
ENDBRANCH  12  13
ENDBRANCH  11  12
BRANCH  24  25
ATOM     25  C   UNL     1      49.373  21.333  20.927  0.00  0.00    +0.083 C 
BRANCH  25  26
ATOM     26  C   UNL     1      48.413  21.375  22.118  0.00  0.00    +0.044 C 
BRANCH  26  27
ATOM     27  C   UNL     1      47.224  22.235  21.773  0.00  0.00    -0.055 C 
ATOM     28  C   UNL     1      46.010  21.768  21.932  0.00  0.00    -0.129 C 
ATOM     29  C   UNL     1      44.821  22.666  21.706  0.00  0.00    +0.072 C 
ATOM     30  C   UNL     1      45.803  20.332  22.341  0.00  0.00    +0.072 C 
ENDBRANCH  26  27
ENDBRANCH  25  26
ENDBRANCH  24  25
TORSDOF 13
ENDMDL
MODEL 2
REMARK VINA RESULT:      -5.8      2.647      8.371
REMARK  Name = ZINC95485968
REMARK  23 active torsions:
REMARK  status: ('A' for Active; 'I' for Inactive)
REMARK    1  A    between atoms: C1_1  and  C2_2
REMARK    2  A    between atoms: C2_2  and  C41_49
REMARK    3  A    between atoms: C3_3  and  C4_4
REMARK    4  A    between atoms: C4_4  and  C5_5
REMARK    5  A    between atoms: C5_5  and  C6_6
REMARK    6  A    between atoms: C10_11  and  C35_43
REMARK    7  A    between atoms: C11_13  and  C33_41
REMARK    8  A    between atoms: C11_13  and  C34_42
REMARK    9  A    between atoms: C13_16  and  C26_31
REMARK   10  A    between atoms: C15_19  and  C20_25
REMARK   11  A    between atoms: C17_22  and  C18_23
REMARK   12  A    between atoms: C17_22  and  C19_24
REMARK   13  A    between atoms: C20_25  and  C21_26
REMARK   14  A    between atoms: C21_26  and  C22_27
REMARK   15  A    between atoms: C23_28  and  C24_29
REMARK   16  A    between atoms: C23_28  and  C25_30
REMARK   17  A    between atoms: C26_31  and  C27_33
REMARK   18  A    between atoms: C30_36  and  O6_40
REMARK   19  A    between atoms: C31_37  and  O5_39
REMARK   20  A    between atoms: C35_43  and  C36_44
REMARK   21  A    between atoms: C36_44  and  C37_45
REMARK   22  A    between atoms: C38_46  and  C39_47
REMARK   23  A    between atoms: C38_46  and  C40_48
REMARK                            x       y       z     vdW  Elec       q    Type
REMARK                         _______ _______ _______ _____ _____    ______ ____
ROOT
ATOM      7  C   UNL     1      46.548  15.694  19.680  0.00  0.00    -0.014 C 
ATOM      8  C   UNL     1      47.694  16.676  19.925  0.00  0.00    +0.086 C 
ATOM      9  C   UNL     1      49.029  15.964  19.666  0.00  0.00    -0.100 C 
ATOM     10  C   UNL     1      50.190  16.889  19.958  0.00  0.00    +0.066 C 
ATOM     11  C   UNL     1      50.600  17.737  18.767  0.00  0.00    -0.011 C 
ATOM     18  C   UNL     1      50.741  16.884  17.509  0.00  0.00    +0.115 C 
ATOM     19  C   UNL     1      51.841  15.842  17.716  0.00  0.00    +0.036 C 
ATOM     20  C   UNL     1      51.097  17.780  16.320  0.00  0.00    +0.088 C 
ATOM     21  O   UNL     1      49.496  16.224  17.255  0.00  0.00    -0.283 OA
ATOM     22  C   UNL     1      49.087  14.766  20.601  0.00  0.00    +0.384 C 
ATOM     23  O   UNL     1      49.961  14.621  21.421  0.00  0.00    -0.405 OA
ATOM     24  C   UNL     1      47.955  13.761  20.423  0.00  0.00    -0.129 C 
ATOM     31  C   UNL     1      48.006  13.307  18.980  0.00  0.00    +0.432 C 
ATOM     32  O   UNL     1      47.589  12.209  18.673  0.00  0.00    -0.425 OA
ATOM     33  C   UNL     1      48.555  14.191  17.958  0.00  0.00    -0.329 C 
ATOM     46  C   UNL     1      49.036  15.448  18.253  0.00  0.00    +0.241 C 
ATOM     47  C   UNL     1      46.641  14.518  20.653  0.00  0.00    -0.034 C 
ATOM     48  C   UNL     1      45.463  13.570  20.420  0.00  0.00    +0.048 C 
ATOM     49  C   UNL     1      46.595  15.043  22.090  0.00  0.00    +0.046 C 
ENDROOT
BRANCH  33  34
ATOM     34  C   UNL     1      48.599  13.724  16.564  0.00  0.00    +0.469 C 
ATOM     45  O   UNL     1      47.645  13.905  15.831  0.00  0.00    -0.429 OA
BRANCH  34  35
ATOM     35  C   UNL     1      49.801  13.035  16.053  0.00  0.00    -0.145 A 
ATOM     36  C   UNL     1      50.131  11.761  16.524  0.00  0.00    +0.070 A 
ATOM     37  C   UNL     1      51.252  11.119  16.046  0.00  0.00    -0.000 A 
ATOM     38  C   UNL     1      52.058  11.735  15.098  0.00  0.00    +0.115 A 
ATOM     41  C   UNL     1      51.735  13.006  14.624  0.00  0.00    +0.071 A 
ATOM     44  C   UNL     1      50.608  13.652  15.094  0.00  0.00    +0.074 A 
BRANCH  38  39
ATOM     39  O   UNL     1      53.162  11.098  14.630  0.00  0.00    -0.486 OA
ATOM     40  H   UNL     1      53.397  11.333  13.723  0.00  0.00    +0.394 HD
ENDBRANCH  38  39
BRANCH  41  42
ATOM     42  O   UNL     1      52.526  13.606  13.695  0.00  0.00    -0.483 OA
ATOM     43  H   UNL     1      52.731  13.048  12.932  0.00  0.00    +0.390 HD
ENDBRANCH  41  42
ENDBRANCH  34  35
ENDBRANCH  33  34
BRANCH   7   6
ATOM      6  C   UNL     1      45.212  16.412  19.881  0.00  0.00    +0.038 C 
BRANCH   6   5
ATOM      5  C   UNL     1      45.470  17.848  20.343  0.00  0.00    +0.045 C 
BRANCH   5   4
ATOM      1  C   UNL     1      45.367  19.640  18.166  0.00  0.00    +0.071 C 
ATOM      2  C   UNL     1      44.168  19.468  19.063  0.00  0.00    -0.130 C 
ATOM      3  C   UNL     1      42.889  20.203  18.756  0.00  0.00    +0.070 C 
ATOM      4  C   UNL     1      44.237  18.680  20.107  0.00  0.00    -0.061 C 
ENDBRANCH   5   4
ENDBRANCH   6   5
ENDBRANCH   7   6
BRANCH  11  12
ATOM     12  C   UNL     1      49.538  18.811  18.528  0.00  0.00    +0.029 C 
BRANCH  12  13
ATOM     13  C   UNL     1      49.788  19.994  19.466  0.00  0.00    +0.049 C 
BRANCH  13  14
ATOM     14  C   UNL     1      48.512  20.777  19.640  0.00  0.00    -0.062 C 
ATOM     15  C   UNL     1      47.869  20.736  20.780  0.00  0.00    -0.129 C 
ATOM     16  C   UNL     1      46.672  21.623  21.002  0.00  0.00    +0.071 C 
ATOM     17  C   UNL     1      48.328  19.801  21.871  0.00  0.00    +0.071 C 
ENDBRANCH  13  14
ENDBRANCH  12  13
ENDBRANCH  11  12
BRANCH  24  25
ATOM     25  C   UNL     1      48.108  12.578  21.380  0.00  0.00    +0.083 C 
BRANCH  25  26
ATOM     26  C   UNL     1      48.971  11.499  20.723  0.00  0.00    +0.044 C 
BRANCH  26  27
ATOM     27  C   UNL     1      50.149  11.189  21.610  0.00  0.00    -0.055 C 
ATOM     28  C   UNL     1      51.363  11.484  21.214  0.00  0.00    -0.129 C 
ATOM     29  C   UNL     1      52.530  11.289  22.148  0.00  0.00    +0.072 C 
ATOM     30  C   UNL     1      51.593  12.018  19.823  0.00  0.00    +0.072 C 
ENDBRANCH  26  27
ENDBRANCH  25  26
ENDBRANCH  24  25
TORSDOF 13
ENDMDL
MODEL 3
REMARK VINA RESULT:      -5.8      2.001      4.641
REMARK  Name = ZINC95485968
REMARK  23 active torsions:
REMARK  status: ('A' for Active; 'I' for Inactive)
REMARK    1  A    between atoms: C1_1  and  C2_2
REMARK    2  A    between atoms: C2_2  and  C41_49
REMARK    3  A    between atoms: C3_3  and  C4_4
REMARK    4  A    between atoms: C4_4  and  C5_5
REMARK    5  A    between atoms: C5_5  and  C6_6
REMARK    6  A    between atoms: C10_11  and  C35_43
REMARK    7  A    between atoms: C11_13  and  C33_41
REMARK    8  A    between atoms: C11_13  and  C34_42
REMARK    9  A    between atoms: C13_16  and  C26_31
REMARK   10  A    between atoms: C15_19  and  C20_25
REMARK   11  A    between atoms: C17_22  and  C18_23
REMARK   12  A    between atoms: C17_22  and  C19_24
REMARK   13  A    between atoms: C20_25  and  C21_26
REMARK   14  A    between atoms: C21_26  and  C22_27
REMARK   15  A    between atoms: C23_28  and  C24_29
REMARK   16  A    between atoms: C23_28  and  C25_30
REMARK   17  A    between atoms: C26_31  and  C27_33
REMARK   18  A    between atoms: C30_36  and  O6_40
REMARK   19  A    between atoms: C31_37  and  O5_39
REMARK   20  A    between atoms: C35_43  and  C36_44
REMARK   21  A    between atoms: C36_44  and  C37_45
REMARK   22  A    between atoms: C38_46  and  C39_47
REMARK   23  A    between atoms: C38_46  and  C40_48
REMARK                            x       y       z     vdW  Elec       q    Type
REMARK                         _______ _______ _______ _____ _____    ______ ____
ROOT
ATOM      7  C   UNL     1      48.749  19.863  19.560  0.00  0.00    -0.014 C 
ATOM      8  C   UNL     1      49.553  18.974  20.509  0.00  0.00    +0.086 C 
ATOM      9  C   UNL     1      48.792  17.660  20.733  0.00  0.00    -0.100 C 
ATOM     10  C   UNL     1      49.529  16.779  21.717  0.00  0.00    +0.066 C 
ATOM     11  C   UNL     1      50.561  15.878  21.063  0.00  0.00    -0.011 C 
ATOM     18  C   UNL     1      49.974  15.159  19.850  0.00  0.00    +0.115 C 
ATOM     19  C   UNL     1      48.816  14.264  20.297  0.00  0.00    +0.036 C 
ATOM     20  C   UNL     1      51.056  14.307  19.185  0.00  0.00    +0.088 C 
ATOM     21  O   UNL     1      49.493  16.136  18.921  0.00  0.00    -0.283 OA
ATOM     22  C   UNL     1      47.428  18.024  21.300  0.00  0.00    +0.384 C 
ATOM     23  O   UNL     1      47.041  17.625  22.373  0.00  0.00    -0.405 OA
ATOM     24  C   UNL     1      46.586  18.930  20.410  0.00  0.00    -0.129 C 
ATOM     31  C   UNL     1      46.433  18.212  19.087  0.00  0.00    +0.432 C 
ATOM     32  O   UNL     1      45.462  18.425  18.390  0.00  0.00    -0.425 OA
ATOM     33  C   UNL     1      47.453  17.266  18.650  0.00  0.00    -0.329 C 
ATOM     46  C   UNL     1      48.575  16.994  19.401  0.00  0.00    +0.241 C 
ATOM     47  C   UNL     1      47.396  20.213  20.182  0.00  0.00    -0.034 C 
ATOM     48  C   UNL     1      46.625  21.136  19.236  0.00  0.00    +0.048 C 
ATOM     49  C   UNL     1      47.619  20.925  21.518  0.00  0.00    +0.046 C 
ENDROOT
BRANCH  33  34
ATOM     34  C   UNL     1      47.277  16.576  17.362  0.00  0.00    +0.469 C 
ATOM     45  O   UNL     1      47.416  17.189  16.321  0.00  0.00    -0.429 OA
BRANCH  34  35
ATOM     35  C   UNL     1      46.932  15.141  17.334  0.00  0.00    -0.145 A 
ATOM     36  C   UNL     1      47.633  14.269  16.497  0.00  0.00    +0.070 A 
ATOM     37  C   UNL     1      47.310  12.930  16.472  0.00  0.00    -0.000 A 
ATOM     38  C   UNL     1      46.288  12.443  17.276  0.00  0.00    +0.115 A 
ATOM     41  C   UNL     1      45.584  13.308  18.113  0.00  0.00    +0.071 A 
ATOM     44  C   UNL     1      45.908  14.651  18.148  0.00  0.00    +0.074 A 
BRANCH  38  39
ATOM     39  O   UNL     1      45.974  11.122  17.247  0.00  0.00    -0.486 OA
ATOM     40  H   UNL     1      46.283  10.628  18.018  0.00  0.00    +0.394 HD
ENDBRANCH  38  39
BRANCH  41  42
ATOM     42  O   UNL     1      44.584  12.829  18.900  0.00  0.00    -0.483 OA
ATOM     43  H   UNL     1      43.704  12.903  18.506  0.00  0.00    +0.390 HD
ENDBRANCH  41  42
ENDBRANCH  34  35
ENDBRANCH  33  34
BRANCH   7   6
ATOM      6  C   UNL     1      49.528  21.151  19.288  0.00  0.00    +0.038 C 
BRANCH   6   5
ATOM      5  C   UNL     1      51.012  20.820  19.109  0.00  0.00    +0.045 C 
BRANCH   5   4
ATOM      1  C   UNL     1      51.832  18.545  17.657  0.00  0.00    +0.071 C 
ATOM      2  C   UNL     1      51.706  19.879  16.966  0.00  0.00    -0.130 C 
ATOM      3  C   UNL     1      51.953  19.984  15.483  0.00  0.00    +0.070 C 
ATOM      4  C   UNL     1      51.382  20.945  17.654  0.00  0.00    -0.061 C 
ENDBRANCH   5   4
ENDBRANCH   6   5
ENDBRANCH   7   6
BRANCH  11  12
ATOM     12  C   UNL     1      51.753  16.725  20.613  0.00  0.00    +0.029 C 
BRANCH  12  13
ATOM     13  C   UNL     1      52.946  16.457  21.534  0.00  0.00    +0.049 C 
BRANCH  13  14
ATOM     14  C   UNL     1      54.193  16.289  20.705  0.00  0.00    -0.062 C 
ATOM     15  C   UNL     1      54.720  15.101  20.549  0.00  0.00    -0.129 C 
ATOM     16  C   UNL     1      55.883  14.910  19.610  0.00  0.00    +0.071 C 
ATOM     17  C   UNL     1      54.163  13.924  21.308  0.00  0.00    +0.071 C 
ENDBRANCH  13  14
ENDBRANCH  12  13
ENDBRANCH  11  12
BRANCH  24  25
ATOM     25  C   UNL     1      45.225  19.220  21.044  0.00  0.00    +0.083 C 
BRANCH  25  26
ATOM     26  C   UNL     1      44.238  18.116  20.658  0.00  0.00    +0.044 C 
BRANCH  26  27
ATOM     27  C   UNL     1      42.919  18.358  21.345  0.00  0.00    -0.055 C 
ATOM     28  C   UNL     1      41.965  19.004  20.722  0.00  0.00    -0.129 C 
ATOM     29  C   UNL     1      40.605  19.140  21.359  0.00  0.00    +0.072 C 
ATOM     30  C   UNL     1      42.226  19.610  19.367  0.00  0.00    +0.072 C 
ENDBRANCH  26  27
ENDBRANCH  25  26
ENDBRANCH  24  25
TORSDOF 13
ENDMDL
MODEL 4
REMARK VINA RESULT:      -5.7      3.758      8.052
REMARK  Name = ZINC95485968
REMARK  23 active torsions:
REMARK  status: ('A' for Active; 'I' for Inactive)
REMARK    1  A    between atoms: C1_1  and  C2_2
REMARK    2  A    between atoms: C2_2  and  C41_49
REMARK    3  A    between atoms: C3_3  and  C4_4
REMARK    4  A    between atoms: C4_4  and  C5_5
REMARK    5  A    between atoms: C5_5  and  C6_6
REMARK    6  A    between atoms: C10_11  and  C35_43
REMARK    7  A    between atoms: C11_13  and  C33_41
REMARK    8  A    between atoms: C11_13  and  C34_42
REMARK    9  A    between atoms: C13_16  and  C26_31
REMARK   10  A    between atoms: C15_19  and  C20_25
REMARK   11  A    between atoms: C17_22  and  C18_23
REMARK   12  A    between atoms: C17_22  and  C19_24
REMARK   13  A    between atoms: C20_25  and  C21_26
REMARK   14  A    between atoms: C21_26  and  C22_27
REMARK   15  A    between atoms: C23_28  and  C24_29
REMARK   16  A    between atoms: C23_28  and  C25_30
REMARK   17  A    between atoms: C26_31  and  C27_33
REMARK   18  A    between atoms: C30_36  and  O6_40
REMARK   19  A    between atoms: C31_37  and  O5_39
REMARK   20  A    between atoms: C35_43  and  C36_44
REMARK   21  A    between atoms: C36_44  and  C37_45
REMARK   22  A    between atoms: C38_46  and  C39_47
REMARK   23  A    between atoms: C38_46  and  C40_48
REMARK                            x       y       z     vdW  Elec       q    Type
REMARK                         _______ _______ _______ _____ _____    ______ ____
ROOT
ATOM      7  C   UNL     1      48.832  15.736  17.417  0.00  0.00    -0.014 C 
ATOM      8  C   UNL     1      49.476  15.524  18.787  0.00  0.00    +0.086 C 
ATOM      9  C   UNL     1      49.288  14.060  19.209  0.00  0.00    -0.100 C 
ATOM     10  C   UNL     1      49.860  13.827  20.590  0.00  0.00    +0.066 C 
ATOM     11  C   UNL     1      51.334  13.464  20.580  0.00  0.00    -0.011 C 
ATOM     18  C   UNL     1      51.621  12.366  19.557  0.00  0.00    +0.115 C 
ATOM     19  C   UNL     1      50.850  11.100  19.934  0.00  0.00    +0.036 C 
ATOM     20  C   UNL     1      53.122  12.068  19.534  0.00  0.00    +0.088 C 
ATOM     21  O   UNL     1      51.202  12.817  18.265  0.00  0.00    -0.283 OA
ATOM     22  C   UNL     1      47.792  13.786  19.226  0.00  0.00    +0.384 C 
ATOM     23  O   UNL     1      47.207  13.424  20.219  0.00  0.00    -0.405 OA
ATOM     24  C   UNL     1      47.088  14.004  17.893  0.00  0.00    -0.129 C 
ATOM     31  C   UNL     1      47.777  13.104  16.890  0.00  0.00    +0.432 C 
ATOM     32  O   UNL     1      47.168  12.696  15.923  0.00  0.00    -0.425 OA
ATOM     33  C   UNL     1      49.173  12.731  17.087  0.00  0.00    -0.329 C 
ATOM     46  C   UNL     1      49.908  13.173  18.164  0.00  0.00    +0.241 C 
ATOM     47  C   UNL     1      47.329  15.464  17.490  0.00  0.00    -0.034 C 
ATOM     48  C   UNL     1      46.698  15.722  16.120  0.00  0.00    +0.048 C 
ATOM     49  C   UNL     1      46.695  16.395  18.526  0.00  0.00    +0.046 C 
ENDROOT
BRANCH  33  34
ATOM     34  C   UNL     1      49.818  11.850  16.100  0.00  0.00    +0.469 C 
ATOM     45  O   UNL     1      49.850  10.649  16.287  0.00  0.00    -0.429 OA
BRANCH  34  35
ATOM     35  C   UNL     1      50.428  12.425  14.885  0.00  0.00    -0.145 A 
ATOM     36  C   UNL     1      51.706  12.988  14.942  0.00  0.00    +0.070 A 
ATOM     37  C   UNL     1      52.273  13.523  13.806  0.00  0.00    -0.000 A 
ATOM     38  C   UNL     1      51.578  13.507  12.604  0.00  0.00    +0.115 A 
ATOM     41  C   UNL     1      50.302  12.947  12.540  0.00  0.00    +0.071 A 
ATOM     44  C   UNL     1      49.731  12.402  13.674  0.00  0.00    +0.074 A 
BRANCH  38  39
ATOM     39  O   UNL     1      52.142  14.036  11.488  0.00  0.00    -0.486 OA
ATOM     40  H   UNL     1      52.580  13.386  10.922  0.00  0.00    +0.394 HD
ENDBRANCH  38  39
BRANCH  41  42
ATOM     42  O   UNL     1      49.625  12.932  11.362  0.00  0.00    -0.483 OA
ATOM     43  H   UNL     1      49.216  12.080  11.153  0.00  0.00    +0.390 HD
ENDBRANCH  41  42
ENDBRANCH  34  35
ENDBRANCH  33  34
BRANCH   7   6
ATOM      6  C   UNL     1      49.065  17.178  16.964  0.00  0.00    +0.038 C 
BRANCH   6   5
ATOM      5  C   UNL     1      50.061  17.854  17.908  0.00  0.00    +0.045 C 
BRANCH   5   4
ATOM      1  C   UNL     1      50.187  20.639  18.339  0.00  0.00    +0.071 C 
ATOM      2  C   UNL     1      51.116  19.983  17.349  0.00  0.00    -0.130 C 
ATOM      3  C   UNL     1      52.161  20.806  16.639  0.00  0.00    +0.070 C 
ATOM      4  C   UNL     1      51.017  18.700  17.108  0.00  0.00    -0.061 C 
ENDBRANCH   5   4
ENDBRANCH   6   5
ENDBRANCH   7   6
BRANCH  11  12
ATOM     12  C   UNL     1      52.154  14.705  20.225  0.00  0.00    +0.029 C 
BRANCH  12  13
ATOM     13  C   UNL     1      52.277  15.604  21.457  0.00  0.00    +0.049 C 
BRANCH  13  14
ATOM     14  C   UNL     1      52.676  16.993  21.028  0.00  0.00    -0.062 C 
ATOM     15  C   UNL     1      51.842  17.991  21.184  0.00  0.00    -0.129 C 
ATOM     16  C   UNL     1      52.289  19.399  20.885  0.00  0.00    +0.071 C 
ATOM     17  C   UNL     1      50.437  17.731  21.663  0.00  0.00    +0.071 C 
ENDBRANCH  13  14
ENDBRANCH  12  13
ENDBRANCH  11  12
BRANCH  24  25
ATOM     25  C   UNL     1      45.597  13.679  17.995  0.00  0.00    +0.083 C 
BRANCH  25  26
ATOM     26  C   UNL     1      45.356  12.241  17.531  0.00  0.00    +0.044 C 
BRANCH  26  27
ATOM     27  C   UNL     1      43.942  12.105  17.027  0.00  0.00    -0.055 C 
ATOM     28  C   UNL     1      43.658  11.225  16.100  0.00  0.00    -0.129 C 
ATOM     29  C   UNL     1      42.227  11.002  15.683  0.00  0.00    +0.072 C 
ATOM     30  C   UNL     1      44.764  10.434  15.448  0.00  0.00    +0.072 C 
ENDBRANCH  26  27
ENDBRANCH  25  26
ENDBRANCH  24  25
TORSDOF 13
ENDMDL
MODEL 5
REMARK VINA RESULT:      -5.7      1.969      6.100
REMARK  Name = ZINC95485968
REMARK  23 active torsions:
REMARK  status: ('A' for Active; 'I' for Inactive)
REMARK    1  A    between atoms: C1_1  and  C2_2
REMARK    2  A    between atoms: C2_2  and  C41_49
REMARK    3  A    between atoms: C3_3  and  C4_4
REMARK    4  A    between atoms: C4_4  and  C5_5
REMARK    5  A    between atoms: C5_5  and  C6_6
REMARK    6  A    between atoms: C10_11  and  C35_43
REMARK    7  A    between atoms: C11_13  and  C33_41
REMARK    8  A    between atoms: C11_13  and  C34_42
REMARK    9  A    between atoms: C13_16  and  C26_31
REMARK   10  A    between atoms: C15_19  and  C20_25
REMARK   11  A    between atoms: C17_22  and  C18_23
REMARK   12  A    between atoms: C17_22  and  C19_24
REMARK   13  A    between atoms: C20_25  and  C21_26
REMARK   14  A    between atoms: C21_26  and  C22_27
REMARK   15  A    between atoms: C23_28  and  C24_29
REMARK   16  A    between atoms: C23_28  and  C25_30
REMARK   17  A    between atoms: C26_31  and  C27_33
REMARK   18  A    between atoms: C30_36  and  O6_40
REMARK   19  A    between atoms: C31_37  and  O5_39
REMARK   20  A    between atoms: C35_43  and  C36_44
REMARK   21  A    between atoms: C36_44  and  C37_45
REMARK   22  A    between atoms: C38_46  and  C39_47
REMARK   23  A    between atoms: C38_46  and  C40_48
REMARK                            x       y       z     vdW  Elec       q    Type
REMARK                         _______ _______ _______ _____ _____    ______ ____
ROOT
ATOM      7  C   UNL     1      48.629  15.878  20.615  0.00  0.00    -0.014 C 
ATOM      8  C   UNL     1      49.230  17.124  19.963  0.00  0.00    +0.086 C 
ATOM      9  C   UNL     1      48.129  17.870  19.197  0.00  0.00    -0.100 C 
ATOM     10  C   UNL     1      48.700  19.077  18.486  0.00  0.00    +0.066 C 
ATOM     11  C   UNL     1      48.721  20.329  19.346  0.00  0.00    -0.011 C 
ATOM     18  C   UNL     1      47.374  20.547  20.032  0.00  0.00    +0.115 C 
ATOM     19  C   UNL     1      46.287  20.748  18.973  0.00  0.00    +0.036 C 
ATOM     20  C   UNL     1      47.451  21.781  20.932  0.00  0.00    +0.088 C 
ATOM     21  O   UNL     1      47.065  19.394  20.822  0.00  0.00    -0.283 OA
ATOM     22  C   UNL     1      47.560  16.900  18.172  0.00  0.00    +0.384 C 
ATOM     23  O   UNL     1      47.576  17.123  16.985  0.00  0.00    -0.405 OA
ATOM     24  C   UNL     1      46.968  15.625  18.759  0.00  0.00    -0.129 C 
ATOM     31  C   UNL     1      45.891  16.058  19.730  0.00  0.00    +0.432 C 
ATOM     32  O   UNL     1      44.954  15.323  19.964  0.00  0.00    -0.425 OA
ATOM     33  C   UNL     1      45.982  17.358  20.385  0.00  0.00    -0.329 C 
ATOM     46  C   UNL     1      47.027  18.225  20.158  0.00  0.00    +0.241 C 
ATOM     47  C   UNL     1      48.087  14.930  19.545  0.00  0.00    -0.034 C 
ATOM     48  C   UNL     1      47.529  13.672  20.214  0.00  0.00    +0.048 C 
ATOM     49  C   UNL     1      49.218  14.539  18.591  0.00  0.00    +0.046 C 
ENDROOT
BRANCH  33  34
ATOM     34  C   UNL     1      44.919  17.758  21.320  0.00  0.00    +0.469 C 
ATOM     45  O   UNL     1      45.025  17.506  22.505  0.00  0.00    -0.429 OA
BRANCH  34  35
ATOM     35  C   UNL     1      43.722  18.464  20.821  0.00  0.00    -0.145 A 
ATOM     36  C   UNL     1      43.752  19.096  19.574  0.00  0.00    +0.070 A 
ATOM     37  C   UNL     1      42.634  19.754  19.110  0.00  0.00    -0.000 A 
ATOM     38  C   UNL     1      41.478  19.793  19.877  0.00  0.00    +0.115 A 
ATOM     41  C   UNL     1      41.442  19.165  21.122  0.00  0.00    +0.071 A 
ATOM     44  C   UNL     1      42.557  18.497  21.590  0.00  0.00    +0.074 A 
BRANCH  38  39
ATOM     39  O   UNL     1      40.379  20.444  19.414  0.00  0.00    -0.486 OA
ATOM     40  H   UNL     1      40.108  20.175  18.527  0.00  0.00    +0.394 HD
ENDBRANCH  38  39
BRANCH  41  42
ATOM     42  O   UNL     1      40.308  19.205  21.870  0.00  0.00    -0.483 OA
ATOM     43  H   UNL     1      40.449  19.487  22.785  0.00  0.00    +0.390 HD
ENDBRANCH  41  42
ENDBRANCH  34  35
ENDBRANCH  33  34
BRANCH   7   6
ATOM      6  C   UNL     1      49.708  15.160  21.427  0.00  0.00    +0.038 C 
BRANCH   6   5
ATOM      5  C   UNL     1      51.030  15.921  21.304  0.00  0.00    +0.045 C 
BRANCH   5   4
ATOM      1  C   UNL     1      52.885  16.510  19.262  0.00  0.00    +0.071 C 
ATOM      2  C   UNL     1      53.035  15.253  20.082  0.00  0.00    -0.130 C 
ATOM      3  C   UNL     1      54.215  14.345  19.855  0.00  0.00    +0.070 C 
ATOM      4  C   UNL     1      52.140  14.952  20.989  0.00  0.00    -0.061 C 
ENDBRANCH   5   4
ENDBRANCH   6   5
ENDBRANCH   7   6
BRANCH  11  12
ATOM     12  C   UNL     1      49.808  20.185  20.413  0.00  0.00    +0.029 C 
BRANCH  12  13
ATOM     13  C   UNL     1      51.185  20.322  19.760  0.00  0.00    +0.049 C 
BRANCH  13  14
ATOM     14  C   UNL     1      51.068  21.153  18.508  0.00  0.00    -0.062 C 
ATOM     15  C   UNL     1      51.637  20.752  17.399  0.00  0.00    -0.129 C 
ATOM     16  C   UNL     1      51.406  21.508  16.117  0.00  0.00    +0.071 C 
ATOM     17  C   UNL     1      52.523  19.532  17.406  0.00  0.00    +0.071 C 
ENDBRANCH  13  14
ENDBRANCH  12  13
ENDBRANCH  11  12
BRANCH  24  25
ATOM     25  C   UNL     1      46.395  14.724  17.663  0.00  0.00    +0.083 C 
BRANCH  25  26
ATOM     26  C   UNL     1      45.995  13.377  18.269  0.00  0.00    +0.044 C 
BRANCH  26  27
ATOM     27  C   UNL     1      45.479  12.471  17.181  0.00  0.00    -0.055 C 
ATOM     28  C   UNL     1      46.197  11.451  16.782  0.00  0.00    -0.129 C 
ATOM     29  C   UNL     1      45.632  10.474  15.784  0.00  0.00    +0.072 C 
ATOM     30  C   UNL     1      47.591  11.254  17.323  0.00  0.00    +0.072 C 
ENDBRANCH  26  27
ENDBRANCH  25  26
ENDBRANCH  24  25
TORSDOF 13
ENDMDL
MODEL 6
REMARK VINA RESULT:      -5.6      2.132      5.979
REMARK  Name = ZINC95485968
REMARK  23 active torsions:
REMARK  status: ('A' for Active; 'I' for Inactive)
REMARK    1  A    between atoms: C1_1  and  C2_2
REMARK    2  A    between atoms: C2_2  and  C41_49
REMARK    3  A    between atoms: C3_3  and  C4_4
REMARK    4  A    between atoms: C4_4  and  C5_5
REMARK    5  A    between atoms: C5_5  and  C6_6
REMARK    6  A    between atoms: C10_11  and  C35_43
REMARK    7  A    between atoms: C11_13  and  C33_41
REMARK    8  A    between atoms: C11_13  and  C34_42
REMARK    9  A    between atoms: C13_16  and  C26_31
REMARK   10  A    between atoms: C15_19  and  C20_25
REMARK   11  A    between atoms: C17_22  and  C18_23
REMARK   12  A    between atoms: C17_22  and  C19_24
REMARK   13  A    between atoms: C20_25  and  C21_26
REMARK   14  A    between atoms: C21_26  and  C22_27
REMARK   15  A    between atoms: C23_28  and  C24_29
REMARK   16  A    between atoms: C23_28  and  C25_30
REMARK   17  A    between atoms: C26_31  and  C27_33
REMARK   18  A    between atoms: C30_36  and  O6_40
REMARK   19  A    between atoms: C31_37  and  O5_39
REMARK   20  A    between atoms: C35_43  and  C36_44
REMARK   21  A    between atoms: C36_44  and  C37_45
REMARK   22  A    between atoms: C38_46  and  C39_47
REMARK   23  A    between atoms: C38_46  and  C40_48
REMARK                            x       y       z     vdW  Elec       q    Type
REMARK                         _______ _______ _______ _____ _____    ______ ____
ROOT
ATOM      7  C   UNL     1      46.643  16.057  20.905  0.00  0.00    -0.014 C 
ATOM      8  C   UNL     1      46.893  15.714  19.436  0.00  0.00    +0.086 C 
ATOM      9  C   UNL     1      47.621  16.886  18.763  0.00  0.00    -0.100 C 
ATOM     10  C   UNL     1      47.831  16.608  17.291  0.00  0.00    +0.066 C 
ATOM     11  C   UNL     1      49.116  15.854  16.997  0.00  0.00    -0.011 C 
ATOM     18  C   UNL     1      50.302  16.489  17.720  0.00  0.00    +0.115 C 
ATOM     19  C   UNL     1      50.499  17.922  17.223  0.00  0.00    +0.036 C 
ATOM     20  C   UNL     1      51.566  15.671  17.447  0.00  0.00    +0.088 C 
ATOM     21  O   UNL     1      50.033  16.501  19.126  0.00  0.00    -0.283 OA
ATOM     22  C   UNL     1      46.740  18.115  18.927  0.00  0.00    +0.384 C 
ATOM     23  O   UNL     1      46.316  18.742  17.986  0.00  0.00    -0.405 OA
ATOM     24  C   UNL     1      46.434  18.494  20.371  0.00  0.00    -0.129 C 
ATOM     31  C   UNL     1      47.769  18.708  21.051  0.00  0.00    +0.432 C 
ATOM     32  O   UNL     1      47.853  19.459  22.001  0.00  0.00    -0.425 OA
ATOM     33  C   UNL     1      48.953  18.008  20.567  0.00  0.00    -0.329 C 
ATOM     46  C   UNL     1      48.909  17.140  19.498  0.00  0.00    +0.241 C 
ATOM     47  C   UNL     1      45.742  17.287  21.016  0.00  0.00    -0.034 C 
ATOM     48  C   UNL     1      45.471  17.588  22.491  0.00  0.00    +0.048 C 
ATOM     49  C   UNL     1      44.417  17.012  20.301  0.00  0.00    +0.046 C 
ENDROOT
BRANCH  33  34
ATOM     34  C   UNL     1      50.240  18.237  21.242  0.00  0.00    +0.469 C 
ATOM     45  O   UNL     1      50.652  17.431  22.055  0.00  0.00    -0.429 OA
BRANCH  34  35
ATOM     35  C   UNL     1      51.031  19.445  20.935  0.00  0.00    -0.145 A 
ATOM     36  C   UNL     1      51.748  20.088  21.947  0.00  0.00    +0.070 A 
ATOM     37  C   UNL     1      52.486  21.216  21.658  0.00  0.00    -0.000 A 
ATOM     38  C   UNL     1      52.518  21.716  20.363  0.00  0.00    +0.115 A 
ATOM     41  C   UNL     1      51.804  21.079  19.348  0.00  0.00    +0.071 A 
ATOM     44  C   UNL     1      51.068  19.944  19.630  0.00  0.00    +0.074 A 
BRANCH  38  39
ATOM     39  O   UNL     1      53.247  22.827  20.084  0.00  0.00    -0.486 OA
ATOM     40  H   UNL     1      53.422  23.386  20.852  0.00  0.00    +0.394 HD
ENDBRANCH  38  39
BRANCH  41  42
ATOM     42  O   UNL     1      51.837  21.571  18.082  0.00  0.00    -0.483 OA
ATOM     43  H   UNL     1      52.008  20.902  17.404  0.00  0.00    +0.390 HD
ENDBRANCH  41  42
ENDBRANCH  34  35
ENDBRANCH  33  34
BRANCH   7   6
ATOM      6  C   UNL     1      45.969  14.870  21.595  0.00  0.00    +0.038 C 
BRANCH   6   5
ATOM      5  C   UNL     1      47.028  14.019  22.297  0.00  0.00    +0.045 C 
BRANCH   5   4
ATOM      1  C   UNL     1      49.725  14.023  21.469  0.00  0.00    +0.071 C 
ATOM      2  C   UNL     1      48.795  12.928  21.013  0.00  0.00    -0.130 C 
ATOM      3  C   UNL     1      49.322  11.796  20.169  0.00  0.00    +0.070 C 
ATOM      4  C   UNL     1      47.530  12.960  21.350  0.00  0.00    -0.061 C 
ENDBRANCH   5   4
ENDBRANCH   6   5
ENDBRANCH   7   6
BRANCH  11  12
ATOM     12  C   UNL     1      48.964  14.405  17.459  0.00  0.00    +0.029 C 
BRANCH  12  13
ATOM     13  C   UNL     1      48.086  13.641  16.466  0.00  0.00    +0.049 C 
BRANCH  13  14
ATOM     14  C   UNL     1      46.663  13.627  16.960  0.00  0.00    -0.062 C 
ATOM     15  C   UNL     1      46.173  12.546  17.514  0.00  0.00    -0.129 C 
ATOM     16  C   UNL     1      44.799  12.574  18.133  0.00  0.00    +0.071 C 
ATOM     17  C   UNL     1      46.984  11.276  17.534  0.00  0.00    +0.071 C 
ENDBRANCH  13  14
ENDBRANCH  12  13
ENDBRANCH  11  12
BRANCH  24  25
ATOM     25  C   UNL     1      45.570  19.753  20.442  0.00  0.00    +0.083 C 
BRANCH  25  26
ATOM     26  C   UNL     1      46.360  20.946  19.899  0.00  0.00    +0.044 C 
BRANCH  26  27
ATOM     27  C   UNL     1      45.415  21.917  19.240  0.00  0.00    -0.055 C 
ATOM     28  C   UNL     1      45.150  23.065  19.813  0.00  0.00    -0.129 C 
ATOM     29  C   UNL     1      44.304  24.088  19.100  0.00  0.00    +0.072 C 
ATOM     30  C   UNL     1      45.694  23.364  21.188  0.00  0.00    +0.072 C 
ENDBRANCH  26  27
ENDBRANCH  25  26
ENDBRANCH  24  25
TORSDOF 13
ENDMDL
MODEL 7
REMARK VINA RESULT:      -5.2      3.016      8.771
REMARK  Name = ZINC95485968
REMARK  23 active torsions:
REMARK  status: ('A' for Active; 'I' for Inactive)
REMARK    1  A    between atoms: C1_1  and  C2_2
REMARK    2  A    between atoms: C2_2  and  C41_49
REMARK    3  A    between atoms: C3_3  and  C4_4
REMARK    4  A    between atoms: C4_4  and  C5_5
REMARK    5  A    between atoms: C5_5  and  C6_6
REMARK    6  A    between atoms: C10_11  and  C35_43
REMARK    7  A    between atoms: C11_13  and  C33_41
REMARK    8  A    between atoms: C11_13  and  C34_42
REMARK    9  A    between atoms: C13_16  and  C26_31
REMARK   10  A    between atoms: C15_19  and  C20_25
REMARK   11  A    between atoms: C17_22  and  C18_23
REMARK   12  A    between atoms: C17_22  and  C19_24
REMARK   13  A    between atoms: C20_25  and  C21_26
REMARK   14  A    between atoms: C21_26  and  C22_27
REMARK   15  A    between atoms: C23_28  and  C24_29
REMARK   16  A    between atoms: C23_28  and  C25_30
REMARK   17  A    between atoms: C26_31  and  C27_33
REMARK   18  A    between atoms: C30_36  and  O6_40
REMARK   19  A    between atoms: C31_37  and  O5_39
REMARK   20  A    between atoms: C35_43  and  C36_44
REMARK   21  A    between atoms: C36_44  and  C37_45
REMARK   22  A    between atoms: C38_46  and  C39_47
REMARK   23  A    between atoms: C38_46  and  C40_48
REMARK                            x       y       z     vdW  Elec       q    Type
REMARK                         _______ _______ _______ _____ _____    ______ ____
ROOT
ATOM      7  C   UNL     1      48.582  12.948  20.787  0.00  0.00    -0.014 C 
ATOM      8  C   UNL     1      48.940  14.432  20.870  0.00  0.00    +0.086 C 
ATOM      9  C   UNL     1      49.975  14.760  19.783  0.00  0.00    -0.100 C 
ATOM     10  C   UNL     1      50.401  16.209  19.873  0.00  0.00    +0.066 C 
ATOM     11  C   UNL     1      49.511  17.149  19.079  0.00  0.00    -0.011 C 
ATOM     18  C   UNL     1      49.278  16.620  17.665  0.00  0.00    +0.115 C 
ATOM     19  C   UNL     1      50.613  16.532  16.924  0.00  0.00    +0.036 C 
ATOM     20  C   UNL     1      48.333  17.561  16.916  0.00  0.00    +0.088 C 
ATOM     21  O   UNL     1      48.690  15.318  17.750  0.00  0.00    -0.283 OA
ATOM     22  C   UNL     1      51.178  13.861  20.025  0.00  0.00    +0.384 C 
ATOM     23  O   UNL     1      52.285  14.297  20.235  0.00  0.00    -0.405 OA
ATOM     24  C   UNL     1      50.880  12.368  19.980  0.00  0.00    -0.129 C 
ATOM     31  C   UNL     1      50.278  12.089  18.620  0.00  0.00    +0.432 C 
ATOM     32  O   UNL     1      50.393  10.990  18.118  0.00  0.00    -0.425 OA
ATOM     33  C   UNL     1      49.559  13.143  17.913  0.00  0.00    -0.329 C 
ATOM     46  C   UNL     1      49.395  14.405  18.441  0.00  0.00    +0.241 C 
ATOM     47  C   UNL     1      49.818  12.089  21.053  0.00  0.00    -0.034 C 
ATOM     48  C   UNL     1      49.430  10.610  21.007  0.00  0.00    +0.048 C 
ATOM     49  C   UNL     1      50.384  12.425  22.435  0.00  0.00    +0.046 C 
ENDROOT
BRANCH  33  34
ATOM     34  C   UNL     1      48.988  12.848  16.589  0.00  0.00    +0.469 C 
ATOM     45  O   UNL     1      47.838  12.463  16.494  0.00  0.00    -0.429 OA
BRANCH  34  35
ATOM     35  C   UNL     1      49.811  13.019  15.376  0.00  0.00    -0.145 A 
ATOM     36  C   UNL     1      51.168  13.337  15.489  0.00  0.00    +0.070 A 
ATOM     37  C   UNL     1      51.935  13.496  14.355  0.00  0.00    -0.000 A 
ATOM     38  C   UNL     1      51.364  13.343  13.099  0.00  0.00    +0.115 A 
ATOM     41  C   UNL     1      50.010  13.027  12.979  0.00  0.00    +0.071 A 
ATOM     44  C   UNL     1      49.238  12.859  14.112  0.00  0.00    +0.074 A 
BRANCH  38  39
ATOM     39  O   UNL     1      52.124  13.502  11.985  0.00  0.00    -0.486 OA
ATOM     40  H   UNL     1      52.975  13.930  12.147  0.00  0.00    +0.394 HD
ENDBRANCH  38  39
BRANCH  41  42
ATOM     42  O   UNL     1      49.454  12.878  11.748  0.00  0.00    -0.483 OA
ATOM     43  H   UNL     1      48.625  12.381  11.748  0.00  0.00    +0.390 HD
ENDBRANCH  41  42
ENDBRANCH  34  35
ENDBRANCH  33  34
BRANCH   7   6
ATOM      6  C   UNL     1      47.509  12.627  21.830  0.00  0.00    +0.038 C 
BRANCH   6   5
ATOM      5  C   UNL     1      46.126  12.923  21.246  0.00  0.00    +0.045 C 
BRANCH   5   4
ATOM      1  C   UNL     1      45.460  15.092  19.569  0.00  0.00    +0.071 C 
ATOM      2  C   UNL     1      45.230  15.186  21.057  0.00  0.00    -0.130 C 
ATOM      3  C   UNL     1      44.580  16.414  21.641  0.00  0.00    +0.070 C 
ATOM      4  C   UNL     1      45.594  14.202  21.840  0.00  0.00    -0.061 C 
ENDBRANCH   5   4
ENDBRANCH   6   5
ENDBRANCH   7   6
BRANCH  11  12
ATOM     12  C   UNL     1      48.165  17.286  19.791  0.00  0.00    +0.029 C 
BRANCH  12  13
ATOM     13  C   UNL     1      48.159  18.566  20.630  0.00  0.00    +0.049 C 
BRANCH  13  14
ATOM     14  C   UNL     1      47.046  19.467  20.164  0.00  0.00    -0.062 C 
ATOM     15  C   UNL     1      47.306  20.468  19.360  0.00  0.00    -0.129 C 
ATOM     16  C   UNL     1      46.178  21.285  18.784  0.00  0.00    +0.071 C 
ATOM     17  C   UNL     1      48.733  20.802  19.010  0.00  0.00    +0.071 C 
ENDBRANCH  13  14
ENDBRANCH  12  13
ENDBRANCH  11  12
BRANCH  24  25
ATOM     25  C   UNL     1      52.147  11.542  20.204  0.00  0.00    +0.083 C 
BRANCH  25  26
ATOM     26  C   UNL     1      53.205  11.942  19.172  0.00  0.00    +0.044 C 
BRANCH  26  27
ATOM     27  C   UNL     1      54.533  11.343  19.556  0.00  0.00    -0.055 C 
ATOM     28  C   UNL     1      55.548  12.123  19.834  0.00  0.00    -0.129 C 
ATOM     29  C   UNL     1      56.839  11.531  20.337  0.00  0.00    +0.072 C 
ATOM     30  C   UNL     1      55.424  13.614  19.651  0.00  0.00    +0.072 C 
ENDBRANCH  26  27
ENDBRANCH  25  26
ENDBRANCH  24  25
TORSDOF 13
ENDMDL
MODEL 8
REMARK VINA RESULT:      -5.2      3.289      8.273
REMARK  Name = ZINC95485968
REMARK  23 active torsions:
REMARK  status: ('A' for Active; 'I' for Inactive)
REMARK    1  A    between atoms: C1_1  and  C2_2
REMARK    2  A    between atoms: C2_2  and  C41_49
REMARK    3  A    between atoms: C3_3  and  C4_4
REMARK    4  A    between atoms: C4_4  and  C5_5
REMARK    5  A    between atoms: C5_5  and  C6_6
REMARK    6  A    between atoms: C10_11  and  C35_43
REMARK    7  A    between atoms: C11_13  and  C33_41
REMARK    8  A    between atoms: C11_13  and  C34_42
REMARK    9  A    between atoms: C13_16  and  C26_31
REMARK   10  A    between atoms: C15_19  and  C20_25
REMARK   11  A    between atoms: C17_22  and  C18_23
REMARK   12  A    between atoms: C17_22  and  C19_24
REMARK   13  A    between atoms: C20_25  and  C21_26
REMARK   14  A    between atoms: C21_26  and  C22_27
REMARK   15  A    between atoms: C23_28  and  C24_29
REMARK   16  A    between atoms: C23_28  and  C25_30
REMARK   17  A    between atoms: C26_31  and  C27_33
REMARK   18  A    between atoms: C30_36  and  O6_40
REMARK   19  A    between atoms: C31_37  and  O5_39
REMARK   20  A    between atoms: C35_43  and  C36_44
REMARK   21  A    between atoms: C36_44  and  C37_45
REMARK   22  A    between atoms: C38_46  and  C39_47
REMARK   23  A    between atoms: C38_46  and  C40_48
REMARK                            x       y       z     vdW  Elec       q    Type
REMARK                         _______ _______ _______ _____ _____    ______ ____
ROOT
ATOM      7  C   UNL     1      49.721  12.886  20.330  0.00  0.00    -0.014 C 
ATOM      8  C   UNL     1      49.818  14.391  20.580  0.00  0.00    +0.086 C 
ATOM      9  C   UNL     1      50.977  14.964  19.752  0.00  0.00    -0.100 C 
ATOM     10  C   UNL     1      51.143  16.443  20.021  0.00  0.00    +0.066 C 
ATOM     11  C   UNL     1      50.286  17.319  19.124  0.00  0.00    -0.011 C 
ATOM     18  C   UNL     1      50.415  16.899  17.661  0.00  0.00    +0.115 C 
ATOM     19  C   UNL     1      51.865  17.073  17.205  0.00  0.00    +0.036 C 
ATOM     20  C   UNL     1      49.496  17.764  16.797  0.00  0.00    +0.088 C 
ATOM     21  O   UNL     1      50.036  15.525  17.539  0.00  0.00    -0.283 OA
ATOM     22  C   UNL     1      52.238  14.226  20.176  0.00  0.00    +0.384 C 
ATOM     23  O   UNL     1      53.200  14.793  20.636  0.00  0.00    -0.405 OA
ATOM     24  C   UNL     1      52.194  12.717  19.974  0.00  0.00    -0.129 C 
ATOM     31  C   UNL     1      51.917  12.487  18.504  0.00  0.00    +0.432 C 
ATOM     32  O   UNL     1      52.299  11.467  17.967  0.00  0.00    -0.425 OA
ATOM     33  C   UNL     1      51.190  13.489  17.735  0.00  0.00    -0.329 C 
ATOM     46  C   UNL     1      50.730  14.659  18.299  0.00  0.00    +0.241 C 
ATOM     47  C   UNL     1      51.004  12.189  20.786  0.00  0.00    -0.034 C 
ATOM     48  C   UNL     1      50.870  10.681  20.567  0.00  0.00    +0.048 C 
ATOM     49  C   UNL     1      51.232  12.469  22.273  0.00  0.00    +0.046 C 
ENDROOT
BRANCH  33  34
ATOM     34  C   UNL     1      50.939  13.244  16.306  0.00  0.00    +0.469 C 
ATOM     45  O   UNL     1      51.776  13.553  15.480  0.00  0.00    -0.429 OA
BRANCH  34  35
ATOM     35  C   UNL     1      49.669  12.625  15.875  0.00  0.00    -0.145 A 
ATOM     36  C   UNL     1      49.078  11.627  16.654  0.00  0.00    +0.070 A 
ATOM     37  C   UNL     1      47.893  11.050  16.250  0.00  0.00    -0.000 A 
ATOM     38  C   UNL     1      47.286  11.457  15.070  0.00  0.00    +0.115 A 
ATOM     41  C   UNL     1      47.871  12.452  14.288  0.00  0.00    +0.071 A 
ATOM     44  C   UNL     1      49.055  13.039  14.691  0.00  0.00    +0.074 A 
BRANCH  38  39
ATOM     39  O   UNL     1      46.118  10.885  14.676  0.00  0.00    -0.486 OA
ATOM     40  H   UNL     1      45.373  11.498  14.639  0.00  0.00    +0.394 HD
ENDBRANCH  38  39
BRANCH  41  42
ATOM     42  O   UNL     1      47.274  12.848  13.133  0.00  0.00    -0.483 OA
ATOM     43  H   UNL     1      46.442  13.324  13.262  0.00  0.00    +0.390 HD
ENDBRANCH  41  42
ENDBRANCH  34  35
ENDBRANCH  33  34
BRANCH   7   6
ATOM      6  C   UNL     1      48.533  12.318  21.108  0.00  0.00    +0.038 C 
BRANCH   6   5
ATOM      5  C   UNL     1      47.249  12.529  20.303  0.00  0.00    +0.045 C 
BRANCH   5   4
ATOM      1  C   UNL     1      45.304  12.957  18.304  0.00  0.00    +0.071 C 
ATOM      2  C   UNL     1      46.580  13.760  18.303  0.00  0.00    -0.130 C 
ATOM      3  C   UNL     1      46.787  14.841  17.274  0.00  0.00    +0.070 C 
ATOM      4  C   UNL     1      47.507  13.519  19.197  0.00  0.00    -0.061 C 
ENDBRANCH   5   4
ENDBRANCH   6   5
ENDBRANCH   7   6
BRANCH  11  12
ATOM     12  C   UNL     1      48.823  17.195  19.553  0.00  0.00    +0.029 C 
BRANCH  12  13
ATOM     13  C   UNL     1      48.475  18.333  20.515  0.00  0.00    +0.049 C 
BRANCH  13  14
ATOM     14  C   UNL     1      47.302  19.108  19.973  0.00  0.00    -0.062 C 
ATOM     15  C   UNL     1      47.502  20.213  19.299  0.00  0.00    -0.129 C 
ATOM     16  C   UNL     1      46.342  20.914  18.640  0.00  0.00    +0.071 C 
ATOM     17  C   UNL     1      48.893  20.783  19.182  0.00  0.00    +0.071 C 
ENDBRANCH  13  14
ENDBRANCH  12  13
ENDBRANCH  11  12
BRANCH  24  25
ATOM     25  C   UNL     1      53.509  12.062  20.398  0.00  0.00    +0.083 C 
BRANCH  25  26
ATOM     26  C   UNL     1      54.654  12.623  19.552  0.00  0.00    +0.044 C 
BRANCH  26  27
ATOM     27  C   UNL     1      55.900  12.722  20.394  0.00  0.00    -0.055 C 
ATOM     28  C   UNL     1      56.638  13.803  20.347  0.00  0.00    -0.129 C 
ATOM     29  C   UNL     1      57.814  13.955  21.278  0.00  0.00    +0.072 C 
ATOM     30  C   UNL     1      56.312  14.896  19.361  0.00  0.00    +0.072 C 
ENDBRANCH  26  27
ENDBRANCH  25  26
ENDBRANCH  24  25
TORSDOF 13
ENDMDL
MODEL 9
REMARK VINA RESULT:      -4.9      3.643      8.295
REMARK  Name = ZINC95485968
REMARK  23 active torsions:
REMARK  status: ('A' for Active; 'I' for Inactive)
REMARK    1  A    between atoms: C1_1  and  C2_2
REMARK    2  A    between atoms: C2_2  and  C41_49
REMARK    3  A    between atoms: C3_3  and  C4_4
REMARK    4  A    between atoms: C4_4  and  C5_5
REMARK    5  A    between atoms: C5_5  and  C6_6
REMARK    6  A    between atoms: C10_11  and  C35_43
REMARK    7  A    between atoms: C11_13  and  C33_41
REMARK    8  A    between atoms: C11_13  and  C34_42
REMARK    9  A    between atoms: C13_16  and  C26_31
REMARK   10  A    between atoms: C15_19  and  C20_25
REMARK   11  A    between atoms: C17_22  and  C18_23
REMARK   12  A    between atoms: C17_22  and  C19_24
REMARK   13  A    between atoms: C20_25  and  C21_26
REMARK   14  A    between atoms: C21_26  and  C22_27
REMARK   15  A    between atoms: C23_28  and  C24_29
REMARK   16  A    between atoms: C23_28  and  C25_30
REMARK   17  A    between atoms: C26_31  and  C27_33
REMARK   18  A    between atoms: C30_36  and  O6_40
REMARK   19  A    between atoms: C31_37  and  O5_39
REMARK   20  A    between atoms: C35_43  and  C36_44
REMARK   21  A    between atoms: C36_44  and  C37_45
REMARK   22  A    between atoms: C38_46  and  C39_47
REMARK   23  A    between atoms: C38_46  and  C40_48
REMARK                            x       y       z     vdW  Elec       q    Type
REMARK                         _______ _______ _______ _____ _____    ______ ____
ROOT
ATOM      7  C   UNL     1      49.467  12.225  19.229  0.00  0.00    -0.014 C 
ATOM      8  C   UNL     1      48.561  13.330  19.775  0.00  0.00    +0.086 C 
ATOM      9  C   UNL     1      49.349  14.647  19.820  0.00  0.00    -0.100 C 
ATOM     10  C   UNL     1      48.503  15.752  20.414  0.00  0.00    +0.066 C 
ATOM     11  C   UNL     1      47.658  16.483  19.385  0.00  0.00    -0.011 C 
ATOM     18  C   UNL     1      48.492  16.877  18.169  0.00  0.00    +0.115 C 
ATOM     19  C   UNL     1      49.604  17.836  18.599  0.00  0.00    +0.036 C 
ATOM     20  C   UNL     1      47.597  17.558  17.132  0.00  0.00    +0.088 C 
ATOM     21  O   UNL     1      49.070  15.696  17.602  0.00  0.00    -0.283 OA
ATOM     22  C   UNL     1      50.566  14.412  20.701  0.00  0.00    +0.384 C 
ATOM     23  O   UNL     1      50.781  15.053  21.701  0.00  0.00    -0.405 OA
ATOM     24  C   UNL     1      51.496  13.304  20.222  0.00  0.00    -0.129 C 
ATOM     31  C   UNL     1      51.924  13.677  18.819  0.00  0.00    +0.432 C 
ATOM     32  O   UNL     1      52.988  13.287  18.385  0.00  0.00    -0.425 OA
ATOM     33  C   UNL     1      51.055  14.504  17.989  0.00  0.00    -0.329 C 
ATOM     46  C   UNL     1      49.836  14.967  18.433  0.00  0.00    +0.241 C 
ATOM     47  C   UNL     1      50.665  12.016  20.156  0.00  0.00    -0.034 C 
ATOM     48  C   UNL     1      51.535  10.880  19.615  0.00  0.00    +0.048 C 
ATOM     49  C   UNL     1      50.167  11.653  21.557  0.00  0.00    +0.046 C 
ENDROOT
BRANCH  33  34
ATOM     34  C   UNL     1      51.497  14.858  16.631  0.00  0.00    +0.469 C 
ATOM     45  O   UNL     1      51.992  15.948  16.417  0.00  0.00    -0.429 OA
BRANCH  34  35
ATOM     35  C   UNL     1      51.339  13.890  15.528  0.00  0.00    -0.145 A 
ATOM     36  C   UNL     1      50.679  12.678  15.749  0.00  0.00    +0.070 A 
ATOM     37  C   UNL     1      50.532  11.776  14.718  0.00  0.00    -0.000 A 
ATOM     38  C   UNL     1      51.039  12.066  13.459  0.00  0.00    +0.115 A 
ATOM     41  C   UNL     1      51.699  13.273  13.231  0.00  0.00    +0.071 A 
ATOM     44  C   UNL     1      51.843  14.185  14.259  0.00  0.00    +0.074 A 
BRANCH  38  39
ATOM     39  O   UNL     1      50.892  11.173  12.446  0.00  0.00    -0.486 OA
ATOM     40  H   UNL     1      51.295  11.453  11.614  0.00  0.00    +0.394 HD
ENDBRANCH  38  39
BRANCH  41  42
ATOM     42  O   UNL     1      52.195  13.555  11.997  0.00  0.00    -0.483 OA
ATOM     43  H   UNL     1      51.516  13.672  11.318  0.00  0.00    +0.390 HD
ENDBRANCH  41  42
ENDBRANCH  34  35
ENDBRANCH  33  34
BRANCH   7   6
ATOM      6  C   UNL     1      48.672  10.922  19.128  0.00  0.00    +0.038 C 
BRANCH   6   5
ATOM      5  C   UNL     1      48.376  10.619  17.658  0.00  0.00    +0.045 C 
BRANCH   5   4
ATOM      1  C   UNL     1      47.232  12.845  16.357  0.00  0.00    +0.071 C 
ATOM      2  C   UNL     1      46.366  11.681  16.768  0.00  0.00    -0.130 C 
ATOM      3  C   UNL     1      44.899  11.676  16.422  0.00  0.00    +0.070 C 
ATOM      4  C   UNL     1      46.889  10.675  17.423  0.00  0.00    -0.061 C 
ENDBRANCH   5   4
ENDBRANCH   6   5
ENDBRANCH   7   6
BRANCH  11  12
ATOM     12  C   UNL     1      46.516  15.570  18.935  0.00  0.00    +0.029 C 
BRANCH  12  13
ATOM     13  C   UNL     1      45.262  15.879  19.755  0.00  0.00    +0.049 C 
BRANCH  13  14
ATOM     14  C   UNL     1      45.323  15.138  21.065  0.00  0.00    -0.062 C 
ATOM     15  C   UNL     1      45.178  13.836  21.089  0.00  0.00    -0.129 C 
ATOM     16  C   UNL     1      45.376  13.079  22.376  0.00  0.00    +0.071 C 
ATOM     17  C   UNL     1      44.813  13.096  19.827  0.00  0.00    +0.071 C 
ENDBRANCH  13  14
ENDBRANCH  12  13
ENDBRANCH  11  12
BRANCH  24  25
ATOM     25  C   UNL     1      52.705  13.156  21.148  0.00  0.00    +0.083 C 
BRANCH  25  26
ATOM     26  C   UNL     1      53.632  14.361  20.971  0.00  0.00    +0.044 C 
BRANCH  26  27
ATOM     27  C   UNL     1      54.883  14.155  21.786  0.00  0.00    -0.055 C 
ATOM     28  C   UNL     1      56.041  14.023  21.188  0.00  0.00    -0.129 C 
ATOM     29  C   UNL     1      57.306  13.940  22.002  0.00  0.00    +0.072 C 
ATOM     30  C   UNL     1      56.107  13.953  19.683  0.00  0.00    +0.072 C 
ENDBRANCH  26  27
ENDBRANCH  25  26
ENDBRANCH  24  25
TORSDOF 13
ENDMDL
