MODEL 1
REMARK VINA RESULT:      -6.5      0.000      0.000
REMARK  Name = ZINC95486181
REMARK  13 active torsions:
REMARK  status: ('A' for Active; 'I' for Inactive)
REMARK    1  A    between atoms: C1_1  and  C2_2
REMARK    2  A    between atoms: C2_2  and  C3_4
REMARK    3  A    between atoms: C2_2  and  C10_11
REMARK    4  A    between atoms: C3_4  and  C4_5
REMARK    5  A    between atoms: C4_5  and  C5_6
REMARK    6  A    between atoms: C5_6  and  C7_8
REMARK    7  A    between atoms: C7_8  and  C8_9
REMARK    8  A    between atoms: C7_8  and  C9_10
REMARK    9  A    between atoms: C13_15  and  C31_37
REMARK   10  A    between atoms: C14_16  and  C30_36
REMARK   11  A    between atoms: C21_23  and  O1_35
REMARK   12  A    between atoms: C22_25  and  C28_33
REMARK   13  A    between atoms: C22_25  and  C29_34
REMARK                            x       y       z     vdW  Elec       q    Type
REMARK                         _______ _______ _______ _____ _____    ______ ____
ROOT
ATOM      3  C   UNL     1      49.253  17.002  17.161  0.00  0.00    -0.004 C 
ATOM      4  C   UNL     1      49.145  15.459  17.191  0.00  0.00    +0.006 C 
ATOM      5  C   UNL     1      48.447  15.094  18.528  0.00  0.00    +0.012 C 
ATOM      6  C   UNL     1      48.750  16.305  19.421  0.00  0.00    -0.056 C 
ATOM      7  C   UNL     1      50.187  16.243  19.944  0.00  0.00    +0.028 C 
ATOM      8  C   UNL     1      47.775  16.518  20.564  0.00  0.00    +0.028 C 
ATOM      9  C   UNL     1      48.192  17.796  21.317  0.00  0.00    +0.023 C 
ATOM     10  C   UNL     1      47.149  18.080  22.398  0.00  0.00    +0.007 C 
ATOM     11  C   UNL     1      45.840  18.495  21.708  0.00  0.00    +0.023 C 
ATOM     12  C   UNL     1      46.030  19.898  21.165  0.00  0.00    +0.009 C 
ATOM     13  C   UNL     1      44.774  20.609  20.804  0.00  0.00    -0.034 C 
ATOM     14  C   UNL     1      43.589  19.759  21.267  0.00  0.00    +0.027 C 
ATOM     15  C   UNL     1      44.734  21.934  21.568  0.00  0.00    +0.029 C 
ATOM     16  C   UNL     1      44.601  20.904  19.332  0.00  0.00    +0.174 C 
ATOM     19  C   UNL     1      45.854  21.500  18.724  0.00  0.00    -0.018 C 
ATOM     20  C   UNL     1      47.051  20.594  18.866  0.00  0.00    +0.050 C 
ATOM     21  C   UNL     1      47.239  20.032  20.274  0.00  0.00    -0.086 C 
ATOM     22  C   UNL     1      48.561  20.374  20.987  0.00  0.00    +0.007 C 
ATOM     23  C   UNL     1      48.360  18.981  20.382  0.00  0.00    -0.093 C 
ATOM     24  C   UNL     1      49.154  18.719  19.079  0.00  0.00    +0.073 C 
ATOM     25  C   UNL     1      48.552  17.487  18.428  0.00  0.00    -0.046 C 
ATOM     26  C   UNL     1      47.061  17.696  18.155  0.00  0.00    +0.030 C 
ENDROOT
BRANCH   3   2
ATOM      1  C   UNL     1      51.599  16.253  16.744  0.00  0.00    +0.010 C 
ATOM      2  C   UNL     1      50.721  17.431  17.172  0.00  0.00    -0.010 C 
BRANCH   2  27
ATOM     27  C   UNL     1      50.920  18.594  16.199  0.00  0.00    +0.016 C 
BRANCH  27  28
ATOM     28  C   UNL     1      52.204  19.345  16.557  0.00  0.00    +0.049 C 
BRANCH  28  29
ATOM     29  C   UNL     1      51.887  20.446  17.536  0.00  0.00    -0.110 C 
ATOM     33  C   UNL     1      50.970  21.335  17.245  0.00  0.00    -0.010 C 
BRANCH  29  30
ATOM     30  C   UNL     1      52.624  20.524  18.847  0.00  0.00    +0.010 C 
ATOM     31  C   UNL     1      52.553  19.168  19.554  0.00  0.00    +0.024 C 
ATOM     32  C   UNL     1      51.982  21.594  19.732  0.00  0.00    +0.022 C 
ENDBRANCH  29  30
ENDBRANCH  28  29
ENDBRANCH  27  28
ENDBRANCH   2  27
ENDBRANCH   3   2
BRANCH  16  17
ATOM     17  O   UNL     1      43.521  21.826  19.167  0.00  0.00    -0.564 OA
ATOM     18  H   UNL     1      43.521  22.551  19.806  0.00  0.00    +0.375 HD
ENDBRANCH  16  17
TORSDOF 6
ENDMDL
MODEL 2
REMARK VINA RESULT:      -6.3      1.455      2.321
REMARK  Name = ZINC95486181
REMARK  13 active torsions:
REMARK  status: ('A' for Active; 'I' for Inactive)
REMARK    1  A    between atoms: C1_1  and  C2_2
REMARK    2  A    between atoms: C2_2  and  C3_4
REMARK    3  A    between atoms: C2_2  and  C10_11
REMARK    4  A    between atoms: C3_4  and  C4_5
REMARK    5  A    between atoms: C4_5  and  C5_6
REMARK    6  A    between atoms: C5_6  and  C7_8
REMARK    7  A    between atoms: C7_8  and  C8_9
REMARK    8  A    between atoms: C7_8  and  C9_10
REMARK    9  A    between atoms: C13_15  and  C31_37
REMARK   10  A    between atoms: C14_16  and  C30_36
REMARK   11  A    between atoms: C21_23  and  O1_35
REMARK   12  A    between atoms: C22_25  and  C28_33
REMARK   13  A    between atoms: C22_25  and  C29_34
REMARK                            x       y       z     vdW  Elec       q    Type
REMARK                         _______ _______ _______ _____ _____    ______ ____
ROOT
ATOM      3  C   UNL     1      49.254  15.539  17.335  0.00  0.00    -0.004 C 
ATOM      4  C   UNL     1      48.680  14.320  16.574  0.00  0.00    +0.006 C 
ATOM      5  C   UNL     1      47.230  14.123  17.091  0.00  0.00    +0.012 C 
ATOM      6  C   UNL     1      47.263  14.781  18.478  0.00  0.00    -0.056 C 
ATOM      7  C   UNL     1      47.944  13.862  19.494  0.00  0.00    +0.028 C 
ATOM      8  C   UNL     1      45.915  15.246  18.998  0.00  0.00    +0.028 C 
ATOM      9  C   UNL     1      46.137  15.927  20.362  0.00  0.00    +0.023 C 
ATOM     10  C   UNL     1      44.802  16.498  20.838  0.00  0.00    +0.007 C 
ATOM     11  C   UNL     1      44.427  17.674  19.922  0.00  0.00    +0.023 C 
ATOM     12  C   UNL     1      45.337  18.836  20.266  0.00  0.00    +0.009 C 
ATOM     13  C   UNL     1      44.885  20.161  19.762  0.00  0.00    -0.034 C 
ATOM     14  C   UNL     1      43.484  19.999  19.169  0.00  0.00    +0.027 C 
ATOM     15  C   UNL     1      44.789  21.121  20.950  0.00  0.00    +0.029 C 
ATOM     16  C   UNL     1      45.776  20.790  18.715  0.00  0.00    +0.174 C 
ATOM     19  C   UNL     1      47.237  20.736  19.109  0.00  0.00    -0.018 C 
ATOM     20  C   UNL     1      47.724  19.325  19.328  0.00  0.00    +0.050 C 
ATOM     21  C   UNL     1      46.802  18.482  20.207  0.00  0.00    -0.086 C 
ATOM     22  C   UNL     1      47.406  17.919  21.507  0.00  0.00    +0.007 C 
ATOM     23  C   UNL     1      47.211  17.000  20.298  0.00  0.00    -0.093 C 
ATOM     24  C   UNL     1      48.513  16.622  19.552  0.00  0.00    +0.073 C 
ATOM     25  C   UNL     1      48.108  16.058  18.202  0.00  0.00    -0.046 C 
ATOM     26  C   UNL     1      47.279  17.076  17.419  0.00  0.00    +0.030 C 
ENDROOT
BRANCH   3   2
ATOM      1  C   UNL     1      50.921  13.730  17.770  0.00  0.00    +0.010 C 
ATOM      2  C   UNL     1      50.430  15.109  18.214  0.00  0.00    -0.010 C 
BRANCH   2  27
ATOM     27  C   UNL     1      51.567  16.124  18.075  0.00  0.00    +0.016 C 
BRANCH  27  28
ATOM     28  C   UNL     1      51.177  17.189  17.048  0.00  0.00    +0.049 C 
BRANCH  28  29
ATOM     29  C   UNL     1      51.254  18.553  17.684  0.00  0.00    -0.110 C 
ATOM     33  C   UNL     1      51.478  18.664  18.969  0.00  0.00    -0.010 C 
BRANCH  29  30
ATOM     30  C   UNL     1      51.071  19.788  16.841  0.00  0.00    +0.010 C 
ATOM     31  C   UNL     1      52.234  19.907  15.853  0.00  0.00    +0.024 C 
ATOM     32  C   UNL     1      51.041  21.023  17.744  0.00  0.00    +0.022 C 
ENDBRANCH  29  30
ENDBRANCH  28  29
ENDBRANCH  27  28
ENDBRANCH   2  27
ENDBRANCH   3   2
BRANCH  16  17
ATOM     17  O   UNL     1      45.392  22.156  18.539  0.00  0.00    -0.564 OA
ATOM     18  H   UNL     1      45.041  22.356  17.661  0.00  0.00    +0.375 HD
ENDBRANCH  16  17
TORSDOF 6
ENDMDL
MODEL 3
REMARK VINA RESULT:      -6.2      2.342      6.386
REMARK  Name = ZINC95486181
REMARK  13 active torsions:
REMARK  status: ('A' for Active; 'I' for Inactive)
REMARK    1  A    between atoms: C1_1  and  C2_2
REMARK    2  A    between atoms: C2_2  and  C3_4
REMARK    3  A    between atoms: C2_2  and  C10_11
REMARK    4  A    between atoms: C3_4  and  C4_5
REMARK    5  A    between atoms: C4_5  and  C5_6
REMARK    6  A    between atoms: C5_6  and  C7_8
REMARK    7  A    between atoms: C7_8  and  C8_9
REMARK    8  A    between atoms: C7_8  and  C9_10
REMARK    9  A    between atoms: C13_15  and  C31_37
REMARK   10  A    between atoms: C14_16  and  C30_36
REMARK   11  A    between atoms: C21_23  and  O1_35
REMARK   12  A    between atoms: C22_25  and  C28_33
REMARK   13  A    between atoms: C22_25  and  C29_34
REMARK                            x       y       z     vdW  Elec       q    Type
REMARK                         _______ _______ _______ _____ _____    ______ ____
ROOT
ATOM      3  C   UNL     1      45.095  17.488  19.909  0.00  0.00    -0.004 C 
ATOM      4  C   UNL     1      43.939  18.516  19.890  0.00  0.00    +0.006 C 
ATOM      5  C   UNL     1      44.599  19.919  19.969  0.00  0.00    +0.012 C 
ATOM      6  C   UNL     1      45.954  19.630  20.630  0.00  0.00    -0.056 C 
ATOM      7  C   UNL     1      45.784  19.425  22.138  0.00  0.00    +0.028 C 
ATOM      8  C   UNL     1      47.035  20.656  20.350  0.00  0.00    +0.028 C 
ATOM      9  C   UNL     1      48.332  20.186  21.037  0.00  0.00    +0.023 C 
ATOM     10  C   UNL     1      49.454  21.155  20.664  0.00  0.00    +0.007 C 
ATOM     11  C   UNL     1      49.769  20.975  19.171  0.00  0.00    +0.023 C 
ATOM     12  C   UNL     1      50.506  19.661  19.009  0.00  0.00    +0.009 C 
ATOM     13  C   UNL     1      51.219  19.493  17.714  0.00  0.00    -0.034 C 
ATOM     14  C   UNL     1      51.154  20.819  16.954  0.00  0.00    +0.027 C 
ATOM     15  C   UNL     1      52.689  19.188  18.011  0.00  0.00    +0.029 C 
ATOM     16  C   UNL     1      50.679  18.403  16.818  0.00  0.00    +0.174 C 
ATOM     19  C   UNL     1      50.446  17.112  17.575  0.00  0.00    -0.018 C 
ATOM     20  C   UNL     1      49.475  17.280  18.717  0.00  0.00    +0.050 C 
ATOM     21  C   UNL     1      49.768  18.488  19.605  0.00  0.00    -0.086 C 
ATOM     22  C   UNL     1      50.052  18.204  21.092  0.00  0.00    +0.007 C 
ATOM     23  C   UNL     1      48.687  18.755  20.670  0.00  0.00    -0.093 C 
ATOM     24  C   UNL     1      47.530  17.729  20.715  0.00  0.00    +0.073 C 
ATOM     25  C   UNL     1      46.379  18.314  19.917  0.00  0.00    -0.046 C 
ATOM     26  C   UNL     1      46.818  18.615  18.482  0.00  0.00    +0.030 C 
ENDROOT
BRANCH   3   2
ATOM      1  C   UNL     1      43.633  16.782  21.808  0.00  0.00    +0.010 C 
ATOM      2  C   UNL     1      45.014  16.624  21.169  0.00  0.00    -0.010 C 
BRANCH   2  27
ATOM     27  C   UNL     1      45.238  15.157  20.795  0.00  0.00    +0.016 C 
BRANCH  27  28
ATOM     28  C   UNL     1      45.464  15.044  19.286  0.00  0.00    +0.049 C 
BRANCH  28  29
ATOM     29  C   UNL     1      46.796  14.390  19.025  0.00  0.00    -0.110 C 
ATOM     33  C   UNL     1      47.575  14.069  20.027  0.00  0.00    -0.010 C 
BRANCH  29  30
ATOM     30  C   UNL     1      47.231  14.105  17.611  0.00  0.00    +0.010 C 
ATOM     31  C   UNL     1      48.727  13.782  17.592  0.00  0.00    +0.024 C 
ATOM     32  C   UNL     1      46.963  15.332  16.737  0.00  0.00    +0.022 C 
ENDBRANCH  29  30
ENDBRANCH  28  29
ENDBRANCH  27  28
ENDBRANCH   2  27
ENDBRANCH   3   2
BRANCH  16  17
ATOM     17  O   UNL     1      51.616  18.161  15.765  0.00  0.00    -0.564 OA
ATOM     18  H   UNL     1      51.748  18.915  15.175  0.00  0.00    +0.375 HD
ENDBRANCH  16  17
TORSDOF 6
ENDMDL
MODEL 4
REMARK VINA RESULT:      -6.0      2.171      6.155
REMARK  Name = ZINC95486181
REMARK  13 active torsions:
REMARK  status: ('A' for Active; 'I' for Inactive)
REMARK    1  A    between atoms: C1_1  and  C2_2
REMARK    2  A    between atoms: C2_2  and  C3_4
REMARK    3  A    between atoms: C2_2  and  C10_11
REMARK    4  A    between atoms: C3_4  and  C4_5
REMARK    5  A    between atoms: C4_5  and  C5_6
REMARK    6  A    between atoms: C5_6  and  C7_8
REMARK    7  A    between atoms: C7_8  and  C8_9
REMARK    8  A    between atoms: C7_8  and  C9_10
REMARK    9  A    between atoms: C13_15  and  C31_37
REMARK   10  A    between atoms: C14_16  and  C30_36
REMARK   11  A    between atoms: C21_23  and  O1_35
REMARK   12  A    between atoms: C22_25  and  C28_33
REMARK   13  A    between atoms: C22_25  and  C29_34
REMARK                            x       y       z     vdW  Elec       q    Type
REMARK                         _______ _______ _______ _____ _____    ______ ____
ROOT
ATOM      3  C   UNL     1      50.188  19.779  18.185  0.00  0.00    -0.004 C 
ATOM      4  C   UNL     1      51.122  20.407  17.124  0.00  0.00    +0.006 C 
ATOM      5  C   UNL     1      51.830  19.225  16.408  0.00  0.00    +0.012 C 
ATOM      6  C   UNL     1      51.760  18.098  17.448  0.00  0.00    -0.056 C 
ATOM      7  C   UNL     1      52.813  18.305  18.538  0.00  0.00    +0.028 C 
ATOM      8  C   UNL     1      51.852  16.695  16.877  0.00  0.00    +0.028 C 
ATOM      9  C   UNL     1      51.711  15.694  18.040  0.00  0.00    +0.023 C 
ATOM     10  C   UNL     1      51.688  14.280  17.459  0.00  0.00    +0.007 C 
ATOM     11  C   UNL     1      50.373  14.099  16.685  0.00  0.00    +0.023 C 
ATOM     12  C   UNL     1      49.254  13.974  17.699  0.00  0.00    +0.009 C 
ATOM     13  C   UNL     1      47.979  13.421  17.166  0.00  0.00    -0.034 C 
ATOM     14  C   UNL     1      48.222  12.948  15.732  0.00  0.00    +0.027 C 
ATOM     15  C   UNL     1      47.595  12.202  18.008  0.00  0.00    +0.029 C 
ATOM     16  C   UNL     1      46.812  14.382  17.160  0.00  0.00    +0.174 C 
ATOM     19  C   UNL     1      46.674  15.111  18.480  0.00  0.00    -0.018 C 
ATOM     20  C   UNL     1      47.908  15.902  18.835  0.00  0.00    +0.050 C 
ATOM     21  C   UNL     1      49.210  15.118  18.681  0.00  0.00    -0.086 C 
ATOM     22  C   UNL     1      50.070  14.945  19.947  0.00  0.00    +0.007 C 
ATOM     23  C   UNL     1      50.478  15.969  18.884  0.00  0.00    -0.093 C 
ATOM     24  C   UNL     1      50.232  17.446  19.277  0.00  0.00    +0.073 C 
ATOM     25  C   UNL     1      50.317  18.268  18.003  0.00  0.00    -0.046 C 
ATOM     26  C   UNL     1      49.298  17.775  16.975  0.00  0.00    +0.030 C 
ENDROOT
BRANCH   3   2
ATOM      1  C   UNL     1      51.602  21.366  19.498  0.00  0.00    +0.010 C 
ATOM      2  C   UNL     1      50.636  20.183  19.591  0.00  0.00    -0.010 C 
BRANCH   2  27
ATOM     27  C   UNL     1      49.414  20.587  20.419  0.00  0.00    +0.016 C 
BRANCH  27  28
ATOM     28  C   UNL     1      48.205  20.754  19.496  0.00  0.00    +0.049 C 
BRANCH  28  29
ATOM     29  C   UNL     1      47.108  19.816  19.929  0.00  0.00    -0.110 C 
ATOM     33  C   UNL     1      47.310  18.988  20.924  0.00  0.00    -0.010 C 
BRANCH  29  30
ATOM     30  C   UNL     1      45.780  19.832  19.219  0.00  0.00    +0.010 C 
ATOM     31  C   UNL     1      45.839  18.901  18.005  0.00  0.00    +0.024 C 
ATOM     32  C   UNL     1      45.465  21.255  18.756  0.00  0.00    +0.022 C 
ENDBRANCH  29  30
ENDBRANCH  28  29
ENDBRANCH  27  28
ENDBRANCH   2  27
ENDBRANCH   3   2
BRANCH  16  17
ATOM     17  O   UNL     1      45.610  13.651  16.905  0.00  0.00    -0.564 OA
ATOM     18  H   UNL     1      45.390  13.005  17.590  0.00  0.00    +0.375 HD
ENDBRANCH  16  17
TORSDOF 6
ENDMDL
MODEL 5
REMARK VINA RESULT:      -5.9      2.636      5.154
REMARK  Name = ZINC95486181
REMARK  13 active torsions:
REMARK  status: ('A' for Active; 'I' for Inactive)
REMARK    1  A    between atoms: C1_1  and  C2_2
REMARK    2  A    between atoms: C2_2  and  C3_4
REMARK    3  A    between atoms: C2_2  and  C10_11
REMARK    4  A    between atoms: C3_4  and  C4_5
REMARK    5  A    between atoms: C4_5  and  C5_6
REMARK    6  A    between atoms: C5_6  and  C7_8
REMARK    7  A    between atoms: C7_8  and  C8_9
REMARK    8  A    between atoms: C7_8  and  C9_10
REMARK    9  A    between atoms: C13_15  and  C31_37
REMARK   10  A    between atoms: C14_16  and  C30_36
REMARK   11  A    between atoms: C21_23  and  O1_35
REMARK   12  A    between atoms: C22_25  and  C28_33
REMARK   13  A    between atoms: C22_25  and  C29_34
REMARK                            x       y       z     vdW  Elec       q    Type
REMARK                         _______ _______ _______ _____ _____    ______ ____
ROOT
ATOM      3  C   UNL     1      50.252  19.268  19.523  0.00  0.00    -0.004 C 
ATOM      4  C   UNL     1      50.181  20.232  20.731  0.00  0.00    +0.006 C 
ATOM      5  C   UNL     1      48.754  20.086  21.325  0.00  0.00    +0.012 C 
ATOM      6  C   UNL     1      47.933  19.571  20.135  0.00  0.00    -0.056 C 
ATOM      7  C   UNL     1      47.610  20.713  19.169  0.00  0.00    +0.028 C 
ATOM      8  C   UNL     1      46.671  18.815  20.509  0.00  0.00    +0.028 C 
ATOM      9  C   UNL     1      46.004  18.325  19.209  0.00  0.00    +0.023 C 
ATOM     10  C   UNL     1      44.796  17.466  19.581  0.00  0.00    +0.007 C 
ATOM     11  C   UNL     1      45.308  16.165  20.218  0.00  0.00    +0.023 C 
ATOM     12  C   UNL     1      45.896  15.310  19.114  0.00  0.00    +0.009 C 
ATOM     13  C   UNL     1      46.094  13.877  19.464  0.00  0.00    -0.034 C 
ATOM     14  C   UNL     1      45.459  13.623  20.832  0.00  0.00    +0.027 C 
ATOM     15  C   UNL     1      45.355  13.023  18.432  0.00  0.00    +0.029 C 
ATOM     16  C   UNL     1      47.534  13.420  19.515  0.00  0.00    +0.174 C 
ATOM     19  C   UNL     1      48.317  13.883  18.304  0.00  0.00    -0.018 C 
ATOM     20  C   UNL     1      48.325  15.384  18.160  0.00  0.00    +0.050 C 
ATOM     21  C   UNL     1      46.946  16.026  18.302  0.00  0.00    -0.086 C 
ATOM     22  C   UNL     1      46.426  16.828  17.095  0.00  0.00    +0.007 C 
ATOM     23  C   UNL     1      46.974  17.566  18.319  0.00  0.00    -0.093 C 
ATOM     24  C   UNL     1      48.368  18.208  18.121  0.00  0.00    +0.073 C 
ATOM     25  C   UNL     1      48.909  18.540  19.500  0.00  0.00    -0.046 C 
ATOM     26  C   UNL     1      48.980  17.282  20.367  0.00  0.00    +0.030 C 
ENDROOT
BRANCH   3   2
ATOM      1  C   UNL     1      51.177  21.367  18.533  0.00  0.00    +0.010 C 
ATOM      2  C   UNL     1      50.448  20.056  18.227  0.00  0.00    -0.010 C 
BRANCH   2  27
ATOM     27  C   UNL     1      51.281  19.227  17.247  0.00  0.00    +0.016 C 
BRANCH  27  28
ATOM     28  C   UNL     1      52.380  18.486  18.012  0.00  0.00    +0.049 C 
BRANCH  28  29
ATOM     29  C   UNL     1      52.197  17.000  17.843  0.00  0.00    -0.110 C 
ATOM     33  C   UNL     1      51.550  16.535  16.804  0.00  0.00    -0.010 C 
BRANCH  29  30
ATOM     30  C   UNL     1      52.757  16.050  18.870  0.00  0.00    +0.010 C 
ATOM     31  C   UNL     1      51.896  14.786  18.919  0.00  0.00    +0.024 C 
ATOM     32  C   UNL     1      52.755  16.723  20.244  0.00  0.00    +0.022 C 
ENDBRANCH  29  30
ENDBRANCH  28  29
ENDBRANCH  27  28
ENDBRANCH   2  27
ENDBRANCH   3   2
BRANCH  16  17
ATOM     17  O   UNL     1      47.567  11.992  19.571  0.00  0.00    -0.564 OA
ATOM     18  H   UNL     1      47.516  11.563  18.706  0.00  0.00    +0.375 HD
ENDBRANCH  16  17
TORSDOF 6
ENDMDL
MODEL 6
REMARK VINA RESULT:      -5.9      2.747      7.444
REMARK  Name = ZINC95486181
REMARK  13 active torsions:
REMARK  status: ('A' for Active; 'I' for Inactive)
REMARK    1  A    between atoms: C1_1  and  C2_2
REMARK    2  A    between atoms: C2_2  and  C3_4
REMARK    3  A    between atoms: C2_2  and  C10_11
REMARK    4  A    between atoms: C3_4  and  C4_5
REMARK    5  A    between atoms: C4_5  and  C5_6
REMARK    6  A    between atoms: C5_6  and  C7_8
REMARK    7  A    between atoms: C7_8  and  C8_9
REMARK    8  A    between atoms: C7_8  and  C9_10
REMARK    9  A    between atoms: C13_15  and  C31_37
REMARK   10  A    between atoms: C14_16  and  C30_36
REMARK   11  A    between atoms: C21_23  and  O1_35
REMARK   12  A    between atoms: C22_25  and  C28_33
REMARK   13  A    between atoms: C22_25  and  C29_34
REMARK                            x       y       z     vdW  Elec       q    Type
REMARK                         _______ _______ _______ _____ _____    ______ ____
ROOT
ATOM      3  C   UNL     1      45.255  19.837  19.557  0.00  0.00    -0.004 C 
ATOM      4  C   UNL     1      45.853  21.154  19.006  0.00  0.00    +0.006 C 
ATOM      5  C   UNL     1      47.338  20.854  18.668  0.00  0.00    +0.012 C 
ATOM      6  C   UNL     1      47.666  19.659  19.573  0.00  0.00    -0.056 C 
ATOM      7  C   UNL     1      47.900  20.123  21.013  0.00  0.00    +0.028 C 
ATOM      8  C   UNL     1      48.819  18.794  19.097  0.00  0.00    +0.028 C 
ATOM      9  C   UNL     1      48.976  17.621  20.083  0.00  0.00    +0.023 C 
ATOM     10  C   UNL     1      50.059  16.684  19.549  0.00  0.00    +0.007 C 
ATOM     11  C   UNL     1      49.522  16.001  18.281  0.00  0.00    +0.023 C 
ATOM     12  C   UNL     1      48.491  14.977  18.709  0.00  0.00    +0.009 C 
ATOM     13  C   UNL     1      48.141  13.965  17.676  0.00  0.00    -0.034 C 
ATOM     14  C   UNL     1      49.088  14.142  16.488  0.00  0.00    +0.027 C 
ATOM     15  C   UNL     1      48.375  12.573  18.266  0.00  0.00    +0.029 C 
ATOM     16  C   UNL     1      46.719  14.031  17.165  0.00  0.00    +0.174 C 
ATOM     19  C   UNL     1      45.718  14.143  18.295  0.00  0.00    -0.018 C 
ATOM     20  C   UNL     1      45.947  15.364  19.151  0.00  0.00    +0.050 C 
ATOM     21  C   UNL     1      47.401  15.557  19.576  0.00  0.00    -0.086 C 
ATOM     22  C   UNL     1      47.686  15.568  21.089  0.00  0.00    +0.007 C 
ATOM     23  C   UNL     1      47.666  16.885  20.309  0.00  0.00    -0.093 C 
ATOM     24  C   UNL     1      46.419  17.768  20.558  0.00  0.00    +0.073 C 
ATOM     25  C   UNL     1      46.374  18.802  19.448  0.00  0.00    -0.046 C 
ATOM     26  C   UNL     1      46.327  18.122  18.079  0.00  0.00    +0.030 C 
ENDROOT
BRANCH   3   2
ATOM      1  C   UNL     1      44.819  21.505  21.365  0.00  0.00    +0.010 C 
ATOM      2  C   UNL     1      44.839  20.015  21.018  0.00  0.00    -0.010 C 
BRANCH   2  27
ATOM     27  C   UNL     1      43.443  19.424  21.226  0.00  0.00    +0.016 C 
BRANCH  27  28
ATOM     28  C   UNL     1      42.808  19.128  19.865  0.00  0.00    +0.049 C 
BRANCH  28  29
ATOM     29  C   UNL     1      41.501  19.868  19.749  0.00  0.00    -0.110 C 
ATOM     33  C   UNL     1      40.532  19.624  20.596  0.00  0.00    -0.010 C 
BRANCH  29  30
ATOM     30  C   UNL     1      41.308  20.890  18.659  0.00  0.00    +0.010 C 
ATOM     31  C   UNL     1      42.062  22.172  19.023  0.00  0.00    +0.024 C 
ATOM     32  C   UNL     1      39.818  21.201  18.507  0.00  0.00    +0.022 C 
ENDBRANCH  29  30
ENDBRANCH  28  29
ENDBRANCH  27  28
ENDBRANCH   2  27
ENDBRANCH   3   2
BRANCH  16  17
ATOM     17  O   UNL     1      46.441  12.847  16.413  0.00  0.00    -0.564 OA
ATOM     18  H   UNL     1      46.359  12.996  15.462  0.00  0.00    +0.375 HD
ENDBRANCH  16  17
TORSDOF 6
ENDMDL
MODEL 7
REMARK VINA RESULT:      -5.7      2.730      5.895
REMARK  Name = ZINC95486181
REMARK  13 active torsions:
REMARK  status: ('A' for Active; 'I' for Inactive)
REMARK    1  A    between atoms: C1_1  and  C2_2
REMARK    2  A    between atoms: C2_2  and  C3_4
REMARK    3  A    between atoms: C2_2  and  C10_11
REMARK    4  A    between atoms: C3_4  and  C4_5
REMARK    5  A    between atoms: C4_5  and  C5_6
REMARK    6  A    between atoms: C5_6  and  C7_8
REMARK    7  A    between atoms: C7_8  and  C8_9
REMARK    8  A    between atoms: C7_8  and  C9_10
REMARK    9  A    between atoms: C13_15  and  C31_37
REMARK   10  A    between atoms: C14_16  and  C30_36
REMARK   11  A    between atoms: C21_23  and  O1_35
REMARK   12  A    between atoms: C22_25  and  C28_33
REMARK   13  A    between atoms: C22_25  and  C29_34
REMARK                            x       y       z     vdW  Elec       q    Type
REMARK                         _______ _______ _______ _____ _____    ______ ____
ROOT
ATOM      3  C   UNL     1      48.729  19.047  20.473  0.00  0.00    -0.004 C 
ATOM      4  C   UNL     1      48.374  19.137  21.976  0.00  0.00    +0.006 C 
ATOM      5  C   UNL     1      47.486  17.904  22.293  0.00  0.00    +0.012 C 
ATOM      6  C   UNL     1      46.887  17.547  20.925  0.00  0.00    -0.056 C 
ATOM      7  C   UNL     1      45.747  18.504  20.570  0.00  0.00    +0.028 C 
ATOM      8  C   UNL     1      46.437  16.105  20.780  0.00  0.00    +0.028 C 
ATOM      9  C   UNL     1      45.919  15.907  19.343  0.00  0.00    +0.023 C 
ATOM     10  C   UNL     1      45.571  14.430  19.155  0.00  0.00    +0.007 C 
ATOM     11  C   UNL     1      46.879  13.623  19.166  0.00  0.00    +0.023 C 
ATOM     12  C   UNL     1      47.593  13.883  17.854  0.00  0.00    +0.009 C 
ATOM     13  C   UNL     1      48.670  12.913  17.520  0.00  0.00    -0.034 C 
ATOM     14  C   UNL     1      48.632  11.779  18.546  0.00  0.00    +0.027 C 
ATOM     15  C   UNL     1      48.371  12.317  16.143  0.00  0.00    +0.029 C 
ATOM     16  C   UNL     1      50.069  13.486  17.496  0.00  0.00    +0.174 C 
ATOM     19  C   UNL     1      50.133  14.785  16.719  0.00  0.00    -0.018 C 
ATOM     20  C   UNL     1      49.221  15.843  17.287  0.00  0.00    +0.050 C 
ATOM     21  C   UNL     1      47.805  15.350  17.574  0.00  0.00    -0.086 C 
ATOM     22  C   UNL     1      46.658  16.060  16.829  0.00  0.00    +0.007 C 
ATOM     23  C   UNL     1      46.921  16.379  18.304  0.00  0.00    -0.093 C 
ATOM     24  C   UNL     1      47.579  17.756  18.562  0.00  0.00    +0.073 C 
ATOM     25  C   UNL     1      48.111  17.738  19.984  0.00  0.00    -0.046 C 
ATOM     26  C   UNL     1      49.102  16.588  20.174  0.00  0.00    +0.030 C 
ENDROOT
BRANCH   3   2
ATOM      1  C   UNL     1      47.700  21.311  20.712  0.00  0.00    +0.010 C 
ATOM      2  C   UNL     1      48.127  20.231  19.715  0.00  0.00    -0.010 C 
BRANCH   2  27
ATOM     27  C   UNL     1      49.172  20.806  18.757  0.00  0.00    +0.016 C 
BRANCH  27  28
ATOM     28  C   UNL     1      50.531  20.161  19.037  0.00  0.00    +0.049 C 
BRANCH  28  29
ATOM     29  C   UNL     1      51.355  20.154  17.775  0.00  0.00    -0.110 C 
ATOM     33  C   UNL     1      51.349  21.199  16.985  0.00  0.00    -0.010 C 
BRANCH  29  30
ATOM     30  C   UNL     1      52.184  18.947  17.424  0.00  0.00    +0.010 C 
ATOM     31  C   UNL     1      51.658  18.326  16.127  0.00  0.00    +0.024 C 
ATOM     32  C   UNL     1      52.096  17.920  18.554  0.00  0.00    +0.022 C 
ENDBRANCH  29  30
ENDBRANCH  28  29
ENDBRANCH  27  28
ENDBRANCH   2  27
ENDBRANCH   3   2
BRANCH  16  17
ATOM     17  O   UNL     1      50.949  12.538  16.888  0.00  0.00    -0.564 OA
ATOM     18  H   UNL     1      51.862  12.844  16.806  0.00  0.00    +0.375 HD
ENDBRANCH  16  17
TORSDOF 6
ENDMDL
MODEL 8
REMARK VINA RESULT:      -5.6      2.527      7.070
REMARK  Name = ZINC95486181
REMARK  13 active torsions:
REMARK  status: ('A' for Active; 'I' for Inactive)
REMARK    1  A    between atoms: C1_1  and  C2_2
REMARK    2  A    between atoms: C2_2  and  C3_4
REMARK    3  A    between atoms: C2_2  and  C10_11
REMARK    4  A    between atoms: C3_4  and  C4_5
REMARK    5  A    between atoms: C4_5  and  C5_6
REMARK    6  A    between atoms: C5_6  and  C7_8
REMARK    7  A    between atoms: C7_8  and  C8_9
REMARK    8  A    between atoms: C7_8  and  C9_10
REMARK    9  A    between atoms: C13_15  and  C31_37
REMARK   10  A    between atoms: C14_16  and  C30_36
REMARK   11  A    between atoms: C21_23  and  O1_35
REMARK   12  A    between atoms: C22_25  and  C28_33
REMARK   13  A    between atoms: C22_25  and  C29_34
REMARK                            x       y       z     vdW  Elec       q    Type
REMARK                         _______ _______ _______ _____ _____    ______ ____
ROOT
ATOM      3  C   UNL     1      45.304  18.941  20.317  0.00  0.00    -0.004 C 
ATOM      4  C   UNL     1      44.494  20.018  19.557  0.00  0.00    +0.006 C 
ATOM      5  C   UNL     1      45.530  20.896  18.805  0.00  0.00    +0.012 C 
ATOM      6  C   UNL     1      46.814  20.696  19.623  0.00  0.00    -0.056 C 
ATOM      7  C   UNL     1      46.770  21.528  20.906  0.00  0.00    +0.028 C 
ATOM      8  C   UNL     1      48.103  20.954  18.864  0.00  0.00    +0.028 C 
ATOM      9  C   UNL     1      49.282  20.656  19.808  0.00  0.00    +0.023 C 
ATOM     10  C   UNL     1      50.582  20.802  19.017  0.00  0.00    +0.007 C 
ATOM     11  C   UNL     1      50.657  19.656  17.996  0.00  0.00    +0.023 C 
ATOM     12  C   UNL     1      50.966  18.381  18.756  0.00  0.00    +0.009 C 
ATOM     13  C   UNL     1      51.446  17.249  17.917  0.00  0.00    -0.034 C 
ATOM     14  C   UNL     1      51.672  17.765  16.495  0.00  0.00    +0.027 C 
ATOM     15  C   UNL     1      52.793  16.779  18.471  0.00  0.00    +0.029 C 
ATOM     16  C   UNL     1      50.518  16.058  17.850  0.00  0.00    +0.174 C 
ATOM     19  C   UNL     1      50.017  15.654  19.221  0.00  0.00    -0.018 C 
ATOM     20  C   UNL     1      49.274  16.766  19.917  0.00  0.00    +0.050 C 
ATOM     21  C   UNL     1      49.999  18.110  19.881  0.00  0.00    -0.086 C 
ATOM     22  C   UNL     1      50.363  18.739  21.240  0.00  0.00    +0.007 C 
ATOM     23  C   UNL     1      49.171  19.281  20.445  0.00  0.00    -0.093 C 
ATOM     24  C   UNL     1      47.783  18.900  21.015  0.00  0.00    +0.073 C 
ATOM     25  C   UNL     1      46.762  19.171  19.925  0.00  0.00    -0.046 C 
ATOM     26  C   UNL     1      47.097  18.375  18.662  0.00  0.00    +0.030 C 
ENDROOT
BRANCH   3   2
ATOM      1  C   UNL     1      43.899  19.981  22.101  0.00  0.00    +0.010 C 
ATOM      2  C   UNL     1      45.128  19.112  21.827  0.00  0.00    -0.010 C 
BRANCH   2  27
ATOM     27  C   UNL     1      44.939  17.740  22.477  0.00  0.00    +0.016 C 
BRANCH  27  28
ATOM     28  C   UNL     1      44.374  16.761  21.446  0.00  0.00    +0.049 C 
BRANCH  28  29
ATOM     29  C   UNL     1      45.115  15.452  21.536  0.00  0.00    -0.110 C 
ATOM     33  C   UNL     1      44.792  14.580  22.458  0.00  0.00    -0.010 C 
BRANCH  29  30
ATOM     30  C   UNL     1      46.227  15.148  20.566  0.00  0.00    +0.010 C 
ATOM     31  C   UNL     1      45.629  14.702  19.229  0.00  0.00    +0.024 C 
ATOM     32  C   UNL     1      47.105  14.030  21.130  0.00  0.00    +0.022 C 
ENDBRANCH  29  30
ENDBRANCH  28  29
ENDBRANCH  27  28
ENDBRANCH   2  27
ENDBRANCH   3   2
BRANCH  16  17
ATOM     17  O   UNL     1      51.218  14.956  17.267  0.00  0.00    -0.564 OA
ATOM     18  H   UNL     1      51.830  15.208  16.563  0.00  0.00    +0.375 HD
ENDBRANCH  16  17
TORSDOF 6
ENDMDL
MODEL 9
REMARK VINA RESULT:      -5.4      3.039      6.163
REMARK  Name = ZINC95486181
REMARK  13 active torsions:
REMARK  status: ('A' for Active; 'I' for Inactive)
REMARK    1  A    between atoms: C1_1  and  C2_2
REMARK    2  A    between atoms: C2_2  and  C3_4
REMARK    3  A    between atoms: C2_2  and  C10_11
REMARK    4  A    between atoms: C3_4  and  C4_5
REMARK    5  A    between atoms: C4_5  and  C5_6
REMARK    6  A    between atoms: C5_6  and  C7_8
REMARK    7  A    between atoms: C7_8  and  C8_9
REMARK    8  A    between atoms: C7_8  and  C9_10
REMARK    9  A    between atoms: C13_15  and  C31_37
REMARK   10  A    between atoms: C14_16  and  C30_36
REMARK   11  A    between atoms: C21_23  and  O1_35
REMARK   12  A    between atoms: C22_25  and  C28_33
REMARK   13  A    between atoms: C22_25  and  C29_34
REMARK                            x       y       z     vdW  Elec       q    Type
REMARK                         _______ _______ _______ _____ _____    ______ ____
ROOT
ATOM      3  C   UNL     1      47.809  14.197  17.324  0.00  0.00    -0.004 C 
ATOM      4  C   UNL     1      46.304  14.207  17.684  0.00  0.00    +0.006 C 
ATOM      5  C   UNL     1      46.100  15.372  18.689  0.00  0.00    +0.012 C 
ATOM      6  C   UNL     1      47.496  15.548  19.305  0.00  0.00    -0.056 C 
ATOM      7  C   UNL     1      47.766  14.458  20.345  0.00  0.00    +0.028 C 
ATOM      8  C   UNL     1      47.769  16.922  19.888  0.00  0.00    +0.028 C 
ATOM      9  C   UNL     1      49.219  16.941  20.409  0.00  0.00    +0.023 C 
ATOM     10  C   UNL     1      49.538  18.355  20.893  0.00  0.00    +0.007 C 
ATOM     11  C   UNL     1      49.597  19.282  19.669  0.00  0.00    +0.023 C 
ATOM     12  C   UNL     1      50.879  18.976  18.920  0.00  0.00    +0.009 C 
ATOM     13  C   UNL     1      51.296  20.012  17.936  0.00  0.00    -0.034 C 
ATOM     14  C   UNL     1      50.376  21.223  18.092  0.00  0.00    +0.027 C 
ATOM     15  C   UNL     1      52.722  20.452  18.277  0.00  0.00    +0.029 C 
ATOM     16  C   UNL     1      51.268  19.575  16.489  0.00  0.00    +0.174 C 
ATOM     19  C   UNL     1      51.925  18.224  16.294  0.00  0.00    -0.018 C 
ATOM     20  C   UNL     1      51.267  17.138  17.107  0.00  0.00    +0.050 C 
ATOM     21  C   UNL     1      51.028  17.517  18.567  0.00  0.00    -0.086 C 
ATOM     22  C   UNL     1      51.708  16.638  19.632  0.00  0.00    +0.007 C 
ATOM     23  C   UNL     1      50.210  16.477  19.356  0.00  0.00    -0.093 C 
ATOM     24  C   UNL     1      49.829  15.198  18.572  0.00  0.00    +0.073 C 
ATOM     25  C   UNL     1      48.414  15.392  18.059  0.00  0.00    -0.046 C 
ATOM     26  C   UNL     1      48.325  16.644  17.184  0.00  0.00    +0.030 C 
ENDROOT
BRANCH   3   2
ATOM      1  C   UNL     1      47.373  11.865  18.106  0.00  0.00    +0.010 C 
ATOM      2  C   UNL     1      48.460  12.898  17.803  0.00  0.00    -0.010 C 
BRANCH   2  27
ATOM     27  C   UNL     1      49.385  12.359  16.709  0.00  0.00    +0.016 C 
BRANCH  27  28
ATOM     28  C   UNL     1      49.562  13.421  15.622  0.00  0.00    +0.049 C 
BRANCH  28  29
ATOM     29  C   UNL     1      49.212  12.831  14.281  0.00  0.00    -0.110 C 
ATOM     33  C   UNL     1      47.975  12.495  14.016  0.00  0.00    -0.010 C 
BRANCH  29  30
ATOM     30  C   UNL     1      50.287  12.628  13.244  0.00  0.00    +0.010 C 
ATOM     31  C   UNL     1      51.595  13.253  13.736  0.00  0.00    +0.024 C 
ATOM     32  C   UNL     1      49.865  13.295  11.933  0.00  0.00    +0.022 C 
ENDBRANCH  29  30
ENDBRANCH  28  29
ENDBRANCH  27  28
ENDBRANCH   2  27
ENDBRANCH   3   2
BRANCH  16  17
ATOM     17  O   UNL     1      51.956  20.546  15.697  0.00  0.00    -0.564 OA
ATOM     18  H   UNL     1      51.498  21.394  15.630  0.00  0.00    +0.375 HD
ENDBRANCH  16  17
TORSDOF 6
ENDMDL
