MODEL 1
REMARK VINA RESULT:      -6.2      0.000      0.000
REMARK  Name = ZINC95485888
REMARK  18 active torsions:
REMARK  status: ('A' for Active; 'I' for Inactive)
REMARK    1  A    between atoms: C1_1  and  N1_2
REMARK    2  A    between atoms: C6_7  and  O6_51
REMARK    3  A    between atoms: C7_8  and  C19_22
REMARK    4  A    between atoms: C10_11  and  C11_13
REMARK    5  A    between atoms: C11_13  and  C12_14
REMARK    6  A    between atoms: C17_19  and  O1_20
REMARK    7  A    between atoms: O1_20  and  C18_21
REMARK    8  A    between atoms: C19_22  and  C20_23
REMARK    9  A    between atoms: C24_27  and  O3_31
REMARK   10  A    between atoms: C25_28  and  O2_29
REMARK   11  A    between atoms: O2_29  and  C26_30
REMARK   12  A    between atoms: O3_31  and  C27_32
REMARK   13  A    between atoms: C31_37  and  O5_49
REMARK   14  A    between atoms: C32_38  and  O4_47
REMARK   15  A    between atoms: N2_45  and  C38_46
REMARK   16  A    between atoms: O4_47  and  C39_48
REMARK   17  A    between atoms: O5_49  and  C40_50
REMARK   18  A    between atoms: O6_51  and  C41_52
REMARK                            x       y       z     vdW  Elec       q    Type
REMARK                         _______ _______ _______ _____ _____    ______ ____
ROOT
ATOM     13  C   UNL     1      51.170  16.809  18.709  0.00  0.00    -0.069 A 
ATOM     14  C   UNL     1      50.676  18.057  19.088  0.00  0.00    -0.057 A 
ATOM     15  C   UNL     1      50.645  18.414  20.406  0.00  0.00    -0.102 A 
ATOM     16  C   UNL     1      50.116  19.699  20.956  0.00  0.00    +0.299 C 
ATOM     17  C   UNL     1      48.768  20.100  20.464  0.00  0.00    -0.137 A 
ATOM     18  C   UNL     1      47.639  20.095  21.254  0.00  0.00    +0.015 A 
ATOM     19  C   UNL     1      46.427  20.510  20.719  0.00  0.00    +0.111 A 
ATOM     22  C   UNL     1      46.352  20.931  19.394  0.00  0.00    +0.141 A 
ATOM     25  C   UNL     1      47.493  20.923  18.601  0.00  0.00    -0.011 A 
ATOM     26  C   UNL     1      48.682  20.500  19.136  0.00  0.00    -0.074 A 
ATOM     27  C   UNL     1      49.961  20.389  18.361  0.00  0.00    +0.070 C 
ATOM     28  C   UNL     1      51.094  21.030  19.148  0.00  0.00    +0.261 C 
ATOM     29  N   UNL     1      51.066  20.759  20.563  0.00  0.00    -0.377 N 
ATOM     30  H   UNL     1      50.824  21.608  21.051  0.00  0.00    +0.427 HD
ATOM     31  C   UNL     1      52.418  20.355  20.969  0.00  0.00    +0.322 C 
ATOM     32  C   UNL     1      51.131  17.512  21.362  0.00  0.00    -0.052 A 
ATOM     33  C   UNL     1      51.623  16.278  20.996  0.00  0.00    +0.120 A 
ATOM     36  C   UNL     1      50.209  18.950  17.985  0.00  0.00    +0.106 C 
ATOM     37  C   UNL     1      51.636  15.914  19.652  0.00  0.00    +0.123 A 
ENDROOT
BRANCH  19  20
ATOM     20  O   UNL     1      45.309  20.505  21.492  0.00  0.00    -0.297 OA
ATOM     21  C   UNL     1      45.216  21.511  22.504  0.00  0.00    +0.251 C 
ENDBRANCH  19  20
BRANCH  22  23
ATOM     23  O   UNL     1      45.165  21.347  18.878  0.00  0.00    -0.288 OA
ATOM     24  C   UNL     1      44.785  22.700  19.137  0.00  0.00    +0.243 C 
ENDBRANCH  22  23
BRANCH  33  34
ATOM     34  O   UNL     1      52.088  15.419  21.942  0.00  0.00    -0.296 OA
ATOM     35  C   UNL     1      53.424  15.624  22.406  0.00  0.00    +0.250 C 
ENDBRANCH  33  34
BRANCH  37  38
ATOM     38  O   UNL     1      52.106  14.696  19.273  0.00  0.00    -0.297 OA
ATOM     39  C   UNL     1      51.360  13.552  19.695  0.00  0.00    +0.232 C 
ENDBRANCH  37  38
BRANCH  13  12
ATOM     12  C   UNL     1      51.189  16.427  17.252  0.00  0.00    +0.153 C 
BRANCH  12  11
ATOM      1  C   UNL     1      44.865  12.997  18.855  0.00  0.00    +0.317 C 
ATOM      2  N   UNL     1      46.196  12.927  18.236  0.00  0.00    -0.376 N 
ATOM      3  H   UNL     1      46.777  12.285  18.755  0.00  0.00    +0.424 HD
ATOM      4  C   UNL     1      46.069  12.464  16.846  0.00  0.00    +0.268 C 
ATOM      5  C   UNL     1      47.459  12.104  16.322  0.00  0.00    +0.121 C 
ATOM      6  C   UNL     1      48.413  13.243  16.580  0.00  0.00    -0.037 A 
ATOM      7  C   UNL     1      49.615  13.271  15.891  0.00  0.00    -0.060 A 
ATOM      8  C   UNL     1      50.517  14.301  16.105  0.00  0.00    +0.173 A 
ATOM     11  C   UNL     1      50.212  15.306  17.013  0.00  0.00    -0.104 A 
ATOM     40  C   UNL     1      49.014  15.274  17.694  0.00  0.00    +0.082 A 
ATOM     41  C   UNL     1      48.111  14.244  17.480  0.00  0.00    -0.169 A 
ATOM     42  C   UNL     1      46.811  14.257  18.241  0.00  0.00    +0.235 C 
BRANCH   8   9
ATOM      9  O   UNL     1      51.696  14.326  15.428  0.00  0.00    -0.270 OA
ATOM     10  C   UNL     1      51.761  13.580  14.211  0.00  0.00    +0.247 C 
ENDBRANCH   8   9
BRANCH  42  43
ATOM     43  C   UNL     1      47.079  14.683  19.686  0.00  0.00    +0.128 C 
BRANCH  43  44
ATOM     44  C   UNL     1      46.058  15.711  20.105  0.00  0.00    -0.159 A 
ATOM     45  C   UNL     1      45.633  16.669  19.204  0.00  0.00    +0.051 A 
ATOM     46  C   UNL     1      44.697  17.611  19.587  0.00  0.00    -0.006 A 
ATOM     47  C   UNL     1      44.183  17.598  20.871  0.00  0.00    +0.076 A 
ATOM     48  C   UNL     1      44.605  16.642  21.774  0.00  0.00    -0.063 A 
ATOM     49  C   UNL     1      45.541  15.691  21.391  0.00  0.00    +0.120 A 
BRANCH  49  50
ATOM     50  O   UNL     1      45.953  14.747  22.276  0.00  0.00    -0.320 OA
ATOM     51  C   UNL     1      45.073  13.645  22.505  0.00  0.00    +0.256 C 
ENDBRANCH  49  50
ENDBRANCH  43  44
ENDBRANCH  42  43
ENDBRANCH  12  11
ENDBRANCH  13  12
TORSDOF 10
ENDMDL
MODEL 2
REMARK VINA RESULT:      -6.2      2.525      5.971
REMARK  Name = ZINC95485888
REMARK  18 active torsions:
REMARK  status: ('A' for Active; 'I' for Inactive)
REMARK    1  A    between atoms: C1_1  and  N1_2
REMARK    2  A    between atoms: C6_7  and  O6_51
REMARK    3  A    between atoms: C7_8  and  C19_22
REMARK    4  A    between atoms: C10_11  and  C11_13
REMARK    5  A    between atoms: C11_13  and  C12_14
REMARK    6  A    between atoms: C17_19  and  O1_20
REMARK    7  A    between atoms: O1_20  and  C18_21
REMARK    8  A    between atoms: C19_22  and  C20_23
REMARK    9  A    between atoms: C24_27  and  O3_31
REMARK   10  A    between atoms: C25_28  and  O2_29
REMARK   11  A    between atoms: O2_29  and  C26_30
REMARK   12  A    between atoms: O3_31  and  C27_32
REMARK   13  A    between atoms: C31_37  and  O5_49
REMARK   14  A    between atoms: C32_38  and  O4_47
REMARK   15  A    between atoms: N2_45  and  C38_46
REMARK   16  A    between atoms: O4_47  and  C39_48
REMARK   17  A    between atoms: O5_49  and  C40_50
REMARK   18  A    between atoms: O6_51  and  C41_52
REMARK                            x       y       z     vdW  Elec       q    Type
REMARK                         _______ _______ _______ _____ _____    ______ ____
ROOT
ATOM     13  C   UNL     1      45.959  15.341  18.706  0.00  0.00    -0.069 A 
ATOM     14  C   UNL     1      45.608  16.549  19.309  0.00  0.00    -0.057 A 
ATOM     15  C   UNL     1      45.087  16.563  20.571  0.00  0.00    -0.102 A 
ATOM     16  C   UNL     1      44.639  17.774  21.324  0.00  0.00    +0.299 C 
ATOM     17  C   UNL     1      43.742  18.698  20.575  0.00  0.00    -0.137 A 
ATOM     18  C   UNL     1      42.407  18.867  20.873  0.00  0.00    +0.015 A 
ATOM     19  C   UNL     1      41.651  19.771  20.138  0.00  0.00    +0.111 A 
ATOM     22  C   UNL     1      42.237  20.504  19.110  0.00  0.00    +0.141 A 
ATOM     25  C   UNL     1      43.581  20.320  18.809  0.00  0.00    -0.011 A 
ATOM     26  C   UNL     1      44.315  19.417  19.533  0.00  0.00    -0.074 A 
ATOM     27  C   UNL     1      45.753  19.089  19.259  0.00  0.00    +0.070 C 
ATOM     28  C   UNL     1      46.540  19.115  20.559  0.00  0.00    +0.261 C 
ATOM     29  N   UNL     1      45.854  18.530  21.684  0.00  0.00    -0.377 N 
ATOM     30  H   UNL     1      45.601  19.266  22.327  0.00  0.00    +0.427 HD
ATOM     31  C   UNL     1      46.792  17.623  22.359  0.00  0.00    +0.322 C 
ATOM     32  C   UNL     1      44.925  15.347  21.250  0.00  0.00    -0.052 A 
ATOM     33  C   UNL     1      45.272  14.149  20.662  0.00  0.00    +0.120 A 
ATOM     36  C   UNL     1      45.847  17.786  18.507  0.00  0.00    +0.106 C 
ATOM     37  C   UNL     1      45.787  14.141  19.369  0.00  0.00    +0.123 A 
ENDROOT
BRANCH  19  20
ATOM     20  O   UNL     1      40.333  19.941  20.425  0.00  0.00    -0.297 OA
ATOM     21  C   UNL     1      39.917  19.649  21.761  0.00  0.00    +0.251 C 
ENDBRANCH  19  20
BRANCH  22  23
ATOM     23  O   UNL     1      41.495  21.396  18.401  0.00  0.00    -0.288 OA
ATOM     24  C   UNL     1      41.708  22.781  18.678  0.00  0.00    +0.243 C 
ENDBRANCH  22  23
BRANCH  33  34
ATOM     34  O   UNL     1      45.104  12.982  21.340  0.00  0.00    -0.296 OA
ATOM     35  C   UNL     1      45.909  12.787  22.505  0.00  0.00    +0.250 C 
ENDBRANCH  33  34
BRANCH  37  38
ATOM     38  O   UNL     1      46.122  12.969  18.768  0.00  0.00    -0.297 OA
ATOM     39  C   UNL     1      45.178  12.418  17.847  0.00  0.00    +0.232 C 
ENDBRANCH  37  38
BRANCH  13  12
ATOM     12  C   UNL     1      46.525  15.342  17.310  0.00  0.00    +0.153 C 
BRANCH  12  11
ATOM      1  C   UNL     1      52.982  17.754  19.923  0.00  0.00    +0.317 C 
ATOM      2  N   UNL     1      52.264  16.987  18.895  0.00  0.00    -0.376 N 
ATOM      3  H   UNL     1      52.353  17.452  18.003  0.00  0.00    +0.424 HD
ATOM      4  C   UNL     1      52.831  15.633  18.805  0.00  0.00    +0.268 C 
ATOM      5  C   UNL     1      52.293  14.961  17.542  0.00  0.00    +0.121 C 
ATOM      6  C   UNL     1      50.791  15.078  17.503  0.00  0.00    -0.037 A 
ATOM      7  C   UNL     1      50.083  14.254  16.642  0.00  0.00    -0.060 A 
ATOM      8  C   UNL     1      48.701  14.336  16.576  0.00  0.00    +0.173 A 
ATOM     11  C   UNL     1      48.027  15.247  17.377  0.00  0.00    -0.104 A 
ATOM     40  C   UNL     1      48.735  16.063  18.233  0.00  0.00    +0.082 A 
ATOM     41  C   UNL     1      50.119  15.981  18.300  0.00  0.00    -0.169 A 
ATOM     42  C   UNL     1      50.847  16.887  19.256  0.00  0.00    +0.235 C 
BRANCH   8   9
ATOM      9  O   UNL     1      48.010  13.527  15.731  0.00  0.00    -0.270 OA
ATOM     10  C   UNL     1      48.766  12.569  14.986  0.00  0.00    +0.247 C 
ENDBRANCH   8   9
BRANCH  42  43
ATOM     43  C   UNL     1      50.216  18.280  19.211  0.00  0.00    +0.128 C 
BRANCH  43  44
ATOM     44  C   UNL     1      50.805  19.062  18.065  0.00  0.00    -0.159 A 
ATOM     45  C   UNL     1      50.940  18.472  16.823  0.00  0.00    +0.051 A 
ATOM     46  C   UNL     1      51.480  19.189  15.771  0.00  0.00    -0.006 A 
ATOM     47  C   UNL     1      51.885  20.499  15.959  0.00  0.00    +0.076 A 
ATOM     48  C   UNL     1      51.751  21.092  17.199  0.00  0.00    -0.063 A 
ATOM     49  C   UNL     1      51.205  20.377  18.255  0.00  0.00    +0.120 A 
BRANCH  49  50
ATOM     50  O   UNL     1      51.067  20.960  19.474  0.00  0.00    -0.320 OA
ATOM     51  C   UNL     1      52.243  21.524  20.060  0.00  0.00    +0.256 C 
ENDBRANCH  49  50
ENDBRANCH  43  44
ENDBRANCH  42  43
ENDBRANCH  12  11
ENDBRANCH  13  12
TORSDOF 10
ENDMDL
MODEL 3
REMARK VINA RESULT:      -5.9      2.250      6.998
REMARK  Name = ZINC95485888
REMARK  18 active torsions:
REMARK  status: ('A' for Active; 'I' for Inactive)
REMARK    1  A    between atoms: C1_1  and  N1_2
REMARK    2  A    between atoms: C6_7  and  O6_51
REMARK    3  A    between atoms: C7_8  and  C19_22
REMARK    4  A    between atoms: C10_11  and  C11_13
REMARK    5  A    between atoms: C11_13  and  C12_14
REMARK    6  A    between atoms: C17_19  and  O1_20
REMARK    7  A    between atoms: O1_20  and  C18_21
REMARK    8  A    between atoms: C19_22  and  C20_23
REMARK    9  A    between atoms: C24_27  and  O3_31
REMARK   10  A    between atoms: C25_28  and  O2_29
REMARK   11  A    between atoms: O2_29  and  C26_30
REMARK   12  A    between atoms: O3_31  and  C27_32
REMARK   13  A    between atoms: C31_37  and  O5_49
REMARK   14  A    between atoms: C32_38  and  O4_47
REMARK   15  A    between atoms: N2_45  and  C38_46
REMARK   16  A    between atoms: O4_47  and  C39_48
REMARK   17  A    between atoms: O5_49  and  C40_50
REMARK   18  A    between atoms: O6_51  and  C41_52
REMARK                            x       y       z     vdW  Elec       q    Type
REMARK                         _______ _______ _______ _____ _____    ______ ____
ROOT
ATOM     13  C   UNL     1      50.579  12.258  17.158  0.00  0.00    -0.069 A 
ATOM     14  C   UNL     1      49.232  12.616  17.224  0.00  0.00    -0.057 A 
ATOM     15  C   UNL     1      48.593  13.098  16.117  0.00  0.00    -0.102 A 
ATOM     16  C   UNL     1      47.169  13.549  16.051  0.00  0.00    +0.299 C 
ATOM     17  C   UNL     1      46.744  14.490  17.125  0.00  0.00    -0.137 A 
ATOM     18  C   UNL     1      46.454  15.818  16.900  0.00  0.00    +0.015 A 
ATOM     19  C   UNL     1      46.040  16.617  17.957  0.00  0.00    +0.111 A 
ATOM     22  C   UNL     1      45.915  16.080  19.236  0.00  0.00    +0.141 A 
ATOM     25  C   UNL     1      46.219  14.743  19.457  0.00  0.00    -0.011 A 
ATOM     26  C   UNL     1      46.639  13.966  18.408  0.00  0.00    -0.074 A 
ATOM     27  C   UNL     1      47.054  12.530  18.537  0.00  0.00    +0.070 C 
ATOM     28  C   UNL     1      46.381  11.703  17.454  0.00  0.00    +0.261 C 
ATOM     29  N   UNL     1      46.330  12.340  16.161  0.00  0.00    -0.377 N 
ATOM     30  H   UNL     1      45.373  12.590  15.961  0.00  0.00    +0.427 HD
ATOM     31  C   UNL     1      46.777  11.361  15.162  0.00  0.00    +0.322 C 
ATOM     32  C   UNL     1      49.309  13.211  14.918  0.00  0.00    -0.052 A 
ATOM     33  C   UNL     1      50.639  12.856  14.844  0.00  0.00    +0.120 A 
ATOM     36  C   UNL     1      48.558  12.431  18.544  0.00  0.00    +0.106 C 
ATOM     37  C   UNL     1      51.289  12.382  15.980  0.00  0.00    +0.123 A 
ENDROOT
BRANCH  19  20
ATOM     20  O   UNL     1      45.755  17.929  17.742  0.00  0.00    -0.297 OA
ATOM     21  C   UNL     1      46.753  18.880  18.118  0.00  0.00    +0.251 C 
ENDBRANCH  19  20
BRANCH  22  23
ATOM     23  O   UNL     1      45.497  16.864  20.265  0.00  0.00    -0.288 OA
ATOM     24  C   UNL     1      44.659  16.252  21.247  0.00  0.00    +0.243 C 
ENDBRANCH  22  23
BRANCH  33  34
ATOM     34  O   UNL     1      51.314  12.976  13.669  0.00  0.00    -0.296 OA
ATOM     35  C   UNL     1      50.538  12.950  12.469  0.00  0.00    +0.250 C 
ENDBRANCH  33  34
BRANCH  37  38
ATOM     38  O   UNL     1      52.604  12.040  15.930  0.00  0.00    -0.297 OA
ATOM     39  C   UNL     1      52.913  10.717  15.485  0.00  0.00    +0.232 C 
ENDBRANCH  37  38
BRANCH  13  12
ATOM     12  C   UNL     1      51.271  11.736  18.390  0.00  0.00    +0.153 C 
BRANCH  12  11
ATOM      1  C   UNL     1      51.020  18.317  21.701  0.00  0.00    +0.317 C 
ATOM      2  N   UNL     1      51.834  17.288  21.039  0.00  0.00    -0.376 N 
ATOM      3  H   UNL     1      52.184  17.645  20.163  0.00  0.00    +0.424 HD
ATOM      4  C   UNL     1      52.962  16.918  21.908  0.00  0.00    +0.268 C 
ATOM      5  C   UNL     1      53.955  16.090  21.093  0.00  0.00    +0.121 C 
ATOM      6  C   UNL     1      53.232  14.967  20.396  0.00  0.00    -0.037 A 
ATOM      7  C   UNL     1      53.974  13.910  19.894  0.00  0.00    -0.060 A 
ATOM      8  C   UNL     1      53.343  12.860  19.244  0.00  0.00    +0.173 A 
ATOM     11  C   UNL     1      51.963  12.872  19.097  0.00  0.00    -0.104 A 
ATOM     40  C   UNL     1      51.229  13.925  19.600  0.00  0.00    +0.082 A 
ATOM     41  C   UNL     1      51.860  14.975  20.251  0.00  0.00    -0.169 A 
ATOM     42  C   UNL     1      51.014  16.098  20.791  0.00  0.00    +0.235 C 
BRANCH   8   9
ATOM      9  O   UNL     1      54.074  11.826  18.752  0.00  0.00    -0.270 OA
ATOM     10  C   UNL     1      54.658  10.933  19.703  0.00  0.00    +0.247 C 
ENDBRANCH   8   9
BRANCH  42  43
ATOM     43  C   UNL     1      49.924  16.441  19.774  0.00  0.00    +0.128 C 
BRANCH  43  44
ATOM     44  C   UNL     1      50.558  16.979  18.517  0.00  0.00    -0.159 A 
ATOM     45  C   UNL     1      51.145  16.113  17.615  0.00  0.00    +0.051 A 
ATOM     46  C   UNL     1      51.727  16.605  16.462  0.00  0.00    -0.006 A 
ATOM     47  C   UNL     1      51.723  17.964  16.207  0.00  0.00    +0.076 A 
ATOM     48  C   UNL     1      51.137  18.834  17.107  0.00  0.00    -0.063 A 
ATOM     49  C   UNL     1      50.547  18.342  18.263  0.00  0.00    +0.120 A 
BRANCH  49  50
ATOM     50  O   UNL     1      49.966  19.194  19.146  0.00  0.00    -0.320 OA
ATOM     51  C   UNL     1      50.077  20.592  18.868  0.00  0.00    +0.256 C 
ENDBRANCH  49  50
ENDBRANCH  43  44
ENDBRANCH  42  43
ENDBRANCH  12  11
ENDBRANCH  13  12
TORSDOF 10
ENDMDL
MODEL 4
REMARK VINA RESULT:      -5.8      2.336      6.030
REMARK  Name = ZINC95485888
REMARK  18 active torsions:
REMARK  status: ('A' for Active; 'I' for Inactive)
REMARK    1  A    between atoms: C1_1  and  N1_2
REMARK    2  A    between atoms: C6_7  and  O6_51
REMARK    3  A    between atoms: C7_8  and  C19_22
REMARK    4  A    between atoms: C10_11  and  C11_13
REMARK    5  A    between atoms: C11_13  and  C12_14
REMARK    6  A    between atoms: C17_19  and  O1_20
REMARK    7  A    between atoms: O1_20  and  C18_21
REMARK    8  A    between atoms: C19_22  and  C20_23
REMARK    9  A    between atoms: C24_27  and  O3_31
REMARK   10  A    between atoms: C25_28  and  O2_29
REMARK   11  A    between atoms: O2_29  and  C26_30
REMARK   12  A    between atoms: O3_31  and  C27_32
REMARK   13  A    between atoms: C31_37  and  O5_49
REMARK   14  A    between atoms: C32_38  and  O4_47
REMARK   15  A    between atoms: N2_45  and  C38_46
REMARK   16  A    between atoms: O4_47  and  C39_48
REMARK   17  A    between atoms: O5_49  and  C40_50
REMARK   18  A    between atoms: O6_51  and  C41_52
REMARK                            x       y       z     vdW  Elec       q    Type
REMARK                         _______ _______ _______ _____ _____    ______ ____
ROOT
ATOM     13  C   UNL     1      48.515  14.100  17.162  0.00  0.00    -0.069 A 
ATOM     14  C   UNL     1      48.035  14.957  18.152  0.00  0.00    -0.057 A 
ATOM     15  C   UNL     1      46.847  14.694  18.773  0.00  0.00    -0.102 A 
ATOM     16  C   UNL     1      46.198  15.538  19.822  0.00  0.00    +0.299 C 
ATOM     17  C   UNL     1      46.102  16.991  19.506  0.00  0.00    -0.137 A 
ATOM     18  C   UNL     1      44.912  17.631  19.234  0.00  0.00    +0.015 A 
ATOM     19  C   UNL     1      44.913  18.995  18.976  0.00  0.00    +0.111 A 
ATOM     22  C   UNL     1      46.105  19.713  18.994  0.00  0.00    +0.141 A 
ATOM     25  C   UNL     1      47.302  19.059  19.260  0.00  0.00    -0.011 A 
ATOM     26  C   UNL     1      47.291  17.709  19.502  0.00  0.00    -0.074 A 
ATOM     27  C   UNL     1      48.524  16.887  19.736  0.00  0.00    +0.070 C 
ATOM     28  C   UNL     1      48.321  15.998  20.953  0.00  0.00    +0.261 C 
ATOM     29  N   UNL     1      47.012  15.403  21.047  0.00  0.00    -0.377 N 
ATOM     30  H   UNL     1      46.516  15.830  21.815  0.00  0.00    +0.427 HD
ATOM     31  C   UNL     1      47.188  13.975  21.341  0.00  0.00    +0.322 C 
ATOM     32  C   UNL     1      46.134  13.544  18.409  0.00  0.00    -0.052 A 
ATOM     33  C   UNL     1      46.604  12.690  17.434  0.00  0.00    +0.120 A 
ATOM     36  C   UNL     1      48.888  16.139  18.480  0.00  0.00    +0.106 C 
ATOM     37  C   UNL     1      47.806  12.974  16.792  0.00  0.00    +0.123 A 
ENDROOT
BRANCH  19  20
ATOM     20  O   UNL     1      43.743  19.632  18.704  0.00  0.00    -0.297 OA
ATOM     21  C   UNL     1      42.781  19.702  19.759  0.00  0.00    +0.251 C 
ENDBRANCH  19  20
BRANCH  22  23
ATOM     23  O   UNL     1      46.099  21.051  18.752  0.00  0.00    -0.288 OA
ATOM     24  C   UNL     1      45.923  21.913  19.877  0.00  0.00    +0.243 C 
ENDBRANCH  22  23
BRANCH  33  34
ATOM     34  O   UNL     1      45.893  11.581  17.097  0.00  0.00    -0.296 OA
ATOM     35  C   UNL     1      44.582  11.787  16.563  0.00  0.00    +0.250 C 
ENDBRANCH  33  34
BRANCH  37  38
ATOM     38  O   UNL     1      48.279  12.150  15.820  0.00  0.00    -0.297 OA
ATOM     39  C   UNL     1      47.831  12.399  14.485  0.00  0.00    +0.232 C 
ENDBRANCH  37  38
BRANCH  13  12
ATOM     12  C   UNL     1      49.823  14.409  16.480  0.00  0.00    +0.153 C 
BRANCH  12  11
ATOM      1  C   UNL     1      55.101  16.029  21.364  0.00  0.00    +0.317 C 
ATOM      2  N   UNL     1      54.575  15.085  20.368  0.00  0.00    -0.376 N 
ATOM      3  H   UNL     1      55.199  15.047  19.576  0.00  0.00    +0.424 HD
ATOM      4  C   UNL     1      54.459  13.748  20.969  0.00  0.00    +0.268 C 
ATOM      5  C   UNL     1      54.211  12.731  19.856  0.00  0.00    +0.121 C 
ATOM      6  C   UNL     1      53.068  13.193  18.989  0.00  0.00    -0.037 A 
ATOM      7  C   UNL     1      52.460  12.275  18.147  0.00  0.00    -0.060 A 
ATOM      8  C   UNL     1      51.408  12.664  17.333  0.00  0.00    +0.173 A 
ATOM     11  C   UNL     1      50.965  13.978  17.364  0.00  0.00    -0.104 A 
ATOM     40  C   UNL     1      51.571  14.888  18.204  0.00  0.00    +0.082 A 
ATOM     41  C   UNL     1      52.624  14.498  19.019  0.00  0.00    -0.169 A 
ATOM     42  C   UNL     1      53.249  15.525  19.926  0.00  0.00    +0.235 C 
BRANCH   8   9
ATOM      9  O   UNL     1      50.814  11.761  16.509  0.00  0.00    -0.270 OA
ATOM     10  C   UNL     1      51.621  11.202  15.470  0.00  0.00    +0.247 C 
ENDBRANCH   8   9
BRANCH  42  43
ATOM     43  C   UNL     1      53.382  16.849  19.171  0.00  0.00    +0.128 C 
BRANCH  43  44
ATOM     44  C   UNL     1      52.397  17.846  19.726  0.00  0.00    -0.159 A 
ATOM     45  C   UNL     1      52.032  17.788  21.057  0.00  0.00    +0.051 A 
ATOM     46  C   UNL     1      51.129  18.703  21.567  0.00  0.00    -0.006 A 
ATOM     47  C   UNL     1      50.590  19.678  20.747  0.00  0.00    +0.076 A 
ATOM     48  C   UNL     1      50.953  19.740  19.416  0.00  0.00    -0.063 A 
ATOM     49  C   UNL     1      51.863  18.826  18.902  0.00  0.00    +0.120 A 
BRANCH  49  50
ATOM     50  O   UNL     1      52.226  18.888  17.595  0.00  0.00    -0.320 OA
ATOM     51  C   UNL     1      51.228  18.552  16.628  0.00  0.00    +0.256 C 
ENDBRANCH  49  50
ENDBRANCH  43  44
ENDBRANCH  42  43
ENDBRANCH  12  11
ENDBRANCH  13  12
TORSDOF 10
ENDMDL
MODEL 5
REMARK VINA RESULT:      -5.4      2.493      7.607
REMARK  Name = ZINC95485888
REMARK  18 active torsions:
REMARK  status: ('A' for Active; 'I' for Inactive)
REMARK    1  A    between atoms: C1_1  and  N1_2
REMARK    2  A    between atoms: C6_7  and  O6_51
REMARK    3  A    between atoms: C7_8  and  C19_22
REMARK    4  A    between atoms: C10_11  and  C11_13
REMARK    5  A    between atoms: C11_13  and  C12_14
REMARK    6  A    between atoms: C17_19  and  O1_20
REMARK    7  A    between atoms: O1_20  and  C18_21
REMARK    8  A    between atoms: C19_22  and  C20_23
REMARK    9  A    between atoms: C24_27  and  O3_31
REMARK   10  A    between atoms: C25_28  and  O2_29
REMARK   11  A    between atoms: O2_29  and  C26_30
REMARK   12  A    between atoms: O3_31  and  C27_32
REMARK   13  A    between atoms: C31_37  and  O5_49
REMARK   14  A    between atoms: C32_38  and  O4_47
REMARK   15  A    between atoms: N2_45  and  C38_46
REMARK   16  A    between atoms: O4_47  and  C39_48
REMARK   17  A    between atoms: O5_49  and  C40_50
REMARK   18  A    between atoms: O6_51  and  C41_52
REMARK                            x       y       z     vdW  Elec       q    Type
REMARK                         _______ _______ _______ _____ _____    ______ ____
ROOT
ATOM     13  C   UNL     1      50.430  14.355  20.445  0.00  0.00    -0.069 A 
ATOM     14  C   UNL     1      50.429  13.385  19.442  0.00  0.00    -0.057 A 
ATOM     15  C   UNL     1      51.392  13.394  18.474  0.00  0.00    -0.102 A 
ATOM     16  C   UNL     1      51.494  12.441  17.326  0.00  0.00    +0.299 C 
ATOM     17  C   UNL     1      50.237  12.231  16.554  0.00  0.00    -0.137 A 
ATOM     18  C   UNL     1      50.053  12.685  15.266  0.00  0.00    +0.015 A 
ATOM     19  C   UNL     1      48.857  12.421  14.612  0.00  0.00    +0.111 A 
ATOM     22  C   UNL     1      47.851  11.700  15.251  0.00  0.00    +0.141 A 
ATOM     25  C   UNL     1      48.041  11.254  16.553  0.00  0.00    -0.011 A 
ATOM     26  C   UNL     1      49.221  11.531  17.194  0.00  0.00    -0.074 A 
ATOM     27  C   UNL     1      49.513  11.158  18.617  0.00  0.00    +0.070 C 
ATOM     28  C   UNL     1      50.886  10.511  18.704  0.00  0.00    +0.261 C 
ATOM     29  N   UNL     1      51.895  11.136  17.886  0.00  0.00    -0.377 N 
ATOM     30  H   UNL     1      52.127  10.514  17.126  0.00  0.00    +0.427 HD
ATOM     31  C   UNL     1      53.091  11.325  18.717  0.00  0.00    +0.322 C 
ATOM     32  C   UNL     1      52.383  14.383  18.516  0.00  0.00    -0.052 A 
ATOM     33  C   UNL     1      52.393  15.344  19.504  0.00  0.00    +0.120 A 
ATOM     36  C   UNL     1      49.342  12.362  19.508  0.00  0.00    +0.106 C 
ATOM     37  C   UNL     1      51.399  15.339  20.479  0.00  0.00    +0.123 A 
ENDROOT
BRANCH  19  20
ATOM     20  O   UNL     1      48.667  12.868  13.342  0.00  0.00    -0.297 OA
ATOM     21  C   UNL     1      49.836  13.071  12.545  0.00  0.00    +0.251 C 
ENDBRANCH  19  20
BRANCH  22  23
ATOM     23  O   UNL     1      46.687  11.434  14.602  0.00  0.00    -0.288 OA
ATOM     24  C   UNL     1      45.758  10.574  15.263  0.00  0.00    +0.243 C 
ENDBRANCH  22  23
BRANCH  33  34
ATOM     34  O   UNL     1      53.365  16.295  19.523  0.00  0.00    -0.296 OA
ATOM     35  C   UNL     1      54.720  15.839  19.548  0.00  0.00    +0.250 C 
ENDBRANCH  33  34
BRANCH  37  38
ATOM     38  O   UNL     1      51.385  16.285  21.454  0.00  0.00    -0.297 OA
ATOM     39  C   UNL     1      52.344  16.147  22.505  0.00  0.00    +0.232 C 
ENDBRANCH  37  38
BRANCH  13  12
ATOM     12  C   UNL     1      49.356  14.335  21.501  0.00  0.00    +0.153 C 
BRANCH  12  11
ATOM      1  C   UNL     1      46.482  20.540  18.753  0.00  0.00    +0.317 C 
ATOM      2  N   UNL     1      46.257  19.272  19.460  0.00  0.00    -0.376 N 
ATOM      3  H   UNL     1      45.976  19.461  20.411  0.00  0.00    +0.424 HD
ATOM      4  C   UNL     1      45.203  18.508  18.776  0.00  0.00    +0.268 C 
ATOM      5  C   UNL     1      44.770  17.355  19.682  0.00  0.00    +0.121 C 
ATOM      6  C   UNL     1      45.981  16.587  20.146  0.00  0.00    -0.037 A 
ATOM      7  C   UNL     1      45.800  15.322  20.681  0.00  0.00    -0.060 A 
ATOM      8  C   UNL     1      46.891  14.588  21.121  0.00  0.00    +0.173 A 
ATOM     11  C   UNL     1      48.167  15.126  21.023  0.00  0.00    -0.104 A 
ATOM     40  C   UNL     1      48.342  16.384  20.488  0.00  0.00    +0.082 A 
ATOM     41  C   UNL     1      47.250  17.118  20.047  0.00  0.00    -0.169 A 
ATOM     42  C   UNL     1      47.493  18.485  19.461  0.00  0.00    +0.235 C 
BRANCH   8   9
ATOM      9  O   UNL     1      46.710  13.348  21.647  0.00  0.00    -0.270 OA
ATOM     10  C   UNL     1      45.579  13.163  22.500  0.00  0.00    +0.247 C 
ENDBRANCH   8   9
BRANCH  42  43
ATOM     43  C   UNL     1      48.551  19.209  20.295  0.00  0.00    +0.128 C 
BRANCH  43  44
ATOM     44  C   UNL     1      49.854  19.239  19.538  0.00  0.00    -0.159 A 
ATOM     45  C   UNL     1      49.884  18.890  18.201  0.00  0.00    +0.051 A 
ATOM     46  C   UNL     1      51.079  18.917  17.505  0.00  0.00    -0.006 A 
ATOM     47  C   UNL     1      52.246  19.294  18.144  0.00  0.00    +0.076 A 
ATOM     48  C   UNL     1      52.221  19.643  19.480  0.00  0.00    -0.063 A 
ATOM     49  C   UNL     1      51.023  19.622  20.180  0.00  0.00    +0.120 A 
BRANCH  49  50
ATOM     50  O   UNL     1      50.994  19.970  21.492  0.00  0.00    -0.320 OA
ATOM     51  C   UNL     1      51.389  21.305  21.817  0.00  0.00    +0.256 C 
ENDBRANCH  49  50
ENDBRANCH  43  44
ENDBRANCH  42  43
ENDBRANCH  12  11
ENDBRANCH  13  12
TORSDOF 10
ENDMDL
MODEL 6
REMARK VINA RESULT:      -5.3      2.455      5.731
REMARK  Name = ZINC95485888
REMARK  18 active torsions:
REMARK  status: ('A' for Active; 'I' for Inactive)
REMARK    1  A    between atoms: C1_1  and  N1_2
REMARK    2  A    between atoms: C6_7  and  O6_51
REMARK    3  A    between atoms: C7_8  and  C19_22
REMARK    4  A    between atoms: C10_11  and  C11_13
REMARK    5  A    between atoms: C11_13  and  C12_14
REMARK    6  A    between atoms: C17_19  and  O1_20
REMARK    7  A    between atoms: O1_20  and  C18_21
REMARK    8  A    between atoms: C19_22  and  C20_23
REMARK    9  A    between atoms: C24_27  and  O3_31
REMARK   10  A    between atoms: C25_28  and  O2_29
REMARK   11  A    between atoms: O2_29  and  C26_30
REMARK   12  A    between atoms: O3_31  and  C27_32
REMARK   13  A    between atoms: C31_37  and  O5_49
REMARK   14  A    between atoms: C32_38  and  O4_47
REMARK   15  A    between atoms: N2_45  and  C38_46
REMARK   16  A    between atoms: O4_47  and  C39_48
REMARK   17  A    between atoms: O5_49  and  C40_50
REMARK   18  A    between atoms: O6_51  and  C41_52
REMARK                            x       y       z     vdW  Elec       q    Type
REMARK                         _______ _______ _______ _____ _____    ______ ____
ROOT
ATOM     13  C   UNL     1      47.883  16.501  17.768  0.00  0.00    -0.069 A 
ATOM     14  C   UNL     1      47.192  17.146  18.794  0.00  0.00    -0.057 A 
ATOM     15  C   UNL     1      46.137  16.532  19.405  0.00  0.00    -0.102 A 
ATOM     16  C   UNL     1      45.289  17.114  20.490  0.00  0.00    +0.299 C 
ATOM     17  C   UNL     1      44.779  18.490  20.236  0.00  0.00    -0.137 A 
ATOM     18  C   UNL     1      43.454  18.777  19.993  0.00  0.00    +0.015 A 
ATOM     19  C   UNL     1      43.064  20.094  19.792  0.00  0.00    +0.111 A 
ATOM     22  C   UNL     1      44.003  21.120  19.839  0.00  0.00    +0.141 A 
ATOM     25  C   UNL     1      45.340  20.822  20.075  0.00  0.00    -0.011 A 
ATOM     26  C   UNL     1      45.716  19.517  20.260  0.00  0.00    -0.074 A 
ATOM     27  C   UNL     1      47.134  19.070  20.458  0.00  0.00    +0.070 C 
ATOM     28  C   UNL     1      47.208  18.112  21.636  0.00  0.00    +0.261 C 
ATOM     29  N   UNL     1      46.123  17.166  21.706  0.00  0.00    -0.377 N 
ATOM     30  H   UNL     1      45.537  17.404  22.492  0.00  0.00    +0.427 HD
ATOM     31  C   UNL     1      46.702  15.836  21.940  0.00  0.00    +0.322 C 
ATOM     32  C   UNL     1      45.775  15.242  18.994  0.00  0.00    -0.052 A 
ATOM     33  C   UNL     1      46.455  14.597  17.983  0.00  0.00    +0.120 A 
ATOM     36  C   UNL     1      47.680  18.507  19.171  0.00  0.00    +0.106 C 
ATOM     37  C   UNL     1      47.518  15.236  17.352  0.00  0.00    +0.123 A 
ENDROOT
BRANCH  19  20
ATOM     20  O   UNL     1      41.757  20.382  19.549  0.00  0.00    -0.297 OA
ATOM     21  C   UNL     1      41.273  20.137  18.226  0.00  0.00    +0.251 C 
ENDBRANCH  19  20
BRANCH  22  23
ATOM     23  O   UNL     1      43.614  22.409  19.654  0.00  0.00    -0.288 OA
ATOM     24  C   UNL     1      44.633  23.409  19.713  0.00  0.00    +0.243 C 
ENDBRANCH  22  23
BRANCH  33  34
ATOM     34  O   UNL     1      46.083  13.346  17.600  0.00  0.00    -0.296 OA
ATOM     35  C   UNL     1      44.970  12.762  18.280  0.00  0.00    +0.250 C 
ENDBRANCH  33  34
BRANCH  37  38
ATOM     38  O   UNL     1      48.193  14.621  16.345  0.00  0.00    -0.297 OA
ATOM     39  C   UNL     1      49.096  13.576  16.712  0.00  0.00    +0.232 C 
ENDBRANCH  37  38
BRANCH  13  12
ATOM     12  C   UNL     1      49.040  17.197  17.099  0.00  0.00    +0.153 C 
BRANCH  12  11
ATOM      1  C   UNL     1      52.934  13.974  22.463  0.00  0.00    +0.317 C 
ATOM      2  N   UNL     1      52.650  15.192  21.692  0.00  0.00    -0.376 N 
ATOM      3  H   UNL     1      52.229  15.884  22.294  0.00  0.00    +0.424 HD
ATOM      4  C   UNL     1      53.903  15.722  21.132  0.00  0.00    +0.268 C 
ATOM      5  C   UNL     1      53.643  17.133  20.603  0.00  0.00    +0.121 C 
ATOM      6  C   UNL     1      52.438  17.124  19.698  0.00  0.00    -0.037 A 
ATOM      7  C   UNL     1      52.235  18.203  18.852  0.00  0.00    -0.060 A 
ATOM      8  C   UNL     1      51.136  18.231  18.008  0.00  0.00    +0.173 A 
ATOM     11  C   UNL     1      50.238  17.173  18.012  0.00  0.00    -0.104 A 
ATOM     40  C   UNL     1      50.445  16.101  18.854  0.00  0.00    +0.082 A 
ATOM     41  C   UNL     1      51.546  16.072  19.698  0.00  0.00    -0.169 A 
ATOM     42  C   UNL     1      51.734  14.876  20.593  0.00  0.00    +0.235 C 
BRANCH   8   9
ATOM      9  O   UNL     1      50.939  19.290  17.180  0.00  0.00    -0.270 OA
ATOM     10  C   UNL     1      52.055  19.716  16.394  0.00  0.00    +0.247 C 
ENDBRANCH   8   9
BRANCH  42  43
ATOM     43  C   UNL     1      50.379  14.461  21.171  0.00  0.00    +0.128 C 
BRANCH  43  44
ATOM     44  C   UNL     1      49.906  13.202  20.489  0.00  0.00    -0.159 A 
ATOM     45  C   UNL     1      48.559  12.896  20.463  0.00  0.00    +0.051 A 
ATOM     46  C   UNL     1      48.124  11.742  19.838  0.00  0.00    -0.006 A 
ATOM     47  C   UNL     1      49.034  10.892  19.237  0.00  0.00    +0.076 A 
ATOM     48  C   UNL     1      50.382  11.194  19.260  0.00  0.00    -0.063 A 
ATOM     49  C   UNL     1      50.821  12.355  19.883  0.00  0.00    +0.120 A 
BRANCH  49  50
ATOM     50  O   UNL     1      52.145  12.657  19.902  0.00  0.00    -0.320 OA
ATOM     51  C   UNL     1      53.034  11.718  19.295  0.00  0.00    +0.256 C 
ENDBRANCH  49  50
ENDBRANCH  43  44
ENDBRANCH  42  43
ENDBRANCH  12  11
ENDBRANCH  13  12
TORSDOF 10
ENDMDL
MODEL 7
REMARK VINA RESULT:      -5.2      2.012      3.093
REMARK  Name = ZINC95485888
REMARK  18 active torsions:
REMARK  status: ('A' for Active; 'I' for Inactive)
REMARK    1  A    between atoms: C1_1  and  N1_2
REMARK    2  A    between atoms: C6_7  and  O6_51
REMARK    3  A    between atoms: C7_8  and  C19_22
REMARK    4  A    between atoms: C10_11  and  C11_13
REMARK    5  A    between atoms: C11_13  and  C12_14
REMARK    6  A    between atoms: C17_19  and  O1_20
REMARK    7  A    between atoms: O1_20  and  C18_21
REMARK    8  A    between atoms: C19_22  and  C20_23
REMARK    9  A    between atoms: C24_27  and  O3_31
REMARK   10  A    between atoms: C25_28  and  O2_29
REMARK   11  A    between atoms: O2_29  and  C26_30
REMARK   12  A    between atoms: O3_31  and  C27_32
REMARK   13  A    between atoms: C31_37  and  O5_49
REMARK   14  A    between atoms: C32_38  and  O4_47
REMARK   15  A    between atoms: N2_45  and  C38_46
REMARK   16  A    between atoms: O4_47  and  C39_48
REMARK   17  A    between atoms: O5_49  and  C40_50
REMARK   18  A    between atoms: O6_51  and  C41_52
REMARK                            x       y       z     vdW  Elec       q    Type
REMARK                         _______ _______ _______ _____ _____    ______ ____
ROOT
ATOM     13  C   UNL     1      51.510  13.809  17.424  0.00  0.00    -0.069 A 
ATOM     14  C   UNL     1      51.520  15.034  18.092  0.00  0.00    -0.057 A 
ATOM     15  C   UNL     1      51.820  15.089  19.424  0.00  0.00    -0.102 A 
ATOM     16  C   UNL     1      51.836  16.321  20.270  0.00  0.00    +0.299 C 
ATOM     17  C   UNL     1      50.634  17.193  20.156  0.00  0.00    -0.137 A 
ATOM     18  C   UNL     1      49.708  17.345  21.165  0.00  0.00    +0.015 A 
ATOM     19  C   UNL     1      48.629  18.200  20.981  0.00  0.00    +0.111 A 
ATOM     22  C   UNL     1      48.485  18.902  19.788  0.00  0.00    +0.141 A 
ATOM     25  C   UNL     1      49.417  18.736  18.771  0.00  0.00    -0.011 A 
ATOM     26  C   UNL     1      50.472  17.880  18.959  0.00  0.00    -0.074 A 
ATOM     27  C   UNL     1      51.502  17.572  17.913  0.00  0.00    +0.070 C 
ATOM     28  C   UNL     1      52.892  17.670  18.520  0.00  0.00    +0.261 C 
ATOM     29  N   UNL     1      53.005  17.118  19.847  0.00  0.00    -0.377 N 
ATOM     30  H   UNL     1      53.136  17.874  20.502  0.00  0.00    +0.427 HD
ATOM     31  C   UNL     1      54.197  16.261  19.877  0.00  0.00    +0.322 C 
ATOM     32  C   UNL     1      52.130  13.901  20.097  0.00  0.00    -0.052 A 
ATOM     33  C   UNL     1      52.125  12.687  19.444  0.00  0.00    +0.120 A 
ATOM     36  C   UNL     1      51.201  16.241  17.272  0.00  0.00    +0.106 C 
ATOM     37  C   UNL     1      51.802  12.635  18.090  0.00  0.00    +0.123 A 
ENDROOT
BRANCH  19  20
ATOM     20  O   UNL     1      47.711  18.353  21.972  0.00  0.00    -0.297 OA
ATOM     21  C   UNL     1      47.126  17.162  22.505  0.00  0.00    +0.251 C 
ENDBRANCH  19  20
BRANCH  22  23
ATOM     23  O   UNL     1      47.433  19.747  19.617  0.00  0.00    -0.288 OA
ATOM     24  C   UNL     1      47.663  21.130  19.889  0.00  0.00    +0.243 C 
ENDBRANCH  22  23
BRANCH  33  34
ATOM     34  O   UNL     1      52.428  11.546  20.119  0.00  0.00    -0.296 OA
ATOM     35  C   UNL     1      52.119  11.515  21.514  0.00  0.00    +0.250 C 
ENDBRANCH  33  34
BRANCH  37  38
ATOM     38  O   UNL     1      51.780  11.446  17.432  0.00  0.00    -0.297 OA
ATOM     39  C   UNL     1      53.042  10.873  17.085  0.00  0.00    +0.232 C 
ENDBRANCH  37  38
BRANCH  13  12
ATOM     12  C   UNL     1      51.170  13.765  15.958  0.00  0.00    +0.153 C 
BRANCH  12  11
ATOM      1  C   UNL     1      44.148  12.189  17.551  0.00  0.00    +0.317 C 
ATOM      2  N   UNL     1      45.425  11.739  16.982  0.00  0.00    -0.376 N 
ATOM      3  H   UNL     1      45.811  11.004  17.556  0.00  0.00    +0.424 HD
ATOM      4  C   UNL     1      45.205  11.235  15.618  0.00  0.00    +0.268 C 
ATOM      5  C   UNL     1      46.463  10.496  15.161  0.00  0.00    +0.121 C 
ATOM      6  C   UNL     1      47.674  11.365  15.383  0.00  0.00    -0.037 A 
ATOM      7  C   UNL     1      48.854  11.039  14.733  0.00  0.00    -0.060 A 
ATOM      8  C   UNL     1      49.989  11.813  14.916  0.00  0.00    +0.173 A 
ATOM     11  C   UNL     1      49.940  12.919  15.753  0.00  0.00    -0.104 A 
ATOM     40  C   UNL     1      48.763  13.241  16.395  0.00  0.00    +0.082 A 
ATOM     41  C   UNL     1      47.627  12.466  16.212  0.00  0.00    -0.169 A 
ATOM     42  C   UNL     1      46.363  12.863  16.929  0.00  0.00    +0.235 C 
BRANCH   8   9
ATOM      9  O   UNL     1      51.144  11.490  14.278  0.00  0.00    -0.270 OA
ATOM     10  C   UNL     1      51.054  11.189  12.884  0.00  0.00    +0.247 C 
ENDBRANCH   8   9
BRANCH  42  43
ATOM     43  C   UNL     1      46.708  13.299  18.354  0.00  0.00    +0.128 C 
BRANCH  43  44
ATOM     44  C   UNL     1      46.234  14.713  18.577  0.00  0.00    -0.159 A 
ATOM     45  C   UNL     1      46.574  15.705  17.677  0.00  0.00    +0.051 A 
ATOM     46  C   UNL     1      46.139  17.001  17.880  0.00  0.00    -0.006 A 
ATOM     47  C   UNL     1      45.363  17.309  18.983  0.00  0.00    +0.076 A 
ATOM     48  C   UNL     1      45.021  16.320  19.885  0.00  0.00    -0.063 A 
ATOM     49  C   UNL     1      45.451  15.017  19.681  0.00  0.00    +0.120 A 
BRANCH  49  50
ATOM     50  O   UNL     1      45.112  14.042  20.563  0.00  0.00    -0.320 OA
ATOM     51  C   UNL     1      45.968  13.862  21.693  0.00  0.00    +0.256 C 
ENDBRANCH  49  50
ENDBRANCH  43  44
ENDBRANCH  42  43
ENDBRANCH  12  11
ENDBRANCH  13  12
TORSDOF 10
ENDMDL
MODEL 8
REMARK VINA RESULT:      -5.2      1.229      2.144
REMARK  Name = ZINC95485888
REMARK  18 active torsions:
REMARK  status: ('A' for Active; 'I' for Inactive)
REMARK    1  A    between atoms: C1_1  and  N1_2
REMARK    2  A    between atoms: C6_7  and  O6_51
REMARK    3  A    between atoms: C7_8  and  C19_22
REMARK    4  A    between atoms: C10_11  and  C11_13
REMARK    5  A    between atoms: C11_13  and  C12_14
REMARK    6  A    between atoms: C17_19  and  O1_20
REMARK    7  A    between atoms: O1_20  and  C18_21
REMARK    8  A    between atoms: C19_22  and  C20_23
REMARK    9  A    between atoms: C24_27  and  O3_31
REMARK   10  A    between atoms: C25_28  and  O2_29
REMARK   11  A    between atoms: O2_29  and  C26_30
REMARK   12  A    between atoms: O3_31  and  C27_32
REMARK   13  A    between atoms: C31_37  and  O5_49
REMARK   14  A    between atoms: C32_38  and  O4_47
REMARK   15  A    between atoms: N2_45  and  C38_46
REMARK   16  A    between atoms: O4_47  and  C39_48
REMARK   17  A    between atoms: O5_49  and  C40_50
REMARK   18  A    between atoms: O6_51  and  C41_52
REMARK                            x       y       z     vdW  Elec       q    Type
REMARK                         _______ _______ _______ _____ _____    ______ ____
ROOT
ATOM     13  C   UNL     1      51.340  16.640  18.520  0.00  0.00    -0.069 A 
ATOM     14  C   UNL     1      50.643  17.755  18.985  0.00  0.00    -0.057 A 
ATOM     15  C   UNL     1      50.709  18.108  20.303  0.00  0.00    -0.102 A 
ATOM     16  C   UNL     1      49.992  19.253  20.943  0.00  0.00    +0.299 C 
ATOM     17  C   UNL     1      48.537  19.348  20.639  0.00  0.00    -0.137 A 
ATOM     18  C   UNL     1      47.549  19.106  21.569  0.00  0.00    +0.015 A 
ATOM     19  C   UNL     1      46.217  19.244  21.204  0.00  0.00    +0.111 A 
ATOM     22  C   UNL     1      45.879  19.627  19.909  0.00  0.00    +0.141 A 
ATOM     25  C   UNL     1      46.880  19.860  18.974  0.00  0.00    -0.011 A 
ATOM     26  C   UNL     1      48.192  19.709  19.341  0.00  0.00    -0.074 A 
ATOM     27  C   UNL     1      49.352  19.870  18.404  0.00  0.00    +0.070 C 
ATOM     28  C   UNL     1      50.413  20.748  19.050  0.00  0.00    +0.261 C 
ATOM     29  N   UNL     1      50.630  20.490  20.451  0.00  0.00    -0.377 N 
ATOM     30  H   UNL     1      50.277  21.271  20.983  0.00  0.00    +0.427 HD
ATOM     31  C   UNL     1      52.080  20.392  20.669  0.00  0.00    +0.322 C 
ATOM     32  C   UNL     1      51.499  17.342  21.169  0.00  0.00    -0.052 A 
ATOM     33  C   UNL     1      52.194  16.240  20.717  0.00  0.00    +0.120 A 
ATOM     36  C   UNL     1      49.853  18.516  17.970  0.00  0.00    +0.106 C 
ATOM     37  C   UNL     1      52.108  15.875  19.376  0.00  0.00    +0.123 A 
ENDROOT
BRANCH  19  20
ATOM     20  O   UNL     1      45.238  19.004  22.116  0.00  0.00    -0.297 OA
ATOM     21  C   UNL     1      44.733  17.669  22.192  0.00  0.00    +0.251 C 
ENDBRANCH  19  20
BRANCH  22  23
ATOM     23  O   UNL     1      44.573  19.772  19.560  0.00  0.00    -0.288 OA
ATOM     24  C   UNL     1      44.053  21.103  19.532  0.00  0.00    +0.243 C 
ENDBRANCH  22  23
BRANCH  33  34
ATOM     34  O   UNL     1      52.953  15.510  21.577  0.00  0.00    -0.296 OA
ATOM     35  C   UNL     1      53.957  16.212  22.314  0.00  0.00    +0.250 C 
ENDBRANCH  33  34
BRANCH  37  38
ATOM     38  O   UNL     1      52.775  14.785  18.914  0.00  0.00    -0.297 OA
ATOM     39  C   UNL     1      52.233  13.504  19.245  0.00  0.00    +0.232 C 
ENDBRANCH  37  38
BRANCH  13  12
ATOM     12  C   UNL     1      51.249  16.259  17.065  0.00  0.00    +0.153 C 
BRANCH  12  11
ATOM      1  C   UNL     1      44.882  13.056  18.943  0.00  0.00    +0.317 C 
ATOM      2  N   UNL     1      46.199  12.926  18.305  0.00  0.00    -0.376 N 
ATOM      3  H   UNL     1      46.775  12.296  18.844  0.00  0.00    +0.424 HD
ATOM      4  C   UNL     1      46.036  12.400  16.941  0.00  0.00    +0.268 C 
ATOM      5  C   UNL     1      47.407  11.984  16.411  0.00  0.00    +0.121 C 
ATOM      6  C   UNL     1      48.390  13.111  16.597  0.00  0.00    -0.037 A 
ATOM      7  C   UNL     1      49.580  13.079  15.886  0.00  0.00    -0.060 A 
ATOM      8  C   UNL     1      50.509  14.097  16.034  0.00  0.00    +0.173 A 
ATOM     11  C   UNL     1      50.243  15.150  16.898  0.00  0.00    -0.104 A 
ATOM     40  C   UNL     1      49.058  15.179  17.601  0.00  0.00    +0.082 A 
ATOM     41  C   UNL     1      48.127  14.160  17.452  0.00  0.00    -0.169 A 
ATOM     42  C   UNL     1      46.843  14.240  18.235  0.00  0.00    +0.235 C 
BRANCH   8   9
ATOM      9  O   UNL     1      51.674  14.062  15.336  0.00  0.00    -0.270 OA
ATOM     10  C   UNL     1      51.785  13.077  14.307  0.00  0.00    +0.247 C 
ENDBRANCH   8   9
BRANCH  42  43
ATOM     43  C   UNL     1      47.147  14.729  19.653  0.00  0.00    +0.128 C 
BRANCH  43  44
ATOM     44  C   UNL     1      47.702  13.590  20.470  0.00  0.00    -0.159 A 
ATOM     45  C   UNL     1      48.678  12.769  19.937  0.00  0.00    +0.051 A 
ATOM     46  C   UNL     1      49.187  11.724  20.685  0.00  0.00    -0.006 A 
ATOM     47  C   UNL     1      48.723  11.498  21.969  0.00  0.00    +0.076 A 
ATOM     48  C   UNL     1      47.747  12.316  22.505  0.00  0.00    -0.063 A 
ATOM     49  C   UNL     1      47.238  13.369  21.758  0.00  0.00    +0.120 A 
BRANCH  49  50
ATOM     50  O   UNL     1      46.283  14.178  22.285  0.00  0.00    -0.320 OA
ATOM     51  C   UNL     1      44.993  13.602  22.505  0.00  0.00    +0.256 C 
ENDBRANCH  49  50
ENDBRANCH  43  44
ENDBRANCH  42  43
ENDBRANCH  12  11
ENDBRANCH  13  12
TORSDOF 10
ENDMDL
MODEL 9
REMARK VINA RESULT:      -5.1      2.250      6.723
REMARK  Name = ZINC95485888
REMARK  18 active torsions:
REMARK  status: ('A' for Active; 'I' for Inactive)
REMARK    1  A    between atoms: C1_1  and  N1_2
REMARK    2  A    between atoms: C6_7  and  O6_51
REMARK    3  A    between atoms: C7_8  and  C19_22
REMARK    4  A    between atoms: C10_11  and  C11_13
REMARK    5  A    between atoms: C11_13  and  C12_14
REMARK    6  A    between atoms: C17_19  and  O1_20
REMARK    7  A    between atoms: O1_20  and  C18_21
REMARK    8  A    between atoms: C19_22  and  C20_23
REMARK    9  A    between atoms: C24_27  and  O3_31
REMARK   10  A    between atoms: C25_28  and  O2_29
REMARK   11  A    between atoms: O2_29  and  C26_30
REMARK   12  A    between atoms: O3_31  and  C27_32
REMARK   13  A    between atoms: C31_37  and  O5_49
REMARK   14  A    between atoms: C32_38  and  O4_47
REMARK   15  A    between atoms: N2_45  and  C38_46
REMARK   16  A    between atoms: O4_47  and  C39_48
REMARK   17  A    between atoms: O5_49  and  C40_50
REMARK   18  A    between atoms: O6_51  and  C41_52
REMARK                            x       y       z     vdW  Elec       q    Type
REMARK                         _______ _______ _______ _____ _____    ______ ____
ROOT
ATOM     13  C   UNL     1      45.817  19.063  19.620  0.00  0.00    -0.069 A 
ATOM     14  C   UNL     1      47.211  19.107  19.663  0.00  0.00    -0.057 A 
ATOM     15  C   UNL     1      47.851  20.230  20.104  0.00  0.00    -0.102 A 
ATOM     16  C   UNL     1      49.332  20.428  20.172  0.00  0.00    +0.299 C 
ATOM     17  C   UNL     1      50.084  20.070  18.937  0.00  0.00    -0.137 A 
ATOM     18  C   UNL     1      50.691  21.001  18.121  0.00  0.00    +0.015 A 
ATOM     19  C   UNL     1      51.394  20.575  17.002  0.00  0.00    +0.111 A 
ATOM     22  C   UNL     1      51.488  19.218  16.707  0.00  0.00    +0.141 A 
ATOM     25  C   UNL     1      50.866  18.287  17.528  0.00  0.00    -0.011 A 
ATOM     26  C   UNL     1      50.164  18.719  18.624  0.00  0.00    -0.074 A 
ATOM     27  C   UNL     1      49.399  17.813  19.544  0.00  0.00    +0.070 C 
ATOM     28  C   UNL     1      49.731  18.154  20.988  0.00  0.00    +0.261 C 
ATOM     29  N   UNL     1      49.831  19.566  21.261  0.00  0.00    -0.377 N 
ATOM     30  H   UNL     1      50.798  19.794  21.439  0.00  0.00    +0.427 HD
ATOM     31  C   UNL     1      49.054  19.843  22.477  0.00  0.00    +0.322 C 
ATOM     32  C   UNL     1      47.085  21.325  20.523  0.00  0.00    -0.052 A 
ATOM     33  C   UNL     1      45.707  21.289  20.487  0.00  0.00    +0.120 A 
ATOM     36  C   UNL     1      47.929  17.874  19.218  0.00  0.00    +0.106 C 
ATOM     37  C   UNL     1      45.061  20.147  20.020  0.00  0.00    +0.123 A 
ENDROOT
BRANCH  19  20
ATOM     20  O   UNL     1      51.993  21.488  16.193  0.00  0.00    -0.297 OA
ATOM     21  C   UNL     1      51.176  22.107  15.195  0.00  0.00    +0.251 C 
ENDBRANCH  19  20
BRANCH  22  23
ATOM     23  O   UNL     1      52.188  18.806  15.616  0.00  0.00    -0.288 OA
ATOM     24  C   UNL     1      52.354  17.397  15.447  0.00  0.00    +0.243 C 
ENDBRANCH  22  23
BRANCH  33  34
ATOM     34  O   UNL     1      44.984  22.365  20.897  0.00  0.00    -0.296 OA
ATOM     35  C   UNL     1      44.838  23.442  19.969  0.00  0.00    +0.250 C 
ENDBRANCH  33  34
BRANCH  37  38
ATOM     38  O   UNL     1      43.704  20.098  19.965  0.00  0.00    -0.297 OA
ATOM     39  C   UNL     1      43.092  20.446  18.721  0.00  0.00    +0.232 C 
ENDBRANCH  37  38
BRANCH  13  12
ATOM     12  C   UNL     1      45.127  17.820  19.124  0.00  0.00    +0.153 C 
BRANCH  12  11
ATOM      1  C   UNL     1      48.709  11.456  20.122  0.00  0.00    +0.317 C 
ATOM      2  N   UNL     1      47.644  12.366  20.565  0.00  0.00    -0.376 N 
ATOM      3  H   UNL     1      46.744  11.936  20.409  0.00  0.00    +0.424 HD
ATOM      4  C   UNL     1      47.810  12.659  21.997  0.00  0.00    +0.268 C 
ATOM      5  C   UNL     1      46.541  13.344  22.505  0.00  0.00    +0.121 C 
ATOM      6  C   UNL     1      46.192  14.502  21.606  0.00  0.00    -0.037 A 
ATOM      7  C   UNL     1      45.298  15.455  22.068  0.00  0.00    -0.060 A 
ATOM      8  C   UNL     1      44.950  16.532  21.268  0.00  0.00    +0.173 A 
ATOM     11  C   UNL     1      45.501  16.653  20.000  0.00  0.00    -0.104 A 
ATOM     40  C   UNL     1      46.392  15.704  19.546  0.00  0.00    +0.082 A 
ATOM     41  C   UNL     1      46.741  14.626  20.347  0.00  0.00    -0.169 A 
ATOM     42  C   UNL     1      47.724  13.620  19.810  0.00  0.00    +0.235 C 
BRANCH   8   9
ATOM      9  O   UNL     1      44.072  17.464  21.724  0.00  0.00    -0.270 OA
ATOM     10  C   UNL     1      42.802  16.992  22.177  0.00  0.00    +0.247 C 
ENDBRANCH   8   9
BRANCH  42  43
ATOM     43  C   UNL     1      47.409  13.344  18.339  0.00  0.00    +0.128 C 
BRANCH  43  44
ATOM     44  C   UNL     1      48.651  13.552  17.511  0.00  0.00    -0.159 A 
ATOM     45  C   UNL     1      49.657  14.381  17.970  0.00  0.00    +0.051 A 
ATOM     46  C   UNL     1      50.796  14.573  17.212  0.00  0.00    -0.006 A 
ATOM     47  C   UNL     1      50.935  13.935  15.992  0.00  0.00    +0.076 A 
ATOM     48  C   UNL     1      49.932  13.105  15.529  0.00  0.00    -0.063 A 
ATOM     49  C   UNL     1      48.789  12.907  16.290  0.00  0.00    +0.120 A 
BRANCH  49  50
ATOM     50  O   UNL     1      47.805  12.087  15.840  0.00  0.00    -0.320 OA
ATOM     51  C   UNL     1      48.210  10.932  15.102  0.00  0.00    +0.256 C 
ENDBRANCH  49  50
ENDBRANCH  43  44
ENDBRANCH  42  43
ENDBRANCH  12  11
ENDBRANCH  13  12
TORSDOF 10
ENDMDL
