MODEL 1
REMARK VINA RESULT:      -5.5      0.000      0.000
REMARK  Name = ZINC95486037
REMARK  10 active torsions:
REMARK  status: ('A' for Active; 'I' for Inactive)
REMARK    1  A    between atoms: C1_1  and  C2_2
REMARK    2  A    between atoms: C2_2  and  C3_4
REMARK    3  A    between atoms: C3_4  and  C5_6
REMARK    4  A    between atoms: C6_8  and  O5_25
REMARK    5  A    between atoms: C8_11  and  C15_23
REMARK    6  A    between atoms: C14_20  and  O4_22
REMARK    7  A    between atoms: O5_25  and  C17_26
REMARK    8  A    between atoms: C17_26  and  C18_28
REMARK    9  A    between atoms: C18_28  and  C20_30
REMARK   10  A    between atoms: C20_30  and  O7_31
REMARK                            x       y       z     vdW  Elec       q    Type
REMARK                         _______ _______ _______ _____ _____    ______ ____
ROOT
ATOM      4  C   UNL     1      43.153  19.023  19.292  0.00  0.00    +0.024 C 
ATOM      5  C   UNL     1      43.714  18.275  20.502  0.00  0.00    +0.199 C 
ATOM     14  C   UNL     1      43.823  19.224  21.699  0.00  0.00    +0.040 C 
ATOM     15  C   UNL     1      44.746  20.384  21.330  0.00  0.00    -0.060 C 
ATOM     18  C   UNL     1      44.917  21.343  22.505  0.00  0.00    +0.264 C 
ATOM     19  O   UNL     1      45.827  22.387  22.136  0.00  0.00    -0.352 OA
ATOM     20  C   UNL     1      45.506  23.096  21.023  0.00  0.00    +0.524 C 
ATOM     21  C   UNL     1      45.050  22.316  19.843  0.00  0.00    -0.193 C 
ATOM     22  C   UNL     1      45.421  22.625  18.603  0.00  0.00    +0.157 C 
ATOM     23  O   UNL     1      45.587  24.308  20.994  0.00  0.00    -0.448 OA
ATOM     24  C   UNL     1      44.137  21.145  20.144  0.00  0.00    +0.061 C 
ATOM     25  C   UNL     1      44.062  20.206  18.944  0.00  0.00    +0.197 C 
ENDROOT
BRANCH   4   3
ATOM      3  C   UNL     1      41.771  19.531  19.615  0.00  0.00    -0.202 C 
ATOM     28  C   UNL     1      41.237  19.295  20.814  0.00  0.00    +0.154 C 
BRANCH   3   2
ATOM      1  C   UNL     1      40.825  21.769  18.771  0.00  0.00    +0.071 C 
ATOM      2  C   UNL     1      41.016  20.283  18.612  0.00  0.00    +0.390 C 
ATOM     29  O   UNL     1      40.543  19.709  17.653  0.00  0.00    -0.454 OA
ENDBRANCH   3   2
ENDBRANCH   4   3
BRANCH  15  16
ATOM     16  C   UNL     1      46.095  19.842  20.936  0.00  0.00    +0.038 C 
ATOM     17  C   UNL     1      46.966  19.517  21.859  0.00  0.00    -0.023 C 
ENDBRANCH  15  16
BRANCH  25  26
ATOM     26  O   UNL     1      45.370  19.727  18.628  0.00  0.00    -0.527 OA
ATOM     27  H   UNL     1      45.860  19.388  19.389  0.00  0.00    +0.371 HD
ENDBRANCH  25  26
BRANCH   5   6
ATOM      6  O   UNL     1      45.009  17.764  20.185  0.00  0.00    -0.315 OA
BRANCH   6   7
ATOM      7  C   UNL     1      45.145  16.423  20.137  0.00  0.00    +0.502 C 
ATOM     13  O   UNL     1      44.576  15.726  20.954  0.00  0.00    -0.505 OA
BRANCH   7   8
ATOM      8  C   UNL     1      45.981  15.805  19.099  0.00  0.00    -0.179 C 
ATOM     12  C   UNL     1      46.074  14.480  19.022  0.00  0.00    +0.195 C 
BRANCH   8   9
ATOM      9  C   UNL     1      46.733  16.672  18.122  0.00  0.00    +0.253 C 
BRANCH   9  10
ATOM     10  O   UNL     1      45.803  17.387  17.306  0.00  0.00    -0.573 OA
ATOM     11  H   UNL     1      46.163  18.195  16.917  0.00  0.00    +0.389 HD
ENDBRANCH   9  10
ENDBRANCH   8   9
ENDBRANCH   7   8
ENDBRANCH   6   7
ENDBRANCH   5   6
TORSDOF 9
ENDMDL
MODEL 2
REMARK VINA RESULT:      -5.5      1.424      5.337
REMARK  Name = ZINC95486037
REMARK  10 active torsions:
REMARK  status: ('A' for Active; 'I' for Inactive)
REMARK    1  A    between atoms: C1_1  and  C2_2
REMARK    2  A    between atoms: C2_2  and  C3_4
REMARK    3  A    between atoms: C3_4  and  C5_6
REMARK    4  A    between atoms: C6_8  and  O5_25
REMARK    5  A    between atoms: C8_11  and  C15_23
REMARK    6  A    between atoms: C14_20  and  O4_22
REMARK    7  A    between atoms: O5_25  and  C17_26
REMARK    8  A    between atoms: C17_26  and  C18_28
REMARK    9  A    between atoms: C18_28  and  C20_30
REMARK   10  A    between atoms: C20_30  and  O7_31
REMARK                            x       y       z     vdW  Elec       q    Type
REMARK                         _______ _______ _______ _____ _____    ______ ____
ROOT
ATOM      4  C   UNL     1      43.093  20.328  20.561  0.00  0.00    +0.024 C 
ATOM      5  C   UNL     1      44.083  20.834  19.511  0.00  0.00    +0.199 C 
ATOM     14  C   UNL     1      44.476  19.691  18.570  0.00  0.00    +0.040 C 
ATOM     15  C   UNL     1      45.113  18.570  19.389  0.00  0.00    -0.060 C 
ATOM     18  C   UNL     1      45.556  17.418  18.491  0.00  0.00    +0.264 C 
ATOM     19  O   UNL     1      46.192  16.412  19.289  0.00  0.00    -0.352 OA
ATOM     20  C   UNL     1      45.463  15.918  20.322  0.00  0.00    +0.524 C 
ATOM     21  C   UNL     1      44.732  16.907  21.157  0.00  0.00    -0.193 C 
ATOM     22  C   UNL     1      44.654  16.797  22.481  0.00  0.00    +0.157 C 
ATOM     23  O   UNL     1      45.410  14.726  20.553  0.00  0.00    -0.448 OA
ATOM     24  C   UNL     1      44.084  18.050  20.403  0.00  0.00    +0.061 C 
ATOM     25  C   UNL     1      43.721  19.181  21.360  0.00  0.00    +0.197 C 
ENDROOT
BRANCH   4   3
ATOM      3  C   UNL     1      41.845  19.836  19.876  0.00  0.00    -0.202 C 
ATOM     28  C   UNL     1      41.172  18.798  20.379  0.00  0.00    +0.154 C 
BRANCH   3   2
ATOM      1  C   UNL     1      41.090  21.975  18.664  0.00  0.00    +0.071 C 
ATOM      2  C   UNL     1      41.370  20.494  18.659  0.00  0.00    +0.390 C 
ATOM     29  O   UNL     1      41.202  19.849  17.645  0.00  0.00    -0.454 OA
ENDBRANCH   3   2
ENDBRANCH   4   3
BRANCH  15  16
ATOM     16  C   UNL     1      46.311  19.109  20.126  0.00  0.00    +0.038 C 
ATOM     17  C   UNL     1      47.453  19.254  19.501  0.00  0.00    -0.023 C 
ENDBRANCH  15  16
BRANCH  25  26
ATOM     26  O   UNL     1      44.900  19.647  22.019  0.00  0.00    -0.527 OA
ATOM     27  H   UNL     1      44.859  20.575  22.289  0.00  0.00    +0.371 HD
ENDBRANCH  25  26
BRANCH   5   6
ATOM      6  O   UNL     1      45.253  21.332  20.163  0.00  0.00    -0.315 OA
BRANCH   6   7
ATOM      7  C   UNL     1      45.347  22.668  20.314  0.00  0.00    +0.502 C 
ATOM     13  O   UNL     1      44.644  23.406  19.653  0.00  0.00    -0.505 OA
BRANCH   7   8
ATOM      8  C   UNL     1      46.302  23.233  21.278  0.00  0.00    -0.179 C 
ATOM     12  C   UNL     1      46.923  22.437  22.144  0.00  0.00    +0.195 C 
BRANCH   8   9
ATOM      9  C   UNL     1      46.576  24.716  21.287  0.00  0.00    +0.253 C 
BRANCH   9  10
ATOM     10  O   UNL     1      45.347  25.425  21.457  0.00  0.00    -0.573 OA
ATOM     11  H   UNL     1      45.041  25.467  22.373  0.00  0.00    +0.389 HD
ENDBRANCH   9  10
ENDBRANCH   8   9
ENDBRANCH   7   8
ENDBRANCH   6   7
ENDBRANCH   5   6
TORSDOF 9
ENDMDL
MODEL 3
REMARK VINA RESULT:      -5.3      1.839      5.005
REMARK  Name = ZINC95486037
REMARK  10 active torsions:
REMARK  status: ('A' for Active; 'I' for Inactive)
REMARK    1  A    between atoms: C1_1  and  C2_2
REMARK    2  A    between atoms: C2_2  and  C3_4
REMARK    3  A    between atoms: C3_4  and  C5_6
REMARK    4  A    between atoms: C6_8  and  O5_25
REMARK    5  A    between atoms: C8_11  and  C15_23
REMARK    6  A    between atoms: C14_20  and  O4_22
REMARK    7  A    between atoms: O5_25  and  C17_26
REMARK    8  A    between atoms: C17_26  and  C18_28
REMARK    9  A    between atoms: C18_28  and  C20_30
REMARK   10  A    between atoms: C20_30  and  O7_31
REMARK                            x       y       z     vdW  Elec       q    Type
REMARK                         _______ _______ _______ _____ _____    ______ ____
ROOT
ATOM      4  C   UNL     1      44.553  20.584  18.966  0.00  0.00    +0.024 C 
ATOM      5  C   UNL     1      43.691  20.319  20.202  0.00  0.00    +0.199 C 
ATOM     14  C   UNL     1      44.582  19.937  21.388  0.00  0.00    +0.040 C 
ATOM     15  C   UNL     1      45.376  18.683  21.028  0.00  0.00    -0.060 C 
ATOM     18  C   UNL     1      46.256  18.238  22.194  0.00  0.00    +0.264 C 
ATOM     19  O   UNL     1      46.944  17.033  21.834  0.00  0.00    -0.352 OA
ATOM     20  C   UNL     1      47.694  17.087  20.704  0.00  0.00    +0.524 C 
ATOM     21  C   UNL     1      47.076  17.743  19.522  0.00  0.00    -0.193 C 
ATOM     22  C   UNL     1      47.221  17.266  18.289  0.00  0.00    +0.157 C 
ATOM     23  O   UNL     1      48.815  16.620  20.659  0.00  0.00    -0.448 OA
ATOM     24  C   UNL     1      46.266  18.990  19.814  0.00  0.00    +0.061 C 
ATOM     25  C   UNL     1      45.374  19.336  18.626  0.00  0.00    +0.197 C 
ENDROOT
BRANCH   4   3
ATOM      3  C   UNL     1      45.484  21.736  19.244  0.00  0.00    -0.202 C 
ATOM     28  C   UNL     1      46.779  21.635  18.940  0.00  0.00    +0.154 C 
BRANCH   3   2
ATOM      1  C   UNL     1      45.594  23.507  21.105  0.00  0.00    +0.071 C 
ATOM      2  C   UNL     1      44.968  22.965  19.847  0.00  0.00    +0.390 C 
ATOM     29  O   UNL     1      44.035  23.548  19.333  0.00  0.00    -0.454 OA
ENDBRANCH   3   2
ENDBRANCH   4   3
BRANCH  15  16
ATOM     16  C   UNL     1      44.422  17.571  20.679  0.00  0.00    +0.038 C 
ATOM     17  C   UNL     1      43.891  16.841  21.628  0.00  0.00    -0.023 C 
ENDBRANCH  15  16
BRANCH  25  26
ATOM     26  O   UNL     1      44.494  18.245  18.353  0.00  0.00    -0.527 OA
ATOM     27  H   UNL     1      44.547  17.914  17.446  0.00  0.00    +0.371 HD
ENDBRANCH  25  26
BRANCH   5   6
ATOM      6  O   UNL     1      42.785  19.249  19.927  0.00  0.00    -0.315 OA
BRANCH   6   7
ATOM      7  C   UNL     1      41.469  19.538  19.959  0.00  0.00    +0.502 C 
ATOM     13  O   UNL     1      40.814  19.278  20.950  0.00  0.00    -0.505 OA
BRANCH   7   8
ATOM      8  C   UNL     1      40.825  20.166  18.797  0.00  0.00    -0.179 C 
ATOM     12  C   UNL     1      40.635  19.466  17.682  0.00  0.00    +0.195 C 
BRANCH   8   9
ATOM      9  C   UNL     1      40.381  21.605  18.868  0.00  0.00    +0.253 C 
BRANCH   9  10
ATOM     10  O   UNL     1      41.447  22.454  18.439  0.00  0.00    -0.573 OA
ATOM     11  H   UNL     1      42.028  22.052  17.780  0.00  0.00    +0.389 HD
ENDBRANCH   9  10
ENDBRANCH   8   9
ENDBRANCH   7   8
ENDBRANCH   6   7
ENDBRANCH   5   6
TORSDOF 9
ENDMDL
MODEL 4
REMARK VINA RESULT:      -5.2      2.036      5.788
REMARK  Name = ZINC95486037
REMARK  10 active torsions:
REMARK  status: ('A' for Active; 'I' for Inactive)
REMARK    1  A    between atoms: C1_1  and  C2_2
REMARK    2  A    between atoms: C2_2  and  C3_4
REMARK    3  A    between atoms: C3_4  and  C5_6
REMARK    4  A    between atoms: C6_8  and  O5_25
REMARK    5  A    between atoms: C8_11  and  C15_23
REMARK    6  A    between atoms: C14_20  and  O4_22
REMARK    7  A    between atoms: O5_25  and  C17_26
REMARK    8  A    between atoms: C17_26  and  C18_28
REMARK    9  A    between atoms: C18_28  and  C20_30
REMARK   10  A    between atoms: C20_30  and  O7_31
REMARK                            x       y       z     vdW  Elec       q    Type
REMARK                         _______ _______ _______ _____ _____    ______ ____
ROOT
ATOM      4  C   UNL     1      46.254  20.143  19.599  0.00  0.00    +0.024 C 
ATOM      5  C   UNL     1      45.697  19.403  20.815  0.00  0.00    +0.199 C 
ATOM     14  C   UNL     1      46.652  18.278  21.226  0.00  0.00    +0.040 C 
ATOM     15  C   UNL     1      46.811  17.311  20.055  0.00  0.00    -0.060 C 
ATOM     18  C   UNL     1      47.729  16.148  20.426  0.00  0.00    +0.264 C 
ATOM     19  O   UNL     1      47.811  15.239  19.321  0.00  0.00    -0.352 OA
ATOM     20  C   UNL     1      48.217  15.769  18.139  0.00  0.00    +0.524 C 
ATOM     21  C   UNL     1      47.607  17.065  17.743  0.00  0.00    -0.193 C 
ATOM     22  C   UNL     1      47.251  17.328  16.488  0.00  0.00    +0.157 C 
ATOM     23  O   UNL     1      49.038  15.211  17.437  0.00  0.00    -0.448 OA
ATOM     24  C   UNL     1      47.415  18.067  18.863  0.00  0.00    +0.061 C 
ATOM     25  C   UNL     1      46.445  19.164  18.436  0.00  0.00    +0.197 C 
ENDROOT
BRANCH   4   3
ATOM      3  C   UNL     1      47.581  20.762  19.955  0.00  0.00    -0.202 C 
ATOM     28  C   UNL     1      48.613  20.658  19.115  0.00  0.00    +0.154 C 
BRANCH   3   2
ATOM      1  C   UNL     1      46.852  22.655  21.537  0.00  0.00    +0.071 C 
ATOM      2  C   UNL     1      47.738  21.477  21.222  0.00  0.00    +0.390 C 
ATOM     29  O   UNL     1      48.581  21.122  22.018  0.00  0.00    -0.454 OA
ENDBRANCH   3   2
ENDBRANCH   4   3
BRANCH  15  16
ATOM     16  C   UNL     1      45.460  16.767  19.669  0.00  0.00    +0.038 C 
ATOM     17  C   UNL     1      44.958  15.743  20.312  0.00  0.00    -0.023 C 
ENDBRANCH  15  16
BRANCH  25  26
ATOM     26  O   UNL     1      45.186  18.583  18.089  0.00  0.00    -0.527 OA
ATOM     27  H   UNL     1      44.625  19.153  17.546  0.00  0.00    +0.371 HD
ENDBRANCH  25  26
BRANCH   5   6
ATOM      6  O   UNL     1      44.423  18.844  20.488  0.00  0.00    -0.315 OA
BRANCH   6   7
ATOM      7  C   UNL     1      43.349  19.355  21.124  0.00  0.00    +0.502 C 
ATOM     13  O   UNL     1      43.467  19.816  22.242  0.00  0.00    -0.505 OA
BRANCH   7   8
ATOM      8  C   UNL     1      42.035  19.352  20.465  0.00  0.00    -0.179 C 
ATOM     12  C   UNL     1      40.961  18.927  21.125  0.00  0.00    +0.195 C 
BRANCH   8   9
ATOM      9  C   UNL     1      41.905  19.831  19.042  0.00  0.00    +0.253 C 
BRANCH   9  10
ATOM     10  O   UNL     1      42.994  20.702  18.731  0.00  0.00    -0.573 OA
ATOM     11  H   UNL     1      43.819  20.242  18.528  0.00  0.00    +0.389 HD
ENDBRANCH   9  10
ENDBRANCH   8   9
ENDBRANCH   7   8
ENDBRANCH   6   7
ENDBRANCH   5   6
TORSDOF 9
ENDMDL
MODEL 5
REMARK VINA RESULT:      -5.1      2.146      6.271
REMARK  Name = ZINC95486037
REMARK  10 active torsions:
REMARK  status: ('A' for Active; 'I' for Inactive)
REMARK    1  A    between atoms: C1_1  and  C2_2
REMARK    2  A    between atoms: C2_2  and  C3_4
REMARK    3  A    between atoms: C3_4  and  C5_6
REMARK    4  A    between atoms: C6_8  and  O5_25
REMARK    5  A    between atoms: C8_11  and  C15_23
REMARK    6  A    between atoms: C14_20  and  O4_22
REMARK    7  A    between atoms: O5_25  and  C17_26
REMARK    8  A    between atoms: C17_26  and  C18_28
REMARK    9  A    between atoms: C18_28  and  C20_30
REMARK   10  A    between atoms: C20_30  and  O7_31
REMARK                            x       y       z     vdW  Elec       q    Type
REMARK                         _______ _______ _______ _____ _____    ______ ____
ROOT
ATOM      4  C   UNL     1      47.163  20.862  19.813  0.00  0.00    +0.024 C 
ATOM      5  C   UNL     1      46.274  20.857  21.057  0.00  0.00    +0.199 C 
ATOM     14  C   UNL     1      46.333  19.486  21.737  0.00  0.00    +0.040 C 
ATOM     15  C   UNL     1      45.855  18.422  20.751  0.00  0.00    -0.060 C 
ATOM     18  C   UNL     1      45.861  17.037  21.393  0.00  0.00    +0.264 C 
ATOM     19  O   UNL     1      45.359  16.077  20.453  0.00  0.00    -0.352 OA
ATOM     20  C   UNL     1      46.000  16.019  19.258  0.00  0.00    +0.524 C 
ATOM     21  C   UNL     1      46.318  17.315  18.606  0.00  0.00    -0.193 C 
ATOM     22  C   UNL     1      46.195  17.499  17.294  0.00  0.00    +0.157 C 
ATOM     23  O   UNL     1      46.298  14.958  18.745  0.00  0.00    -0.448 OA
ATOM     24  C   UNL     1      46.791  18.416  19.533  0.00  0.00    +0.061 C 
ATOM     25  C   UNL     1      46.703  19.772  18.840  0.00  0.00    +0.197 C 
ENDROOT
BRANCH   4   3
ATOM      3  C   UNL     1      48.591  20.601  20.219  0.00  0.00    -0.202 C 
ATOM     28  C   UNL     1      48.933  20.622  21.508  0.00  0.00    +0.154 C 
BRANCH   3   2
ATOM      1  C   UNL     1      50.305  18.992  19.175  0.00  0.00    +0.071 C 
ATOM      2  C   UNL     1      49.602  20.325  19.198  0.00  0.00    +0.390 C 
ATOM     29  O   UNL     1      49.875  21.169  18.370  0.00  0.00    -0.454 OA
ENDBRANCH   3   2
ENDBRANCH   4   3
BRANCH  15  16
ATOM     16  C   UNL     1      44.455  18.751  20.302  0.00  0.00    +0.038 C 
ATOM     17  C   UNL     1      43.431  18.391  21.034  0.00  0.00    -0.023 C 
ENDBRANCH  15  16
BRANCH  25  26
ATOM     26  O   UNL     1      45.353  20.022  18.446  0.00  0.00    -0.527 OA
ATOM     27  H   UNL     1      45.254  20.750  17.817  0.00  0.00    +0.371 HD
ENDBRANCH  25  26
BRANCH   5   6
ATOM      6  O   UNL     1      44.926  21.138  20.677  0.00  0.00    -0.315 OA
BRANCH   6   7
ATOM      7  C   UNL     1      44.500  22.409  20.825  0.00  0.00    +0.502 C 
ATOM     13  O   UNL     1      44.617  22.968  21.897  0.00  0.00    -0.505 OA
BRANCH   7   8
ATOM      8  C   UNL     1      43.892  23.117  19.689  0.00  0.00    -0.179 C 
ATOM     12  C   UNL     1      44.530  24.139  19.124  0.00  0.00    +0.195 C 
BRANCH   8   9
ATOM      9  C   UNL     1      42.546  22.686  19.165  0.00  0.00    +0.253 C 
BRANCH   9  10
ATOM     10  O   UNL     1      42.605  21.313  18.774  0.00  0.00    -0.573 OA
ATOM     11  H   UNL     1      43.503  20.959  18.718  0.00  0.00    +0.389 HD
ENDBRANCH   9  10
ENDBRANCH   8   9
ENDBRANCH   7   8
ENDBRANCH   6   7
ENDBRANCH   5   6
TORSDOF 9
ENDMDL
MODEL 6
REMARK VINA RESULT:      -4.9      3.297      5.385
REMARK  Name = ZINC95486037
REMARK  10 active torsions:
REMARK  status: ('A' for Active; 'I' for Inactive)
REMARK    1  A    between atoms: C1_1  and  C2_2
REMARK    2  A    between atoms: C2_2  and  C3_4
REMARK    3  A    between atoms: C3_4  and  C5_6
REMARK    4  A    between atoms: C6_8  and  O5_25
REMARK    5  A    between atoms: C8_11  and  C15_23
REMARK    6  A    between atoms: C14_20  and  O4_22
REMARK    7  A    between atoms: O5_25  and  C17_26
REMARK    8  A    between atoms: C17_26  and  C18_28
REMARK    9  A    between atoms: C18_28  and  C20_30
REMARK   10  A    between atoms: C20_30  and  O7_31
REMARK                            x       y       z     vdW  Elec       q    Type
REMARK                         _______ _______ _______ _____ _____    ______ ____
ROOT
ATOM      4  C   UNL     1      45.673  15.662  18.998  0.00  0.00    +0.024 C 
ATOM      5  C   UNL     1      47.037  15.024  18.728  0.00  0.00    +0.199 C 
ATOM     14  C   UNL     1      48.121  15.751  19.530  0.00  0.00    +0.040 C 
ATOM     15  C   UNL     1      48.143  17.220  19.117  0.00  0.00    -0.060 C 
ATOM     18  C   UNL     1      49.235  17.984  19.863  0.00  0.00    +0.264 C 
ATOM     19  O   UNL     1      49.255  19.344  19.411  0.00  0.00    -0.352 OA
ATOM     20  C   UNL     1      48.086  20.025  19.511  0.00  0.00    +0.524 C 
ATOM     21  C   UNL     1      46.858  19.315  19.068  0.00  0.00    -0.193 C 
ATOM     22  C   UNL     1      45.892  19.925  18.386  0.00  0.00    +0.157 C 
ATOM     23  O   UNL     1      48.044  21.161  19.941  0.00  0.00    -0.448 OA
ATOM     24  C   UNL     1      46.779  17.848  19.441  0.00  0.00    +0.061 C 
ATOM     25  C   UNL     1      45.707  17.145  18.615  0.00  0.00    +0.197 C 
ENDROOT
BRANCH   4   3
ATOM      3  C   UNL     1      45.341  15.531  20.462  0.00  0.00    -0.202 C 
ATOM     28  C   UNL     1      44.838  16.573  21.128  0.00  0.00    +0.154 C 
BRANCH   3   2
ATOM      1  C   UNL     1      46.411  14.227  22.403  0.00  0.00    +0.071 C 
ATOM      2  C   UNL     1      45.570  14.262  21.154  0.00  0.00    +0.390 C 
ATOM     29  O   UNL     1      45.082  13.239  20.721  0.00  0.00    -0.454 OA
ENDBRANCH   3   2
ENDBRANCH   4   3
BRANCH  15  16
ATOM     16  C   UNL     1      48.399  17.319  17.635  0.00  0.00    +0.038 C 
ATOM     17  C   UNL     1      49.626  17.409  17.187  0.00  0.00    -0.023 C 
ENDBRANCH  15  16
BRANCH  25  26
ATOM     26  O   UNL     1      46.012  17.273  17.225  0.00  0.00    -0.527 OA
ATOM     27  H   UNL     1      45.862  18.159  16.868  0.00  0.00    +0.371 HD
ENDBRANCH  25  26
BRANCH   5   6
ATOM      6  O   UNL     1      47.337  15.118  17.335  0.00  0.00    -0.315 OA
BRANCH   6   7
ATOM      7  C   UNL     1      47.330  13.970  16.628  0.00  0.00    +0.502 C 
ATOM     13  O   UNL     1      46.324  13.289  16.586  0.00  0.00    -0.505 OA
BRANCH   7   8
ATOM      8  C   UNL     1      48.538  13.542  15.909  0.00  0.00    -0.179 C 
ATOM     12  C   UNL     1      49.741  13.856  16.383  0.00  0.00    +0.195 C 
BRANCH   8   9
ATOM      9  C   UNL     1      48.414  12.747  14.634  0.00  0.00    +0.253 C 
BRANCH   9  10
ATOM     10  O   UNL     1      47.430  13.349  13.791  0.00  0.00    -0.573 OA
ATOM     11  H   UNL     1      47.791  13.747  12.988  0.00  0.00    +0.389 HD
ENDBRANCH   9  10
ENDBRANCH   8   9
ENDBRANCH   7   8
ENDBRANCH   6   7
ENDBRANCH   5   6
TORSDOF 9
ENDMDL
MODEL 7
REMARK VINA RESULT:      -4.8      1.968      3.842
REMARK  Name = ZINC95486037
REMARK  10 active torsions:
REMARK  status: ('A' for Active; 'I' for Inactive)
REMARK    1  A    between atoms: C1_1  and  C2_2
REMARK    2  A    between atoms: C2_2  and  C3_4
REMARK    3  A    between atoms: C3_4  and  C5_6
REMARK    4  A    between atoms: C6_8  and  O5_25
REMARK    5  A    between atoms: C8_11  and  C15_23
REMARK    6  A    between atoms: C14_20  and  O4_22
REMARK    7  A    between atoms: O5_25  and  C17_26
REMARK    8  A    between atoms: C17_26  and  C18_28
REMARK    9  A    between atoms: C18_28  and  C20_30
REMARK   10  A    between atoms: C20_30  and  O7_31
REMARK                            x       y       z     vdW  Elec       q    Type
REMARK                         _______ _______ _______ _____ _____    ______ ____
ROOT
ATOM      4  C   UNL     1      45.044  17.371  19.454  0.00  0.00    +0.024 C 
ATOM      5  C   UNL     1      46.572  17.409  19.425  0.00  0.00    +0.199 C 
ATOM     14  C   UNL     1      47.096  18.263  20.583  0.00  0.00    +0.040 C 
ATOM     15  C   UNL     1      46.537  19.678  20.448  0.00  0.00    -0.060 C 
ATOM     18  C   UNL     1      47.059  20.582  21.562  0.00  0.00    +0.264 C 
ATOM     19  O   UNL     1      46.553  21.910  21.371  0.00  0.00    -0.352 OA
ATOM     20  C   UNL     1      45.204  22.030  21.294  0.00  0.00    +0.524 C 
ATOM     21  C   UNL     1      44.492  21.040  20.444  0.00  0.00    -0.193 C 
ATOM     22  C   UNL     1      43.472  21.381  19.660  0.00  0.00    +0.157 C 
ATOM     23  O   UNL     1      44.606  22.905  21.889  0.00  0.00    -0.448 OA
ATOM     24  C   UNL     1      45.005  19.617  20.527  0.00  0.00    +0.061 C 
ATOM     25  C   UNL     1      44.485  18.794  19.353  0.00  0.00    +0.197 C 
ENDROOT
BRANCH   4   3
ATOM      3  C   UNL     1      44.583  16.744  20.745  0.00  0.00    -0.202 C 
ATOM     28  C   UNL     1      43.680  17.366  21.505  0.00  0.00    +0.154 C 
BRANCH   3   2
ATOM      1  C   UNL     1      45.802  15.319  22.505  0.00  0.00    +0.071 C 
ATOM      2  C   UNL     1      45.127  15.452  21.165  0.00  0.00    +0.390 C 
ATOM     29  O   UNL     1      45.034  14.488  20.434  0.00  0.00    -0.454 OA
ENDBRANCH   3   2
ENDBRANCH   4   3
BRANCH  15  16
ATOM     16  C   UNL     1      46.946  20.251  19.116  0.00  0.00    +0.038 C 
ATOM     17  C   UNL     1      48.159  20.716  18.948  0.00  0.00    -0.023 C 
ENDBRANCH  15  16
BRANCH  25  26
ATOM     26  O   UNL     1      44.911  19.388  18.125  0.00  0.00    -0.527 OA
ATOM     27  H   UNL     1      45.668  19.983  18.218  0.00  0.00    +0.371 HD
ENDBRANCH  25  26
BRANCH   5   6
ATOM      6  O   UNL     1      47.009  17.972  18.187  0.00  0.00    -0.315 OA
BRANCH   6   7
ATOM      7  C   UNL     1      47.468  17.116  17.252  0.00  0.00    +0.502 C 
ATOM     13  O   UNL     1      46.701  16.633  16.442  0.00  0.00    -0.505 OA
BRANCH   7   8
ATOM      8  C   UNL     1      48.894  16.766  17.213  0.00  0.00    -0.179 C 
ATOM     12  C   UNL     1      49.814  17.725  17.140  0.00  0.00    +0.195 C 
BRANCH   8   9
ATOM      9  C   UNL     1      49.317  15.319  17.254  0.00  0.00    +0.253 C 
BRANCH   9  10
ATOM     10  O   UNL     1      48.212  14.513  17.668  0.00  0.00    -0.573 OA
ATOM     11  H   UNL     1      48.332  13.568  17.504  0.00  0.00    +0.389 HD
ENDBRANCH   9  10
ENDBRANCH   8   9
ENDBRANCH   7   8
ENDBRANCH   6   7
ENDBRANCH   5   6
TORSDOF 9
ENDMDL
MODEL 8
REMARK VINA RESULT:      -4.8      3.358      6.339
REMARK  Name = ZINC95486037
REMARK  10 active torsions:
REMARK  status: ('A' for Active; 'I' for Inactive)
REMARK    1  A    between atoms: C1_1  and  C2_2
REMARK    2  A    between atoms: C2_2  and  C3_4
REMARK    3  A    between atoms: C3_4  and  C5_6
REMARK    4  A    between atoms: C6_8  and  O5_25
REMARK    5  A    between atoms: C8_11  and  C15_23
REMARK    6  A    between atoms: C14_20  and  O4_22
REMARK    7  A    between atoms: O5_25  and  C17_26
REMARK    8  A    between atoms: C17_26  and  C18_28
REMARK    9  A    between atoms: C18_28  and  C20_30
REMARK   10  A    between atoms: C20_30  and  O7_31
REMARK                            x       y       z     vdW  Elec       q    Type
REMARK                         _______ _______ _______ _____ _____    ______ ____
ROOT
ATOM      4  C   UNL     1      47.953  19.713  20.777  0.00  0.00    +0.024 C 
ATOM      5  C   UNL     1      48.246  19.968  19.298  0.00  0.00    +0.199 C 
ATOM     14  C   UNL     1      47.152  19.337  18.432  0.00  0.00    +0.040 C 
ATOM     15  C   UNL     1      47.109  17.835  18.702  0.00  0.00    -0.060 C 
ATOM     18  C   UNL     1      46.055  17.151  17.834  0.00  0.00    +0.264 C 
ATOM     19  O   UNL     1      46.082  15.740  18.081  0.00  0.00    -0.352 OA
ATOM     20  C   UNL     1      45.916  15.355  19.372  0.00  0.00    +0.524 C 
ATOM     21  C   UNL     1      46.681  16.109  20.398  0.00  0.00    -0.193 C 
ATOM     22  C   UNL     1      47.255  15.510  21.439  0.00  0.00    +0.157 C 
ATOM     23  O   UNL     1      45.178  14.438  19.675  0.00  0.00    -0.448 OA
ATOM     24  C   UNL     1      46.768  17.606  20.182  0.00  0.00    +0.061 C 
ATOM     25  C   UNL     1      47.877  18.206  21.040  0.00  0.00    +0.197 C 
ENDROOT
BRANCH   4   3
ATOM      3  C   UNL     1      46.639  20.352  21.144  0.00  0.00    -0.202 C 
ATOM     28  C   UNL     1      45.699  19.637  21.765  0.00  0.00    +0.154 C 
BRANCH   3   2
ATOM      1  C   UNL     1      45.292  22.125  19.857  0.00  0.00    +0.071 C 
ATOM      2  C   UNL     1      46.392  21.757  20.818  0.00  0.00    +0.390 C 
ATOM     29  O   UNL     1      47.074  22.625  21.321  0.00  0.00    -0.454 OA
ENDBRANCH   3   2
ENDBRANCH   4   3
BRANCH  15  16
ATOM     16  C   UNL     1      48.459  17.235  18.403  0.00  0.00    +0.038 C 
ATOM     17  C   UNL     1      48.780  16.929  17.171  0.00  0.00    -0.023 C 
ENDBRANCH  15  16
BRANCH  25  26
ATOM     26  O   UNL     1      49.125  17.598  20.703  0.00  0.00    -0.527 OA
ATOM     27  H   UNL     1      49.096  17.054  19.904  0.00  0.00    +0.371 HD
ENDBRANCH  25  26
BRANCH   5   6
ATOM      6  O   UNL     1      49.508  19.392  18.958  0.00  0.00    -0.315 OA
BRANCH   6   7
ATOM      7  C   UNL     1      50.388  20.181  18.309  0.00  0.00    +0.502 C 
ATOM     13  O   UNL     1      50.265  21.389  18.350  0.00  0.00    -0.505 OA
BRANCH   7   8
ATOM      8  C   UNL     1      51.495  19.581  17.551  0.00  0.00    -0.179 C 
ATOM     12  C   UNL     1      52.268  18.660  18.119  0.00  0.00    +0.195 C 
BRANCH   8   9
ATOM      9  C   UNL     1      51.754  20.009  16.129  0.00  0.00    +0.253 C 
BRANCH   9  10
ATOM     10  O   UNL     1      52.025  21.412  16.097  0.00  0.00    -0.573 OA
ATOM     11  H   UNL     1      52.871  21.658  16.494  0.00  0.00    +0.389 HD
ENDBRANCH   9  10
ENDBRANCH   8   9
ENDBRANCH   7   8
ENDBRANCH   6   7
ENDBRANCH   5   6
TORSDOF 9
ENDMDL
MODEL 9
REMARK VINA RESULT:      -4.7      2.786      6.062
REMARK  Name = ZINC95486037
REMARK  10 active torsions:
REMARK  status: ('A' for Active; 'I' for Inactive)
REMARK    1  A    between atoms: C1_1  and  C2_2
REMARK    2  A    between atoms: C2_2  and  C3_4
REMARK    3  A    between atoms: C3_4  and  C5_6
REMARK    4  A    between atoms: C6_8  and  O5_25
REMARK    5  A    between atoms: C8_11  and  C15_23
REMARK    6  A    between atoms: C14_20  and  O4_22
REMARK    7  A    between atoms: O5_25  and  C17_26
REMARK    8  A    between atoms: C17_26  and  C18_28
REMARK    9  A    between atoms: C18_28  and  C20_30
REMARK   10  A    between atoms: C20_30  and  O7_31
REMARK                            x       y       z     vdW  Elec       q    Type
REMARK                         _______ _______ _______ _____ _____    ______ ____
ROOT
ATOM      4  C   UNL     1      46.090  18.690  20.264  0.00  0.00    +0.024 C 
ATOM      5  C   UNL     1      46.848  19.224  19.048  0.00  0.00    +0.199 C 
ATOM     14  C   UNL     1      46.421  18.461  17.790  0.00  0.00    +0.040 C 
ATOM     15  C   UNL     1      46.725  16.977  17.983  0.00  0.00    -0.060 C 
ATOM     18  C   UNL     1      46.349  16.174  16.739  0.00  0.00    +0.264 C 
ATOM     19  O   UNL     1      46.696  14.798  16.942  0.00  0.00    -0.352 OA
ATOM     20  C   UNL     1      46.161  14.201  18.037  0.00  0.00    +0.524 C 
ATOM     21  C   UNL     1      46.202  14.973  19.306  0.00  0.00    -0.193 C 
ATOM     22  C   UNL     1      46.474  14.401  20.476  0.00  0.00    +0.157 C 
ATOM     23  O   UNL     1      45.673  13.090  17.983  0.00  0.00    -0.448 OA
ATOM     24  C   UNL     1      45.917  16.456  19.181  0.00  0.00    +0.061 C 
ATOM     25  C   UNL     1      46.369  17.194  20.437  0.00  0.00    +0.197 C 
ENDROOT
BRANCH   4   3
ATOM      3  C   UNL     1      44.612  18.904  20.066  0.00  0.00    -0.202 C 
ATOM     28  C   UNL     1      43.741  17.993  20.503  0.00  0.00    +0.154 C 
BRANCH   3   2
ATOM      1  C   UNL     1      44.470  21.470  19.950  0.00  0.00    +0.071 C 
ATOM      2  C   UNL     1      44.131  20.111  19.393  0.00  0.00    +0.390 C 
ATOM     29  O   UNL     1      43.460  20.018  18.387  0.00  0.00    -0.454 OA
ENDBRANCH   3   2
ENDBRANCH   4   3
BRANCH  15  16
ATOM     16  C   UNL     1      48.196  16.800  18.258  0.00  0.00    +0.038 C 
ATOM     17  C   UNL     1      49.054  16.819  17.269  0.00  0.00    -0.023 C 
ENDBRANCH  15  16
BRANCH  25  26
ATOM     26  O   UNL     1      47.769  16.988  20.635  0.00  0.00    -0.527 OA
ATOM     27  H   UNL     1      48.259  16.801  19.822  0.00  0.00    +0.371 HD
ENDBRANCH  25  26
BRANCH   5   6
ATOM      6  O   UNL     1      48.251  19.052  19.251  0.00  0.00    -0.315 OA
BRANCH   6   7
ATOM      7  C   UNL     1      48.996  20.171  19.362  0.00  0.00    +0.502 C 
ATOM     13  O   UNL     1      48.515  21.175  19.848  0.00  0.00    -0.505 OA
BRANCH   7   8
ATOM      8  C   UNL     1      50.389  20.176  18.894  0.00  0.00    -0.179 C 
ATOM     12  C   UNL     1      50.814  21.139  18.080  0.00  0.00    +0.195 C 
BRANCH   8   9
ATOM      9  C   UNL     1      51.337  19.090  19.336  0.00  0.00    +0.253 C 
BRANCH   9  10
ATOM     10  O   UNL     1      50.687  18.254  20.295  0.00  0.00    -0.573 OA
ATOM     11  H   UNL     1      51.063  18.311  21.184  0.00  0.00    +0.389 HD
ENDBRANCH   9  10
ENDBRANCH   8   9
ENDBRANCH   7   8
ENDBRANCH   6   7
ENDBRANCH   5   6
TORSDOF 9
ENDMDL
