MODEL 1
REMARK VINA RESULT:      -5.4      0.000      0.000
REMARK  Name = ZINC95486017
REMARK  13 active torsions:
REMARK  status: ('A' for Active; 'I' for Inactive)
REMARK    1  A    between atoms: C1_1  and  C2_2
REMARK    2  A    between atoms: C6_6  and  O1_8
REMARK    3  A    between atoms: O1_8  and  C8_9
REMARK    4  A    between atoms: C9_10  and  O4_33
REMARK    5  A    between atoms: C11_12  and  C26_32
REMARK    6  A    between atoms: C12_13  and  C13_14
REMARK    7  A    between atoms: C14_15  and  O3_30
REMARK    8  A    between atoms: C16_17  and  O2_28
REMARK    9  A    between atoms: C20_21  and  C23_27
REMARK   10  A    between atoms: C21_24  and  C22_26
REMARK   11  A    between atoms: O2_28  and  C24_29
REMARK   12  A    between atoms: O3_30  and  C25_31
REMARK   13  A    between atoms: O4_33  and  C27_34
REMARK                            x       y       z     vdW  Elec       q    Type
REMARK                         _______ _______ _______ _____ _____    ______ ____
ROOT
ATOM     16  C   UNL     1      48.705  17.077  19.142  0.00  0.00    -0.077 A 
ATOM     17  C   UNL     1      48.525  15.936  19.930  0.00  0.00    +0.210 A 
ATOM     20  C   UNL     1      49.535  14.994  20.012  0.00  0.00    -0.148 A 
ATOM     21  C   UNL     1      50.717  15.186  19.315  0.00  0.00    +0.201 A 
ATOM     24  C   UNL     1      50.901  16.322  18.528  0.00  0.00    -0.205 A 
ATOM     25  C   UNL     1      52.206  16.484  17.795  0.00  0.00    +0.244 C 
ATOM     26  C   UNL     1      53.278  16.968  18.773  0.00  0.00    +0.094 C 
ATOM     27  N   UNL     1      52.061  17.446  16.693  0.00  0.00    -0.504 N 
ATOM     28  H   UNL     1      52.964  17.617  16.276  0.00  0.00    +0.430 HD
ATOM     29  H   UNL     1      51.429  17.082  15.998  0.00  0.00    +0.429 HD
ATOM     30  C   UNL     1      51.525  18.705  17.236  0.00  0.00    +0.168 C 
ATOM     31  C   UNL     1      51.653  19.815  16.192  0.00  0.00    +0.093 C 
ATOM     32  C   UNL     1      50.051  18.495  17.585  0.00  0.00    +0.139 C 
ATOM     33  C   UNL     1      49.898  17.260  18.435  0.00  0.00    -0.001 A 
ENDROOT
BRANCH  16  15
ATOM      1  C   UNL     1      49.873  20.805  22.504  0.00  0.00    +0.092 C 
ATOM      2  C   UNL     1      48.739  20.586  21.536  0.00  0.00    -0.013 A 
ATOM      3  C   UNL     1      48.723  19.463  20.766  0.00  0.00    -0.054 A 
ATOM      4  C   UNL     1      47.671  19.249  19.861  0.00  0.00    +0.053 A 
ATOM      5  C   UNL     1      46.634  20.206  19.758  0.00  0.00    -0.109 A 
ATOM      6  C   UNL     1      45.577  19.991  18.851  0.00  0.00    +0.190 A 
ATOM      9  C   UNL     1      45.562  18.854  18.073  0.00  0.00    -0.114 A 
ATOM     10  C   UNL     1      46.577  17.910  18.169  0.00  0.00    +0.005 A 
ATOM     11  C   UNL     1      46.531  16.676  17.305  0.00  0.00    +0.093 C 
ATOM     12  C   UNL     1      46.676  21.359  20.567  0.00  0.00    +0.181 A 
ATOM     15  C   UNL     1      47.630  18.090  19.050  0.00  0.00    -0.107 A 
ATOM     34  C   UNL     1      47.721  21.531  21.447  0.00  0.00    -0.113 A 
BRANCH   6   7
ATOM      7  O   UNL     1      44.577  20.903  18.744  0.00  0.00    -0.288 OA
ATOM      8  C   UNL     1      43.243  20.428  18.938  0.00  0.00    +0.245 C 
ENDBRANCH   6   7
BRANCH  12  13
ATOM     13  O   UNL     1      45.691  22.290  20.483  0.00  0.00    -0.289 OA
ATOM     14  C   UNL     1      45.042  22.660  21.701  0.00  0.00    +0.244 C 
ENDBRANCH  12  13
ENDBRANCH  16  15
BRANCH  17  18
ATOM     18  O   UNL     1      47.365  15.754  20.614  0.00  0.00    -0.291 OA
ATOM     19  C   UNL     1      47.438  15.807  22.040  0.00  0.00    +0.252 C 
ENDBRANCH  17  18
BRANCH  21  22
ATOM     22  O   UNL     1      51.707  14.259  19.398  0.00  0.00    -0.313 OA
ATOM     23  C   UNL     1      51.990  13.727  20.695  0.00  0.00    +0.260 C 
ENDBRANCH  21  22
TORSDOF 5
ENDMDL
MODEL 2
REMARK VINA RESULT:      -5.2      1.725      3.296
REMARK  Name = ZINC95486017
REMARK  13 active torsions:
REMARK  status: ('A' for Active; 'I' for Inactive)
REMARK    1  A    between atoms: C1_1  and  C2_2
REMARK    2  A    between atoms: C6_6  and  O1_8
REMARK    3  A    between atoms: O1_8  and  C8_9
REMARK    4  A    between atoms: C9_10  and  O4_33
REMARK    5  A    between atoms: C11_12  and  C26_32
REMARK    6  A    between atoms: C12_13  and  C13_14
REMARK    7  A    between atoms: C14_15  and  O3_30
REMARK    8  A    between atoms: C16_17  and  O2_28
REMARK    9  A    between atoms: C20_21  and  C23_27
REMARK   10  A    between atoms: C21_24  and  C22_26
REMARK   11  A    between atoms: O2_28  and  C24_29
REMARK   12  A    between atoms: O3_30  and  C25_31
REMARK   13  A    between atoms: O4_33  and  C27_34
REMARK                            x       y       z     vdW  Elec       q    Type
REMARK                         _______ _______ _______ _____ _____    ______ ____
ROOT
ATOM     16  C   UNL     1      49.461  17.762  18.896  0.00  0.00    -0.077 A 
ATOM     17  C   UNL     1      50.545  18.150  18.103  0.00  0.00    +0.210 A 
ATOM     20  C   UNL     1      51.705  17.396  18.113  0.00  0.00    -0.148 A 
ATOM     21  C   UNL     1      51.786  16.262  18.906  0.00  0.00    +0.201 A 
ATOM     24  C   UNL     1      50.707  15.872  19.697  0.00  0.00    -0.205 A 
ATOM     25  C   UNL     1      50.845  14.629  20.537  0.00  0.00    +0.244 C 
ATOM     26  C   UNL     1      50.660  13.397  19.649  0.00  0.00    +0.094 C 
ATOM     27  N   UNL     1      49.847  14.623  21.616  0.00  0.00    -0.504 N 
ATOM     28  H   UNL     1      49.888  13.743  22.106  0.00  0.00    +0.430 HD
ATOM     29  H   UNL     1      50.029  15.378  22.258  0.00  0.00    +0.429 HD
ATOM     30  C   UNL     1      48.512  14.793  21.021  0.00  0.00    +0.168 C 
ATOM     31  C   UNL     1      47.437  14.483  22.066  0.00  0.00    +0.093 C 
ATOM     32  C   UNL     1      48.369  16.241  20.551  0.00  0.00    +0.139 C 
ATOM     33  C   UNL     1      49.552  16.621  19.700  0.00  0.00    -0.001 A 
ENDROOT
BRANCH  16  15
ATOM      1  C   UNL     1      50.010  21.401  22.505  0.00  0.00    +0.092 C 
ATOM      2  C   UNL     1      48.911  21.044  21.537  0.00  0.00    -0.013 A 
ATOM      3  C   UNL     1      49.082  19.993  20.688  0.00  0.00    -0.054 A 
ATOM      4  C   UNL     1      48.065  19.651  19.783  0.00  0.00    +0.053 A 
ATOM      5  C   UNL     1      46.868  20.406  19.762  0.00  0.00    -0.109 A 
ATOM      6  C   UNL     1      45.846  20.062  18.854  0.00  0.00    +0.190 A 
ATOM      9  C   UNL     1      46.020  18.998  17.996  0.00  0.00    -0.114 A 
ATOM     10  C   UNL     1      47.193  18.253  18.012  0.00  0.00    +0.005 A 
ATOM     11  C   UNL     1      47.351  17.095  17.062  0.00  0.00    +0.093 C 
ATOM     12  C   UNL     1      46.718  21.488  20.651  0.00  0.00    +0.181 A 
ATOM     15  C   UNL     1      48.216  18.563  18.891  0.00  0.00    -0.107 A 
ATOM     34  C   UNL     1      47.736  21.789  21.529  0.00  0.00    -0.113 A 
BRANCH   6   7
ATOM      7  O   UNL     1      44.694  20.779  18.825  0.00  0.00    -0.288 OA
ATOM      8  C   UNL     1      43.471  20.040  18.805  0.00  0.00    +0.245 C 
ENDBRANCH   6   7
BRANCH  12  13
ATOM     13  O   UNL     1      45.578  22.225  20.647  0.00  0.00    -0.289 OA
ATOM     14  C   UNL     1      44.964  22.479  21.912  0.00  0.00    +0.244 C 
ENDBRANCH  12  13
ENDBRANCH  16  15
BRANCH  17  18
ATOM     18  O   UNL     1      50.460  19.261  17.325  0.00  0.00    -0.291 OA
ATOM     19  C   UNL     1      51.329  20.348  17.649  0.00  0.00    +0.252 C 
ENDBRANCH  17  18
BRANCH  21  22
ATOM     22  O   UNL     1      52.926  15.524  18.912  0.00  0.00    -0.313 OA
ATOM     23  C   UNL     1      54.113  16.169  19.380  0.00  0.00    +0.260 C 
ENDBRANCH  21  22
TORSDOF 5
ENDMDL
MODEL 3
REMARK VINA RESULT:      -5.0      3.009      7.995
REMARK  Name = ZINC95486017
REMARK  13 active torsions:
REMARK  status: ('A' for Active; 'I' for Inactive)
REMARK    1  A    between atoms: C1_1  and  C2_2
REMARK    2  A    between atoms: C6_6  and  O1_8
REMARK    3  A    between atoms: O1_8  and  C8_9
REMARK    4  A    between atoms: C9_10  and  O4_33
REMARK    5  A    between atoms: C11_12  and  C26_32
REMARK    6  A    between atoms: C12_13  and  C13_14
REMARK    7  A    between atoms: C14_15  and  O3_30
REMARK    8  A    between atoms: C16_17  and  O2_28
REMARK    9  A    between atoms: C20_21  and  C23_27
REMARK   10  A    between atoms: C21_24  and  C22_26
REMARK   11  A    between atoms: O2_28  and  C24_29
REMARK   12  A    between atoms: O3_30  and  C25_31
REMARK   13  A    between atoms: O4_33  and  C27_34
REMARK                            x       y       z     vdW  Elec       q    Type
REMARK                         _______ _______ _______ _____ _____    ______ ____
ROOT
ATOM     16  C   UNL     1      44.838  20.768  20.151  0.00  0.00    -0.077 A 
ATOM     17  C   UNL     1      44.333  21.871  19.455  0.00  0.00    +0.210 A 
ATOM     20  C   UNL     1      42.983  21.936  19.163  0.00  0.00    -0.148 A 
ATOM     21  C   UNL     1      42.139  20.912  19.562  0.00  0.00    +0.201 A 
ATOM     24  C   UNL     1      42.638  19.812  20.256  0.00  0.00    -0.205 A 
ATOM     25  C   UNL     1      41.678  18.728  20.671  0.00  0.00    +0.244 C 
ATOM     26  C   UNL     1      40.908  19.184  21.912  0.00  0.00    +0.094 C 
ATOM     27  N   UNL     1      42.400  17.481  20.958  0.00  0.00    -0.504 N 
ATOM     28  H   UNL     1      41.757  16.798  21.327  0.00  0.00    +0.430 HD
ATOM     29  H   UNL     1      42.826  17.127  20.116  0.00  0.00    +0.429 HD
ATOM     30  C   UNL     1      43.444  17.763  21.957  0.00  0.00    +0.168 C 
ATOM     31  C   UNL     1      44.003  16.449  22.505  0.00  0.00    +0.093 C 
ATOM     32  C   UNL     1      44.564  18.556  21.280  0.00  0.00    +0.139 C 
ATOM     33  C   UNL     1      43.982  19.734  20.543  0.00  0.00    -0.001 A 
ENDROOT
BRANCH  16  15
ATOM      1  C   UNL     1      46.926  17.448  16.805  0.00  0.00    +0.092 C 
ATOM      2  C   UNL     1      47.475  18.276  17.940  0.00  0.00    -0.013 A 
ATOM      3  C   UNL     1      46.634  19.077  18.652  0.00  0.00    -0.054 A 
ATOM      4  C   UNL     1      47.134  19.851  19.711  0.00  0.00    +0.053 A 
ATOM      5  C   UNL     1      48.512  19.791  20.028  0.00  0.00    -0.109 A 
ATOM      6  C   UNL     1      49.013  20.568  21.092  0.00  0.00    +0.190 A 
ATOM      9  C   UNL     1      48.162  21.377  21.812  0.00  0.00    -0.114 A 
ATOM     10  C   UNL     1      46.808  21.440  21.506  0.00  0.00    +0.005 A 
ATOM     11  C   UNL     1      45.903  22.334  22.313  0.00  0.00    +0.093 C 
ATOM     12  C   UNL     1      49.358  18.954  19.275  0.00  0.00    +0.181 A 
ATOM     15  C   UNL     1      46.282  20.691  20.467  0.00  0.00    -0.107 A 
ATOM     34  C   UNL     1      48.830  18.205  18.247  0.00  0.00    -0.113 A 
BRANCH   6   7
ATOM      7  O   UNL     1      50.333  20.519  21.405  0.00  0.00    -0.288 OA
ATOM      8  C   UNL     1      50.819  21.500  22.324  0.00  0.00    +0.245 C 
ENDBRANCH   6   7
BRANCH  12  13
ATOM     13  O   UNL     1      50.683  18.883  19.563  0.00  0.00    -0.289 OA
ATOM     14  C   UNL     1      51.572  18.628  18.473  0.00  0.00    +0.244 C 
ENDBRANCH  12  13
ENDBRANCH  16  15
BRANCH  17  18
ATOM     18  O   UNL     1      45.165  22.874  19.068  0.00  0.00    -0.291 OA
ATOM     19  C   UNL     1      44.666  24.208  19.179  0.00  0.00    +0.252 C 
ENDBRANCH  17  18
BRANCH  21  22
ATOM     22  O   UNL     1      40.813  20.980  19.274  0.00  0.00    -0.313 OA
ATOM     23  C   UNL     1      40.423  21.866  18.221  0.00  0.00    +0.260 C 
ENDBRANCH  21  22
TORSDOF 5
ENDMDL
MODEL 4
REMARK VINA RESULT:      -5.0      2.727      4.892
REMARK  Name = ZINC95486017
REMARK  13 active torsions:
REMARK  status: ('A' for Active; 'I' for Inactive)
REMARK    1  A    between atoms: C1_1  and  C2_2
REMARK    2  A    between atoms: C6_6  and  O1_8
REMARK    3  A    between atoms: O1_8  and  C8_9
REMARK    4  A    between atoms: C9_10  and  O4_33
REMARK    5  A    between atoms: C11_12  and  C26_32
REMARK    6  A    between atoms: C12_13  and  C13_14
REMARK    7  A    between atoms: C14_15  and  O3_30
REMARK    8  A    between atoms: C16_17  and  O2_28
REMARK    9  A    between atoms: C20_21  and  C23_27
REMARK   10  A    between atoms: C21_24  and  C22_26
REMARK   11  A    between atoms: O2_28  and  C24_29
REMARK   12  A    between atoms: O3_30  and  C25_31
REMARK   13  A    between atoms: O4_33  and  C27_34
REMARK                            x       y       z     vdW  Elec       q    Type
REMARK                         _______ _______ _______ _____ _____    ______ ____
ROOT
ATOM     16  C   UNL     1      49.144  16.177  18.310  0.00  0.00    -0.077 A 
ATOM     17  C   UNL     1      47.972  16.186  17.548  0.00  0.00    +0.210 A 
ATOM     20  C   UNL     1      47.692  15.120  16.711  0.00  0.00    -0.148 A 
ATOM     21  C   UNL     1      48.571  14.051  16.635  0.00  0.00    +0.201 A 
ATOM     24  C   UNL     1      49.739  14.038  17.394  0.00  0.00    -0.205 A 
ATOM     25  C   UNL     1      50.658  12.851  17.278  0.00  0.00    +0.244 C 
ATOM     26  C   UNL     1      50.091  11.692  18.100  0.00  0.00    +0.094 C 
ATOM     27  N   UNL     1      52.005  13.193  17.755  0.00  0.00    -0.504 N 
ATOM     28  H   UNL     1      52.580  12.364  17.763  0.00  0.00    +0.430 HD
ATOM     29  H   UNL     1      52.419  13.887  17.153  0.00  0.00    +0.429 HD
ATOM     30  C   UNL     1      51.897  13.728  19.122  0.00  0.00    +0.168 C 
ATOM     31  C   UNL     1      53.285  13.801  19.761  0.00  0.00    +0.093 C 
ATOM     32  C   UNL     1      51.290  15.130  19.049  0.00  0.00    +0.139 C 
ATOM     33  C   UNL     1      50.030  15.099  18.222  0.00  0.00    -0.001 A 
ENDROOT
BRANCH  16  15
ATOM      1  C   UNL     1      51.870  19.570  15.548  0.00  0.00    +0.092 C 
ATOM      2  C   UNL     1      51.377  19.535  16.972  0.00  0.00    -0.013 A 
ATOM      3  C   UNL     1      50.660  18.460  17.407  0.00  0.00    -0.054 A 
ATOM      4  C   UNL     1      50.197  18.417  18.730  0.00  0.00    +0.053 A 
ATOM      5  C   UNL     1      50.480  19.494  19.604  0.00  0.00    -0.109 A 
ATOM      6  C   UNL     1      50.015  19.451  20.934  0.00  0.00    +0.190 A 
ATOM      9  C   UNL     1      49.291  18.364  21.372  0.00  0.00    -0.114 A 
ATOM     10  C   UNL     1      49.010  17.303  20.520  0.00  0.00    +0.005 A 
ATOM     11  C   UNL     1      48.217  16.128  21.030  0.00  0.00    +0.093 C 
ATOM     12  C   UNL     1      51.223  20.593  19.128  0.00  0.00    +0.181 A 
ATOM     15  C   UNL     1      49.451  17.313  19.208  0.00  0.00    -0.107 A 
ATOM     34  C   UNL     1      51.666  20.596  17.824  0.00  0.00    -0.113 A 
BRANCH   6   7
ATOM      7  O   UNL     1      50.280  20.478  21.780  0.00  0.00    -0.288 OA
ATOM      8  C   UNL     1      49.175  21.023  22.505  0.00  0.00    +0.245 C 
ENDBRANCH   6   7
BRANCH  12  13
ATOM     13  O   UNL     1      51.504  21.637  19.950  0.00  0.00    -0.289 OA
ATOM     14  C   UNL     1      52.882  21.965  20.132  0.00  0.00    +0.244 C 
ENDBRANCH  12  13
ENDBRANCH  16  15
BRANCH  17  18
ATOM     18  O   UNL     1      47.113  17.235  17.628  0.00  0.00    -0.291 OA
ATOM     19  C   UNL     1      45.865  17.002  18.284  0.00  0.00    +0.252 C 
ENDBRANCH  17  18
BRANCH  21  22
ATOM     22  O   UNL     1      48.292  13.007  15.813  0.00  0.00    -0.313 OA
ATOM     23  C   UNL     1      47.075  12.296  16.057  0.00  0.00    +0.260 C 
ENDBRANCH  21  22
TORSDOF 5
ENDMDL
MODEL 5
REMARK VINA RESULT:      -5.0      2.697      6.402
REMARK  Name = ZINC95486017
REMARK  13 active torsions:
REMARK  status: ('A' for Active; 'I' for Inactive)
REMARK    1  A    between atoms: C1_1  and  C2_2
REMARK    2  A    between atoms: C6_6  and  O1_8
REMARK    3  A    between atoms: O1_8  and  C8_9
REMARK    4  A    between atoms: C9_10  and  O4_33
REMARK    5  A    between atoms: C11_12  and  C26_32
REMARK    6  A    between atoms: C12_13  and  C13_14
REMARK    7  A    between atoms: C14_15  and  O3_30
REMARK    8  A    between atoms: C16_17  and  O2_28
REMARK    9  A    between atoms: C20_21  and  C23_27
REMARK   10  A    between atoms: C21_24  and  C22_26
REMARK   11  A    between atoms: O2_28  and  C24_29
REMARK   12  A    between atoms: O3_30  and  C25_31
REMARK   13  A    between atoms: O4_33  and  C27_34
REMARK                            x       y       z     vdW  Elec       q    Type
REMARK                         _______ _______ _______ _____ _____    ______ ____
ROOT
ATOM     16  C   UNL     1      48.551  16.846  18.951  0.00  0.00    -0.077 A 
ATOM     17  C   UNL     1      47.810  17.025  20.123  0.00  0.00    +0.210 A 
ATOM     20  C   UNL     1      48.033  18.142  20.909  0.00  0.00    -0.148 A 
ATOM     21  C   UNL     1      48.985  19.075  20.530  0.00  0.00    +0.201 A 
ATOM     24  C   UNL     1      49.725  18.899  19.362  0.00  0.00    -0.205 A 
ATOM     25  C   UNL     1      50.744  19.945  18.994  0.00  0.00    +0.244 C 
ATOM     26  C   UNL     1      50.031  21.151  18.381  0.00  0.00    +0.094 C 
ATOM     27  N   UNL     1      51.719  19.400  18.039  0.00  0.00    -0.504 N 
ATOM     28  H   UNL     1      52.334  20.137  17.728  0.00  0.00    +0.430 HD
ATOM     29  H   UNL     1      52.259  18.669  18.475  0.00  0.00    +0.429 HD
ATOM     30  C   UNL     1      50.989  18.850  16.885  0.00  0.00    +0.168 C 
ATOM     31  C   UNL     1      51.967  18.561  15.744  0.00  0.00    +0.093 C 
ATOM     32  C   UNL     1      50.304  17.553  17.316  0.00  0.00    +0.139 C 
ATOM     33  C   UNL     1      49.516  17.787  18.579  0.00  0.00    -0.001 A 
ENDROOT
BRANCH  16  15
ATOM      1  C   UNL     1      51.809  13.197  20.578  0.00  0.00    +0.092 C 
ATOM      2  C   UNL     1      50.761  13.258  19.497  0.00  0.00    -0.013 A 
ATOM      3  C   UNL     1      50.048  14.406  19.317  0.00  0.00    -0.054 A 
ATOM      4  C   UNL     1      49.071  14.473  18.313  0.00  0.00    +0.053 A 
ATOM      5  C   UNL     1      48.833  13.344  17.494  0.00  0.00    -0.109 A 
ATOM      6  C   UNL     1      47.851  13.412  16.485  0.00  0.00    +0.190 A 
ATOM      9  C   UNL     1      47.133  14.573  16.303  0.00  0.00    -0.114 A 
ATOM     10  C   UNL     1      47.362  15.686  17.104  0.00  0.00    +0.005 A 
ATOM     11  C   UNL     1      46.560  16.942  16.880  0.00  0.00    +0.093 C 
ATOM     12  C   UNL     1      49.584  12.170  17.701  0.00  0.00    +0.181 A 
ATOM     15  C   UNL     1      48.318  15.654  18.104  0.00  0.00    -0.107 A 
ATOM     34  C   UNL     1      50.539  12.144  18.693  0.00  0.00    -0.113 A 
BRANCH   6   7
ATOM      7  O   UNL     1      47.615  12.335  15.693  0.00  0.00    -0.288 OA
ATOM      8  C   UNL     1      47.739  12.526  14.282  0.00  0.00    +0.245 C 
ENDBRANCH   6   7
BRANCH  12  13
ATOM     13  O   UNL     1      49.370  11.075  16.927  0.00  0.00    -0.289 OA
ATOM     14  C   UNL     1      50.523  10.434  16.378  0.00  0.00    +0.244 C 
ENDBRANCH  12  13
ENDBRANCH  16  15
BRANCH  17  18
ATOM     18  O   UNL     1      46.875  16.109  20.488  0.00  0.00    -0.291 OA
ATOM     19  C   UNL     1      45.507  16.512  20.410  0.00  0.00    +0.252 C 
ENDBRANCH  17  18
BRANCH  21  22
ATOM     22  O   UNL     1      49.201  20.170  21.304  0.00  0.00    -0.313 OA
ATOM     23  C   UNL     1      48.070  21.000  21.583  0.00  0.00    +0.260 C 
ENDBRANCH  21  22
TORSDOF 5
ENDMDL
MODEL 6
REMARK VINA RESULT:      -5.0      3.035      6.601
REMARK  Name = ZINC95486017
REMARK  13 active torsions:
REMARK  status: ('A' for Active; 'I' for Inactive)
REMARK    1  A    between atoms: C1_1  and  C2_2
REMARK    2  A    between atoms: C6_6  and  O1_8
REMARK    3  A    between atoms: O1_8  and  C8_9
REMARK    4  A    between atoms: C9_10  and  O4_33
REMARK    5  A    between atoms: C11_12  and  C26_32
REMARK    6  A    between atoms: C12_13  and  C13_14
REMARK    7  A    between atoms: C14_15  and  O3_30
REMARK    8  A    between atoms: C16_17  and  O2_28
REMARK    9  A    between atoms: C20_21  and  C23_27
REMARK   10  A    between atoms: C21_24  and  C22_26
REMARK   11  A    between atoms: O2_28  and  C24_29
REMARK   12  A    between atoms: O3_30  and  C25_31
REMARK   13  A    between atoms: O4_33  and  C27_34
REMARK                            x       y       z     vdW  Elec       q    Type
REMARK                         _______ _______ _______ _____ _____    ______ ____
ROOT
ATOM     16  C   UNL     1      50.925  16.614  19.445  0.00  0.00    -0.077 A 
ATOM     17  C   UNL     1      50.620  16.547  20.808  0.00  0.00    +0.210 A 
ATOM     20  C   UNL     1      50.700  17.690  21.584  0.00  0.00    -0.148 A 
ATOM     21  C   UNL     1      51.080  18.892  21.008  0.00  0.00    +0.201 A 
ATOM     24  C   UNL     1      51.384  18.962  19.650  0.00  0.00    -0.205 A 
ATOM     25  C   UNL     1      51.787  20.293  19.072  0.00  0.00    +0.244 C 
ATOM     26  C   UNL     1      50.537  21.148  18.854  0.00  0.00    +0.094 C 
ATOM     27  N   UNL     1      52.497  20.109  17.799  0.00  0.00    -0.504 N 
ATOM     28  H   UNL     1      52.673  21.009  17.378  0.00  0.00    +0.430 HD
ATOM     29  H   UNL     1      53.371  19.632  17.956  0.00  0.00    +0.429 HD
ATOM     30  C   UNL     1      51.652  19.304  16.902  0.00  0.00    +0.168 C 
ATOM     31  C   UNL     1      52.212  19.354  15.479  0.00  0.00    +0.093 C 
ATOM     32  C   UNL     1      51.649  17.859  17.403  0.00  0.00    +0.139 C 
ATOM     33  C   UNL     1      51.315  17.828  18.872  0.00  0.00    -0.001 A 
ENDROOT
BRANCH  16  15
ATOM      1  C   UNL     1      46.234  16.590  17.309  0.00  0.00    +0.092 C 
ATOM      2  C   UNL     1      47.421  15.665  17.237  0.00  0.00    -0.013 A 
ATOM      3  C   UNL     1      48.548  15.964  17.943  0.00  0.00    -0.054 A 
ATOM      4  C   UNL     1      49.659  15.109  17.884  0.00  0.00    +0.053 A 
ATOM      5  C   UNL     1      49.598  13.940  17.089  0.00  0.00    -0.109 A 
ATOM      6  C   UNL     1      50.714  13.081  17.030  0.00  0.00    +0.190 A 
ATOM      9  C   UNL     1      51.852  13.385  17.745  0.00  0.00    -0.114 A 
ATOM     10  C   UNL     1      51.918  14.530  18.528  0.00  0.00    +0.005 A 
ATOM     11  C   UNL     1      53.177  14.834  19.299  0.00  0.00    +0.093 C 
ATOM     12  C   UNL     1      48.421  13.655  16.369  0.00  0.00    +0.181 A 
ATOM     15  C   UNL     1      50.841  15.396  18.608  0.00  0.00    -0.107 A 
ATOM     34  C   UNL     1      47.349  14.515  16.457  0.00  0.00    -0.113 A 
BRANCH   6   7
ATOM      7  O   UNL     1      50.667  11.957  16.270  0.00  0.00    -0.288 OA
ATOM      8  C   UNL     1      51.801  11.685  15.444  0.00  0.00    +0.245 C 
ENDBRANCH   6   7
BRANCH  12  13
ATOM     13  O   UNL     1      48.343  12.539  15.599  0.00  0.00    -0.289 OA
ATOM     14  C   UNL     1      48.022  12.724  14.219  0.00  0.00    +0.244 C 
ENDBRANCH  12  13
ENDBRANCH  16  15
BRANCH  17  18
ATOM     18  O   UNL     1      50.246  15.367  21.368  0.00  0.00    -0.291 OA
ATOM     19  C   UNL     1      48.880  15.244  21.770  0.00  0.00    +0.252 C 
ENDBRANCH  17  18
BRANCH  21  22
ATOM     22  O   UNL     1      51.157  20.011  21.773  0.00  0.00    -0.313 OA
ATOM     23  C   UNL     1      49.984  20.382  22.501  0.00  0.00    +0.260 C 
ENDBRANCH  21  22
TORSDOF 5
ENDMDL
MODEL 7
REMARK VINA RESULT:      -4.8      3.605      4.999
REMARK  Name = ZINC95486017
REMARK  13 active torsions:
REMARK  status: ('A' for Active; 'I' for Inactive)
REMARK    1  A    between atoms: C1_1  and  C2_2
REMARK    2  A    between atoms: C6_6  and  O1_8
REMARK    3  A    between atoms: O1_8  and  C8_9
REMARK    4  A    between atoms: C9_10  and  O4_33
REMARK    5  A    between atoms: C11_12  and  C26_32
REMARK    6  A    between atoms: C12_13  and  C13_14
REMARK    7  A    between atoms: C14_15  and  O3_30
REMARK    8  A    between atoms: C16_17  and  O2_28
REMARK    9  A    between atoms: C20_21  and  C23_27
REMARK   10  A    between atoms: C21_24  and  C22_26
REMARK   11  A    between atoms: O2_28  and  C24_29
REMARK   12  A    between atoms: O3_30  and  C25_31
REMARK   13  A    between atoms: O4_33  and  C27_34
REMARK                            x       y       z     vdW  Elec       q    Type
REMARK                         _______ _______ _______ _____ _____    ______ ____
ROOT
ATOM     16  C   UNL     1      49.214  13.236  17.900  0.00  0.00    -0.077 A 
ATOM     17  C   UNL     1      50.049  12.800  18.932  0.00  0.00    +0.210 A 
ATOM     20  C   UNL     1      50.981  11.807  18.687  0.00  0.00    -0.148 A 
ATOM     21  C   UNL     1      51.081  11.251  17.421  0.00  0.00    +0.201 A 
ATOM     24  C   UNL     1      50.250  11.683  16.389  0.00  0.00    -0.205 A 
ATOM     25  C   UNL     1      50.403  11.050  15.031  0.00  0.00    +0.244 C 
ATOM     26  C   UNL     1      51.620  11.654  14.327  0.00  0.00    +0.094 C 
ATOM     27  N   UNL     1      49.196  11.269  14.222  0.00  0.00    -0.504 N 
ATOM     28  H   UNL     1      49.352  10.925  13.286  0.00  0.00    +0.430 HD
ATOM     29  H   UNL     1      48.412  10.787  14.634  0.00  0.00    +0.429 HD
ATOM     30  C   UNL     1      48.917  12.713  14.175  0.00  0.00    +0.168 C 
ATOM     31  C   UNL     1      47.867  13.003  13.101  0.00  0.00    +0.093 C 
ATOM     32  C   UNL     1      48.389  13.151  15.542  0.00  0.00    +0.139 C 
ATOM     33  C   UNL     1      49.315  12.665  16.627  0.00  0.00    -0.001 A 
ENDROOT
BRANCH  16  15
ATOM      1  C   UNL     1      51.615  17.742  17.194  0.00  0.00    +0.092 C 
ATOM      2  C   UNL     1      50.210  17.353  17.576  0.00  0.00    -0.013 A 
ATOM      3  C   UNL     1      49.884  16.034  17.681  0.00  0.00    -0.054 A 
ATOM      4  C   UNL     1      48.579  15.661  18.037  0.00  0.00    +0.053 A 
ATOM      5  C   UNL     1      47.610  16.663  18.284  0.00  0.00    -0.109 A 
ATOM      6  C   UNL     1      46.300  16.288  18.642  0.00  0.00    +0.190 A 
ATOM      9  C   UNL     1      45.973  14.954  18.749  0.00  0.00    -0.114 A 
ATOM     10  C   UNL     1      46.919  13.966  18.508  0.00  0.00    +0.005 A 
ATOM     11  C   UNL     1      46.530  12.516  18.634  0.00  0.00    +0.093 C 
ATOM     12  C   UNL     1      47.974  18.019  18.168  0.00  0.00    +0.181 A 
ATOM     15  C   UNL     1      48.215  14.299  18.154  0.00  0.00    -0.107 A 
ATOM     34  C   UNL     1      49.267  18.346  17.822  0.00  0.00    -0.113 A 
BRANCH   6   7
ATOM      7  O   UNL     1      45.362  17.241  18.881  0.00  0.00    -0.288 OA
ATOM      8  C   UNL     1      44.683  17.181  20.138  0.00  0.00    +0.245 C 
ENDBRANCH   6   7
BRANCH  12  13
ATOM     13  O   UNL     1      47.059  18.995  18.400  0.00  0.00    -0.289 OA
ATOM     14  C   UNL     1      47.487  20.114  19.179  0.00  0.00    +0.244 C 
ENDBRANCH  12  13
ENDBRANCH  16  15
BRANCH  17  18
ATOM     18  O   UNL     1      49.949  13.350  20.171  0.00  0.00    -0.291 OA
ATOM     19  C   UNL     1      49.448  12.512  21.214  0.00  0.00    +0.252 C 
ENDBRANCH  17  18
BRANCH  21  22
ATOM     22  O   UNL     1      51.997  10.277  17.184  0.00  0.00    -0.313 OA
ATOM     23  C   UNL     1      53.360  10.578  17.492  0.00  0.00    +0.260 C 
ENDBRANCH  21  22
TORSDOF 5
ENDMDL
MODEL 8
REMARK VINA RESULT:      -4.8      1.912      4.509
REMARK  Name = ZINC95486017
REMARK  13 active torsions:
REMARK  status: ('A' for Active; 'I' for Inactive)
REMARK    1  A    between atoms: C1_1  and  C2_2
REMARK    2  A    between atoms: C6_6  and  O1_8
REMARK    3  A    between atoms: O1_8  and  C8_9
REMARK    4  A    between atoms: C9_10  and  O4_33
REMARK    5  A    between atoms: C11_12  and  C26_32
REMARK    6  A    between atoms: C12_13  and  C13_14
REMARK    7  A    between atoms: C14_15  and  O3_30
REMARK    8  A    between atoms: C16_17  and  O2_28
REMARK    9  A    between atoms: C20_21  and  C23_27
REMARK   10  A    between atoms: C21_24  and  C22_26
REMARK   11  A    between atoms: O2_28  and  C24_29
REMARK   12  A    between atoms: O3_30  and  C25_31
REMARK   13  A    between atoms: O4_33  and  C27_34
REMARK                            x       y       z     vdW  Elec       q    Type
REMARK                         _______ _______ _______ _____ _____    ______ ____
ROOT
ATOM     16  C   UNL     1      50.472  18.545  19.561  0.00  0.00    -0.077 A 
ATOM     17  C   UNL     1      51.503  18.946  18.706  0.00  0.00    +0.210 A 
ATOM     20  C   UNL     1      52.582  18.106  18.493  0.00  0.00    -0.148 A 
ATOM     21  C   UNL     1      52.634  16.874  19.126  0.00  0.00    +0.201 A 
ATOM     24  C   UNL     1      51.607  16.470  19.978  0.00  0.00    -0.205 A 
ATOM     25  C   UNL     1      51.710  15.120  20.636  0.00  0.00    +0.244 C 
ATOM     26  C   UNL     1      51.322  14.036  19.629  0.00  0.00    +0.094 C 
ATOM     27  N   UNL     1      50.829  15.052  21.811  0.00  0.00    -0.504 N 
ATOM     28  H   UNL     1      50.835  14.113  22.181  0.00  0.00    +0.430 HD
ATOM     29  H   UNL     1      51.144  15.697  22.518  0.00  0.00    +0.429 HD
ATOM     30  C   UNL     1      49.463  15.406  21.394  0.00  0.00    +0.168 C 
ATOM     31  C   UNL     1      48.473  15.048  22.505  0.00  0.00    +0.093 C 
ATOM     32  C   UNL     1      49.411  16.911  21.126  0.00  0.00    +0.139 C 
ATOM     33  C   UNL     1      50.535  17.304  20.202  0.00  0.00    -0.001 A 
ENDROOT
BRANCH  16  15
ATOM      1  C   UNL     1      46.612  16.780  16.636  0.00  0.00    +0.092 C 
ATOM      2  C   UNL     1      46.755  17.934  17.595  0.00  0.00    -0.013 A 
ATOM      3  C   UNL     1      47.945  18.135  18.229  0.00  0.00    -0.054 A 
ATOM      4  C   UNL     1      48.090  19.206  19.123  0.00  0.00    +0.053 A 
ATOM      5  C   UNL     1      46.994  20.071  19.359  0.00  0.00    -0.109 A 
ATOM      6  C   UNL     1      47.140  21.148  20.256  0.00  0.00    +0.190 A 
ATOM      9  C   UNL     1      48.344  21.350  20.895  0.00  0.00    -0.114 A 
ATOM     10  C   UNL     1      49.423  20.505  20.668  0.00  0.00    +0.005 A 
ATOM     11  C   UNL     1      50.727  20.754  21.382  0.00  0.00    +0.093 C 
ATOM     12  C   UNL     1      45.776  19.840  18.690  0.00  0.00    +0.181 A 
ATOM     15  C   UNL     1      49.315  19.438  19.793  0.00  0.00    -0.107 A 
ATOM     34  C   UNL     1      45.674  18.781  17.815  0.00  0.00    -0.113 A 
BRANCH   6   7
ATOM      7  O   UNL     1      46.096  21.983  20.490  0.00  0.00    -0.288 OA
ATOM      8  C   UNL     1      45.946  22.476  21.823  0.00  0.00    +0.245 C 
ENDBRANCH   6   7
BRANCH  12  13
ATOM     13  O   UNL     1      44.713  20.657  18.903  0.00  0.00    -0.289 OA
ATOM     14  C   UNL     1      43.495  20.040  19.326  0.00  0.00    +0.244 C 
ENDBRANCH  12  13
ENDBRANCH  16  15
BRANCH  17  18
ATOM     18  O   UNL     1      51.447  20.154  18.086  0.00  0.00    -0.291 OA
ATOM     19  C   UNL     1      52.082  20.259  16.811  0.00  0.00    +0.252 C 
ENDBRANCH  17  18
BRANCH  21  22
ATOM     22  O   UNL     1      53.694  16.051  18.914  0.00  0.00    -0.313 OA
ATOM     23  C   UNL     1      54.787  16.154  19.830  0.00  0.00    +0.260 C 
ENDBRANCH  21  22
TORSDOF 5
ENDMDL
MODEL 9
REMARK VINA RESULT:      -4.8      3.211      8.400
REMARK  Name = ZINC95486017
REMARK  13 active torsions:
REMARK  status: ('A' for Active; 'I' for Inactive)
REMARK    1  A    between atoms: C1_1  and  C2_2
REMARK    2  A    between atoms: C6_6  and  O1_8
REMARK    3  A    between atoms: O1_8  and  C8_9
REMARK    4  A    between atoms: C9_10  and  O4_33
REMARK    5  A    between atoms: C11_12  and  C26_32
REMARK    6  A    between atoms: C12_13  and  C13_14
REMARK    7  A    between atoms: C14_15  and  O3_30
REMARK    8  A    between atoms: C16_17  and  O2_28
REMARK    9  A    between atoms: C20_21  and  C23_27
REMARK   10  A    between atoms: C21_24  and  C22_26
REMARK   11  A    between atoms: O2_28  and  C24_29
REMARK   12  A    between atoms: O3_30  and  C25_31
REMARK   13  A    between atoms: O4_33  and  C27_34
REMARK                            x       y       z     vdW  Elec       q    Type
REMARK                         _______ _______ _______ _____ _____    ______ ____
ROOT
ATOM     16  C   UNL     1      48.618  16.061  18.310  0.00  0.00    -0.077 A 
ATOM     17  C   UNL     1      48.708  17.223  17.538  0.00  0.00    +0.210 A 
ATOM     20  C   UNL     1      47.636  18.097  17.489  0.00  0.00    -0.148 A 
ATOM     21  C   UNL     1      46.483  17.817  18.205  0.00  0.00    +0.201 A 
ATOM     24  C   UNL     1      46.390  16.660  18.976  0.00  0.00    -0.205 A 
ATOM     25  C   UNL     1      45.116  16.405  19.738  0.00  0.00    +0.244 C 
ATOM     26  C   UNL     1      45.102  17.268  21.001  0.00  0.00    +0.094 C 
ATOM     27  N   UNL     1      45.007  14.984  20.099  0.00  0.00    -0.504 N 
ATOM     28  H   UNL     1      44.201  14.849  20.691  0.00  0.00    +0.430 HD
ATOM     29  H   UNL     1      44.916  14.422  19.268  0.00  0.00    +0.429 HD
ATOM     30  C   UNL     1      46.224  14.591  20.828  0.00  0.00    +0.168 C 
ATOM     31  C   UNL     1      46.015  13.225  21.484  0.00  0.00    +0.093 C 
ATOM     32  C   UNL     1      47.383  14.512  19.833  0.00  0.00    +0.139 C 
ATOM     33  C   UNL     1      47.448  15.781  19.023  0.00  0.00    -0.001 A 
ENDROOT
BRANCH  16  15
ATOM      1  C   UNL     1      48.011  12.729  14.424  0.00  0.00    +0.092 C 
ATOM      2  C   UNL     1      49.048  12.899  15.504  0.00  0.00    -0.013 A 
ATOM      3  C   UNL     1      48.916  13.912  16.407  0.00  0.00    -0.054 A 
ATOM      4  C   UNL     1      49.875  14.079  17.417  0.00  0.00    +0.053 A 
ATOM      5  C   UNL     1      50.975  13.191  17.489  0.00  0.00    -0.109 A 
ATOM      6  C   UNL     1      51.938  13.359  18.504  0.00  0.00    +0.190 A 
ATOM      9  C   UNL     1      51.802  14.382  19.416  0.00  0.00    -0.114 A 
ATOM     10  C   UNL     1      50.724  15.257  19.352  0.00  0.00    +0.005 A 
ATOM     11  C   UNL     1      50.604  16.365  20.365  0.00  0.00    +0.093 C 
ATOM     12  C   UNL     1      51.087  12.153  16.542  0.00  0.00    +0.181 A 
ATOM     15  C   UNL     1      49.760  15.121  18.368  0.00  0.00    -0.107 A 
ATOM     34  C   UNL     1      50.123  12.017  15.569  0.00  0.00    -0.113 A 
BRANCH   6   7
ATOM      7  O   UNL     1      52.997  12.513  18.582  0.00  0.00    -0.288 OA
ATOM      8  C   UNL     1      54.073  12.899  19.440  0.00  0.00    +0.245 C 
ENDBRANCH   6   7
BRANCH  12  13
ATOM     13  O   UNL     1      52.135  11.292  16.593  0.00  0.00    -0.289 OA
ATOM     14  C   UNL     1      52.711  10.897  15.346  0.00  0.00    +0.244 C 
ENDBRANCH  12  13
ENDBRANCH  16  15
BRANCH  17  18
ATOM     18  O   UNL     1      49.842  17.494  16.841  0.00  0.00    -0.291 OA
ATOM     19  C   UNL     1      50.609  18.623  17.263  0.00  0.00    +0.252 C 
ENDBRANCH  17  18
BRANCH  21  22
ATOM     22  O   UNL     1      45.433  18.677  18.155  0.00  0.00    -0.313 OA
ATOM     23  C   UNL     1      45.672  20.018  18.591  0.00  0.00    +0.260 C 
ENDBRANCH  21  22
TORSDOF 5
ENDMDL
