MODEL 1
REMARK VINA RESULT:      -7.1      0.000      0.000
REMARK  Name = ZINC39144622
REMARK  11 active torsions:
REMARK  status: ('A' for Active; 'I' for Inactive)
REMARK    1  A    between atoms: C1_1  and  C2_2
REMARK    2  A    between atoms: C2_2  and  C26_34
REMARK    3  A    between atoms: C3_3  and  C4_4
REMARK    4  A    between atoms: C4_4  and  C5_5
REMARK    5  A    between atoms: C8_8  and  O5_26
REMARK    6  A    between atoms: C11_12  and  C14_19
REMARK    7  A    between atoms: C12_14  and  O3_18
REMARK    8  A    between atoms: C17_22  and  O4_25
REMARK    9  A    between atoms: O5_26  and  C20_27
REMARK   10  A    between atoms: C23_30  and  C24_32
REMARK   11  A    between atoms: C23_30  and  C25_33
REMARK                            x       y       z     vdW  Elec       q    Type
REMARK                         _______ _______ _______ _____ _____    ______ ____
ROOT
ATOM      6  C   UNL     1      47.319  18.927  18.641  0.00  0.00    -0.146 A 
ATOM      7  C   UNL     1      48.681  18.800  18.859  0.00  0.00    +0.223 A 
ATOM      8  C   UNL     1      49.345  19.674  19.736  0.00  0.00    -0.194 A 
ATOM      9  C   UNL     1      50.800  19.504  19.935  0.00  0.00    +0.056 C 
ATOM     10  C   UNL     1      51.471  18.771  19.048  0.00  0.00    -0.054 C 
ATOM     11  C   UNL     1      50.747  18.155  17.880  0.00  0.00    +0.149 C 
ATOM     12  C   UNL     1      51.474  16.879  17.452  0.00  0.00    +0.086 C 
ATOM     13  C   UNL     1      50.740  19.145  16.712  0.00  0.00    +0.037 C 
ATOM     14  C   UNL     1      48.636  20.674  20.398  0.00  0.00    +0.233 A 
ATOM     17  C   UNL     1      47.256  20.794  20.174  0.00  0.00    -0.299 A 
ATOM     18  C   UNL     1      46.477  21.830  20.862  0.00  0.00    +0.371 C 
ATOM     19  O   UNL     1      46.936  22.461  21.792  0.00  0.00    -0.416 OA
ATOM     20  C   UNL     1      45.071  22.080  20.341  0.00  0.00    +0.148 C 
ATOM     23  C   UNL     1      44.463  20.707  20.019  0.00  0.00    +0.251 C 
ATOM     32  O   UNL     1      45.272  20.047  19.047  0.00  0.00    -0.282 OA
ATOM     33  O   UNL     1      49.402  17.835  18.234  0.00  0.00    -0.289 OA
ATOM     34  C   UNL     1      46.600  19.921  19.283  0.00  0.00    +0.225 A 
ENDROOT
BRANCH  23  24
ATOM     24  C   UNL     1      43.070  20.890  19.473  0.00  0.00    -0.095 A 
ATOM     25  C   UNL     1      42.633  22.149  19.103  0.00  0.00    +0.056 A 
ATOM     26  C   UNL     1      41.357  22.320  18.602  0.00  0.00    -0.016 A 
ATOM     27  C   UNL     1      40.513  21.227  18.471  0.00  0.00    +0.117 A 
ATOM     30  C   UNL     1      40.954  19.965  18.843  0.00  0.00    -0.012 A 
ATOM     31  C   UNL     1      42.231  19.798  19.338  0.00  0.00    +0.064 A 
BRANCH  27  28
ATOM     28  O   UNL     1      39.257  21.392  17.979  0.00  0.00    -0.500 OA
ATOM     29  H   UNL     1      38.559  21.074  18.567  0.00  0.00    +0.394 HD
ENDBRANCH  27  28
ENDBRANCH  23  24
BRANCH  14  15
ATOM     15  O   UNL     1      49.270  21.520  21.245  0.00  0.00    -0.318 OA
ATOM     16  C   UNL     1      49.683  20.987  22.505  0.00  0.00    +0.242 C 
ENDBRANCH  14  15
BRANCH  20  21
ATOM     21  O   UNL     1      44.292  22.734  21.345  0.00  0.00    -0.532 OA
ATOM     22  H   UNL     1      44.326  23.699  21.301  0.00  0.00    +0.394 HD
ENDBRANCH  20  21
BRANCH   6   5
ATOM      5  C   UNL     1      46.620  17.984  17.697  0.00  0.00    +0.138 C 
BRANCH   5   4
ATOM      1  C   UNL     1      47.210  15.353  16.882  0.00  0.00    +0.074 C 
ATOM      2  C   UNL     1      46.343  15.591  18.091  0.00  0.00    -0.126 C 
ATOM      3  C   UNL     1      45.791  14.421  18.864  0.00  0.00    +0.070 C 
ATOM      4  C   UNL     1      46.069  16.815  18.471  0.00  0.00    -0.051 C 
ENDBRANCH   5   4
ENDBRANCH   6   5
TORSDOF 6
ENDMDL
MODEL 2
REMARK VINA RESULT:      -7.0      2.307      4.775
REMARK  Name = ZINC39144622
REMARK  11 active torsions:
REMARK  status: ('A' for Active; 'I' for Inactive)
REMARK    1  A    between atoms: C1_1  and  C2_2
REMARK    2  A    between atoms: C2_2  and  C26_34
REMARK    3  A    between atoms: C3_3  and  C4_4
REMARK    4  A    between atoms: C4_4  and  C5_5
REMARK    5  A    between atoms: C8_8  and  O5_26
REMARK    6  A    between atoms: C11_12  and  C14_19
REMARK    7  A    between atoms: C12_14  and  O3_18
REMARK    8  A    between atoms: C17_22  and  O4_25
REMARK    9  A    between atoms: O5_26  and  C20_27
REMARK   10  A    between atoms: C23_30  and  C24_32
REMARK   11  A    between atoms: C23_30  and  C25_33
REMARK                            x       y       z     vdW  Elec       q    Type
REMARK                         _______ _______ _______ _____ _____    ______ ____
ROOT
ATOM      6  C   UNL     1      48.429  19.231  19.054  0.00  0.00    -0.146 A 
ATOM      7  C   UNL     1      49.732  18.923  18.703  0.00  0.00    +0.223 A 
ATOM      8  C   UNL     1      50.154  17.584  18.643  0.00  0.00    -0.194 A 
ATOM      9  C   UNL     1      51.556  17.302  18.269  0.00  0.00    +0.056 C 
ATOM     10  C   UNL     1      52.433  18.302  18.329  0.00  0.00    -0.054 C 
ATOM     11  C   UNL     1      51.987  19.667  18.782  0.00  0.00    +0.149 C 
ATOM     12  C   UNL     1      52.876  20.729  18.132  0.00  0.00    +0.086 C 
ATOM     13  C   UNL     1      52.120  19.763  20.304  0.00  0.00    +0.037 C 
ATOM     14  C   UNL     1      49.261  16.554  18.932  0.00  0.00    +0.233 A 
ATOM     17  C   UNL     1      47.941  16.876  19.283  0.00  0.00    -0.299 A 
ATOM     18  C   UNL     1      46.972  15.815  19.584  0.00  0.00    +0.371 C 
ATOM     19  O   UNL     1      47.202  14.650  19.332  0.00  0.00    -0.416 OA
ATOM     20  C   UNL     1      45.671  16.252  20.239  0.00  0.00    +0.148 C 
ATOM     23  C   UNL     1      45.239  17.555  19.552  0.00  0.00    +0.251 C 
ATOM     32  O   UNL     1      46.262  18.537  19.714  0.00  0.00    -0.282 OA
ATOM     33  O   UNL     1      50.628  19.900  18.413  0.00  0.00    -0.289 OA
ATOM     34  C   UNL     1      47.529  18.221  19.354  0.00  0.00    +0.225 A 
ENDROOT
BRANCH  23  24
ATOM     24  C   UNL     1      43.961  18.054  20.177  0.00  0.00    -0.095 A 
ATOM     25  C   UNL     1      43.599  17.627  21.442  0.00  0.00    +0.056 A 
ATOM     26  C   UNL     1      42.429  18.082  22.017  0.00  0.00    -0.016 A 
ATOM     27  C   UNL     1      41.616  18.967  21.325  0.00  0.00    +0.117 A 
ATOM     30  C   UNL     1      41.981  19.394  20.056  0.00  0.00    -0.012 A 
ATOM     31  C   UNL     1      43.155  18.941  19.487  0.00  0.00    +0.064 A 
BRANCH  27  28
ATOM     28  O   UNL     1      40.463  19.416  21.889  0.00  0.00    -0.500 OA
ATOM     29  H   UNL     1      39.909  19.935  21.290  0.00  0.00    +0.394 HD
ENDBRANCH  27  28
ENDBRANCH  23  24
BRANCH  14  15
ATOM     15  O   UNL     1      49.661  15.261  18.876  0.00  0.00    -0.318 OA
ATOM     16  C   UNL     1      50.326  14.737  20.027  0.00  0.00    +0.242 C 
ENDBRANCH  14  15
BRANCH  20  21
ATOM     21  O   UNL     1      44.673  15.247  20.049  0.00  0.00    -0.532 OA
ATOM     22  H   UNL     1      44.002  15.479  19.393  0.00  0.00    +0.394 HD
ENDBRANCH  20  21
BRANCH   6   5
ATOM      5  C   UNL     1      47.990  20.671  19.117  0.00  0.00    +0.138 C 
BRANCH   5   4
ATOM      1  C   UNL     1      45.775  21.966  20.279  0.00  0.00    +0.074 C 
ATOM      2  C   UNL     1      47.034  21.761  21.082  0.00  0.00    -0.126 C 
ATOM      3  C   UNL     1      47.108  22.248  22.505  0.00  0.00    +0.070 C 
ATOM      4  C   UNL     1      48.065  21.157  20.541  0.00  0.00    -0.051 C 
ENDBRANCH   5   4
ENDBRANCH   6   5
TORSDOF 6
ENDMDL
MODEL 3
REMARK VINA RESULT:      -6.9      2.493      5.267
REMARK  Name = ZINC39144622
REMARK  11 active torsions:
REMARK  status: ('A' for Active; 'I' for Inactive)
REMARK    1  A    between atoms: C1_1  and  C2_2
REMARK    2  A    between atoms: C2_2  and  C26_34
REMARK    3  A    between atoms: C3_3  and  C4_4
REMARK    4  A    between atoms: C4_4  and  C5_5
REMARK    5  A    between atoms: C8_8  and  O5_26
REMARK    6  A    between atoms: C11_12  and  C14_19
REMARK    7  A    between atoms: C12_14  and  O3_18
REMARK    8  A    between atoms: C17_22  and  O4_25
REMARK    9  A    between atoms: O5_26  and  C20_27
REMARK   10  A    between atoms: C23_30  and  C24_32
REMARK   11  A    between atoms: C23_30  and  C25_33
REMARK                            x       y       z     vdW  Elec       q    Type
REMARK                         _______ _______ _______ _____ _____    ______ ____
ROOT
ATOM      6  C   UNL     1      46.301  16.789  18.289  0.00  0.00    -0.146 A 
ATOM      7  C   UNL     1      46.366  15.416  18.119  0.00  0.00    +0.223 A 
ATOM      8  C   UNL     1      45.756  14.555  19.046  0.00  0.00    -0.194 A 
ATOM      9  C   UNL     1      45.855  13.097  18.827  0.00  0.00    +0.056 C 
ATOM     10  C   UNL     1      46.775  12.654  17.972  0.00  0.00    -0.054 C 
ATOM     11  C   UNL     1      47.684  13.630  17.273  0.00  0.00    +0.149 C 
ATOM     12  C   UNL     1      48.109  13.046  15.925  0.00  0.00    +0.086 C 
ATOM     13  C   UNL     1      48.928  13.866  18.134  0.00  0.00    +0.037 C 
ATOM     14  C   UNL     1      45.076  15.077  20.145  0.00  0.00    +0.233 A 
ATOM     17  C   UNL     1      45.012  16.469  20.308  0.00  0.00    -0.299 A 
ATOM     18  C   UNL     1      44.295  17.053  21.448  0.00  0.00    +0.371 C 
ATOM     19  O   UNL     1      43.563  16.386  22.151  0.00  0.00    -0.416 OA
ATOM     20  C   UNL     1      44.529  18.531  21.711  0.00  0.00    +0.148 C 
ATOM     23  C   UNL     1      44.555  19.230  20.344  0.00  0.00    +0.251 C 
ATOM     32  O   UNL     1      45.596  18.669  19.546  0.00  0.00    -0.282 OA
ATOM     33  O   UNL     1      47.017  14.874  17.059  0.00  0.00    -0.289 OA
ATOM     34  C   UNL     1      45.636  17.326  19.380  0.00  0.00    +0.225 A 
ENDROOT
BRANCH  23  24
ATOM     24  C   UNL     1      44.808  20.704  20.537  0.00  0.00    -0.095 A 
ATOM     25  C   UNL     1      45.880  21.125  21.302  0.00  0.00    +0.056 A 
ATOM     26  C   UNL     1      46.114  22.475  21.481  0.00  0.00    -0.016 A 
ATOM     27  C   UNL     1      45.273  23.407  20.892  0.00  0.00    +0.117 A 
ATOM     30  C   UNL     1      44.198  22.982  20.125  0.00  0.00    -0.012 A 
ATOM     31  C   UNL     1      43.971  21.632  19.945  0.00  0.00    +0.064 A 
BRANCH  27  28
ATOM     28  O   UNL     1      45.501  24.736  21.067  0.00  0.00    -0.500 OA
ATOM     29  H   UNL     1      46.410  24.950  21.315  0.00  0.00    +0.394 HD
ENDBRANCH  27  28
ENDBRANCH  23  24
BRANCH  14  15
ATOM     15  O   UNL     1      44.486  14.252  21.043  0.00  0.00    -0.318 OA
ATOM     16  C   UNL     1      45.339  13.612  21.995  0.00  0.00    +0.242 C 
ENDBRANCH  14  15
BRANCH  20  21
ATOM     21  O   UNL     1      43.463  19.056  22.505  0.00  0.00    -0.532 OA
ATOM     22  H   UNL     1      43.478  18.763  23.426  0.00  0.00    +0.394 HD
ENDBRANCH  20  21
BRANCH   6   5
ATOM      5  C   UNL     1      46.960  17.701  17.288  0.00  0.00    +0.138 C 
BRANCH   5   4
ATOM      1  C   UNL     1      48.758  19.259  18.797  0.00  0.00    +0.074 C 
ATOM      2  C   UNL     1      49.274  18.132  17.939  0.00  0.00    -0.126 C 
ATOM      3  C   UNL     1      50.751  17.839  17.888  0.00  0.00    +0.070 C 
ATOM      4  C   UNL     1      48.437  17.406  17.237  0.00  0.00    -0.051 C 
ENDBRANCH   5   4
ENDBRANCH   6   5
TORSDOF 6
ENDMDL
MODEL 4
REMARK VINA RESULT:      -6.7      4.496      8.370
REMARK  Name = ZINC39144622
REMARK  11 active torsions:
REMARK  status: ('A' for Active; 'I' for Inactive)
REMARK    1  A    between atoms: C1_1  and  C2_2
REMARK    2  A    between atoms: C2_2  and  C26_34
REMARK    3  A    between atoms: C3_3  and  C4_4
REMARK    4  A    between atoms: C4_4  and  C5_5
REMARK    5  A    between atoms: C8_8  and  O5_26
REMARK    6  A    between atoms: C11_12  and  C14_19
REMARK    7  A    between atoms: C12_14  and  O3_18
REMARK    8  A    between atoms: C17_22  and  O4_25
REMARK    9  A    between atoms: O5_26  and  C20_27
REMARK   10  A    between atoms: C23_30  and  C24_32
REMARK   11  A    between atoms: C23_30  and  C25_33
REMARK                            x       y       z     vdW  Elec       q    Type
REMARK                         _______ _______ _______ _____ _____    ______ ____
ROOT
ATOM      6  C   UNL     1      48.166  14.505  17.030  0.00  0.00    -0.146 A 
ATOM      7  C   UNL     1      47.854  13.168  17.210  0.00  0.00    +0.223 A 
ATOM      8  C   UNL     1      48.823  12.269  17.685  0.00  0.00    -0.194 A 
ATOM      9  C   UNL     1      48.446  10.850  17.856  0.00  0.00    +0.056 C 
ATOM     10  C   UNL     1      47.340  10.419  17.254  0.00  0.00    -0.054 C 
ATOM     11  C   UNL     1      46.521  11.368  16.418  0.00  0.00    +0.149 C 
ATOM     12  C   UNL     1      45.059  10.920  16.433  0.00  0.00    +0.086 C 
ATOM     13  C   UNL     1      47.038  11.346  14.977  0.00  0.00    +0.037 C 
ATOM     14  C   UNL     1      50.108  12.718  17.985  0.00  0.00    +0.233 A 
ATOM     17  C   UNL     1      50.415  14.075  17.804  0.00  0.00    -0.299 A 
ATOM     18  C   UNL     1      51.755  14.583  18.120  0.00  0.00    +0.371 C 
ATOM     19  O   UNL     1      52.559  13.919  18.741  0.00  0.00    -0.416 OA
ATOM     20  C   UNL     1      52.087  15.978  17.617  0.00  0.00    +0.148 C 
ATOM     23  C   UNL     1      50.835  16.842  17.833  0.00  0.00    +0.251 C 
ATOM     32  O   UNL     1      49.739  16.274  17.118  0.00  0.00    -0.282 OA
ATOM     33  O   UNL     1      46.612  12.697  16.930  0.00  0.00    -0.289 OA
ATOM     34  C   UNL     1      49.441  14.968  17.315  0.00  0.00    +0.225 A 
ENDROOT
BRANCH  23  24
ATOM     24  C   UNL     1      51.095  18.239  17.330  0.00  0.00    -0.095 A 
ATOM     25  C   UNL     1      50.802  19.327  18.131  0.00  0.00    +0.056 A 
ATOM     26  C   UNL     1      51.038  20.608  17.673  0.00  0.00    -0.016 A 
ATOM     27  C   UNL     1      51.569  20.802  16.406  0.00  0.00    +0.117 A 
ATOM     30  C   UNL     1      51.862  19.709  15.604  0.00  0.00    -0.012 A 
ATOM     31  C   UNL     1      51.629  18.430  16.068  0.00  0.00    +0.064 A 
BRANCH  27  28
ATOM     28  O   UNL     1      51.803  22.063  15.951  0.00  0.00    -0.500 OA
ATOM     29  H   UNL     1      52.412  22.104  15.202  0.00  0.00    +0.394 HD
ENDBRANCH  27  28
ENDBRANCH  23  24
BRANCH  14  15
ATOM     15  O   UNL     1      51.046  11.856  18.444  0.00  0.00    -0.318 OA
ATOM     16  C   UNL     1      50.916  11.416  19.798  0.00  0.00    +0.242 C 
ENDBRANCH  14  15
BRANCH  20  21
ATOM     21  O   UNL     1      53.182  16.514  18.362  0.00  0.00    -0.532 OA
ATOM     22  H   UNL     1      53.170  17.477  18.443  0.00  0.00    +0.394 HD
ENDBRANCH  20  21
BRANCH   6   5
ATOM      5  C   UNL     1      47.118  15.458  16.518  0.00  0.00    +0.138 C 
BRANCH   5   4
ATOM      1  C   UNL     1      46.986  18.165  17.284  0.00  0.00    +0.074 C 
ATOM      2  C   UNL     1      46.160  17.135  18.011  0.00  0.00    -0.126 C 
ATOM      3  C   UNL     1      45.263  17.554  19.148  0.00  0.00    +0.070 C 
ATOM      4  C   UNL     1      46.221  15.875  17.654  0.00  0.00    -0.051 C 
ENDBRANCH   5   4
ENDBRANCH   6   5
TORSDOF 6
ENDMDL
MODEL 5
REMARK VINA RESULT:      -6.5      2.845      4.635
REMARK  Name = ZINC39144622
REMARK  11 active torsions:
REMARK  status: ('A' for Active; 'I' for Inactive)
REMARK    1  A    between atoms: C1_1  and  C2_2
REMARK    2  A    between atoms: C2_2  and  C26_34
REMARK    3  A    between atoms: C3_3  and  C4_4
REMARK    4  A    between atoms: C4_4  and  C5_5
REMARK    5  A    between atoms: C8_8  and  O5_26
REMARK    6  A    between atoms: C11_12  and  C14_19
REMARK    7  A    between atoms: C12_14  and  O3_18
REMARK    8  A    between atoms: C17_22  and  O4_25
REMARK    9  A    between atoms: O5_26  and  C20_27
REMARK   10  A    between atoms: C23_30  and  C24_32
REMARK   11  A    between atoms: C23_30  and  C25_33
REMARK                            x       y       z     vdW  Elec       q    Type
REMARK                         _______ _______ _______ _____ _____    ______ ____
ROOT
ATOM      6  C   UNL     1      46.848  16.811  19.348  0.00  0.00    -0.146 A 
ATOM      7  C   UNL     1      47.484  15.634  19.706  0.00  0.00    +0.223 A 
ATOM      8  C   UNL     1      46.980  14.844  20.752  0.00  0.00    -0.194 A 
ATOM      9  C   UNL     1      47.695  13.598  21.103  0.00  0.00    +0.056 C 
ATOM     10  C   UNL     1      48.940  13.445  20.657  0.00  0.00    -0.054 C 
ATOM     11  C   UNL     1      49.583  14.528  19.832  0.00  0.00    +0.149 C 
ATOM     12  C   UNL     1      50.617  13.903  18.895  0.00  0.00    +0.086 C 
ATOM     13  C   UNL     1      50.283  15.522  20.763  0.00  0.00    +0.037 C 
ATOM     14  C   UNL     1      45.832  15.237  21.437  0.00  0.00    +0.233 A 
ATOM     17  C   UNL     1      45.191  16.429  21.065  0.00  0.00    -0.299 A 
ATOM     18  C   UNL     1      43.974  16.867  21.758  0.00  0.00    +0.371 C 
ATOM     19  O   UNL     1      43.365  16.129  22.505  0.00  0.00    -0.416 OA
ATOM     20  C   UNL     1      43.525  18.296  21.501  0.00  0.00    +0.148 C 
ATOM     23  C   UNL     1      43.732  18.568  20.004  0.00  0.00    +0.251 C 
ATOM     32  O   UNL     1      45.108  18.385  19.675  0.00  0.00    -0.282 OA
ATOM     33  O   UNL     1      48.603  15.220  19.058  0.00  0.00    -0.289 OA
ATOM     34  C   UNL     1      45.710  17.222  20.023  0.00  0.00    +0.225 A 
ENDROOT
BRANCH  23  24
ATOM     24  C   UNL     1      43.324  19.985  19.689  0.00  0.00    -0.095 A 
ATOM     25  C   UNL     1      44.150  21.036  20.044  0.00  0.00    +0.056 A 
ATOM     26  C   UNL     1      43.780  22.335  19.758  0.00  0.00    -0.016 A 
ATOM     27  C   UNL     1      42.577  22.585  19.113  0.00  0.00    +0.117 A 
ATOM     30  C   UNL     1      41.751  21.529  18.757  0.00  0.00    -0.012 A 
ATOM     31  C   UNL     1      42.127  20.232  19.042  0.00  0.00    +0.064 A 
BRANCH  27  28
ATOM     28  O   UNL     1      42.210  23.863  18.829  0.00  0.00    -0.500 OA
ATOM     29  H   UNL     1      41.331  23.941  18.435  0.00  0.00    +0.394 HD
ENDBRANCH  27  28
ENDBRANCH  23  24
BRANCH  14  15
ATOM     15  O   UNL     1      45.341  14.479  22.446  0.00  0.00    -0.318 OA
ATOM     16  C   UNL     1      44.996  13.128  22.135  0.00  0.00    +0.242 C 
ENDBRANCH  14  15
BRANCH  20  21
ATOM     21  O   UNL     1      42.142  18.436  21.835  0.00  0.00    -0.532 OA
ATOM     22  H   UNL     1      41.580  17.735  21.482  0.00  0.00    +0.394 HD
ENDBRANCH  20  21
BRANCH   6   5
ATOM      5  C   UNL     1      47.399  17.650  18.225  0.00  0.00    +0.138 C 
BRANCH   5   4
ATOM      1  C   UNL     1      50.009  17.781  17.171  0.00  0.00    +0.074 C 
ATOM      2  C   UNL     1      49.600  18.706  18.289  0.00  0.00    -0.126 C 
ATOM      3  C   UNL     1      50.587  19.700  18.843  0.00  0.00    +0.070 C 
ATOM      4  C   UNL     1      48.386  18.645  18.779  0.00  0.00    -0.051 C 
ENDBRANCH   5   4
ENDBRANCH   6   5
TORSDOF 6
ENDMDL
MODEL 6
REMARK VINA RESULT:      -6.4      3.918      8.759
REMARK  Name = ZINC39144622
REMARK  11 active torsions:
REMARK  status: ('A' for Active; 'I' for Inactive)
REMARK    1  A    between atoms: C1_1  and  C2_2
REMARK    2  A    between atoms: C2_2  and  C26_34
REMARK    3  A    between atoms: C3_3  and  C4_4
REMARK    4  A    between atoms: C4_4  and  C5_5
REMARK    5  A    between atoms: C8_8  and  O5_26
REMARK    6  A    between atoms: C11_12  and  C14_19
REMARK    7  A    between atoms: C12_14  and  O3_18
REMARK    8  A    between atoms: C17_22  and  O4_25
REMARK    9  A    between atoms: O5_26  and  C20_27
REMARK   10  A    between atoms: C23_30  and  C24_32
REMARK   11  A    between atoms: C23_30  and  C25_33
REMARK                            x       y       z     vdW  Elec       q    Type
REMARK                         _______ _______ _______ _____ _____    ______ ____
ROOT
ATOM      6  C   UNL     1      49.569  16.394  18.349  0.00  0.00    -0.146 A 
ATOM      7  C   UNL     1      48.928  17.260  19.218  0.00  0.00    +0.223 A 
ATOM      8  C   UNL     1      47.569  17.080  19.528  0.00  0.00    -0.194 A 
ATOM      9  C   UNL     1      46.925  18.031  20.457  0.00  0.00    +0.056 C 
ATOM     10  C   UNL     1      47.541  19.187  20.697  0.00  0.00    -0.054 C 
ATOM     11  C   UNL     1      48.850  19.496  20.019  0.00  0.00    +0.149 C 
ATOM     12  C   UNL     1      49.669  20.433  20.907  0.00  0.00    +0.086 C 
ATOM     13  C   UNL     1      48.574  20.185  18.680  0.00  0.00    +0.037 C 
ATOM     14  C   UNL     1      46.857  16.023  18.964  0.00  0.00    +0.233 A 
ATOM     17  C   UNL     1      47.515  15.148  18.087  0.00  0.00    -0.299 A 
ATOM     18  C   UNL     1      46.797  14.019  17.484  0.00  0.00    +0.371 C 
ATOM     19  O   UNL     1      45.702  13.675  17.879  0.00  0.00    -0.416 OA
ATOM     20  C   UNL     1      47.491  13.313  16.330  0.00  0.00    +0.148 C 
ATOM     23  C   UNL     1      48.978  13.207  16.700  0.00  0.00    +0.251 C 
ATOM     32  O   UNL     1      49.508  14.514  16.908  0.00  0.00    -0.282 OA
ATOM     33  O   UNL     1      49.592  18.298  19.787  0.00  0.00    -0.289 OA
ATOM     34  C   UNL     1      48.874  15.343  17.772  0.00  0.00    +0.225 A 
ENDROOT
BRANCH  23  24
ATOM     24  C   UNL     1      49.728  12.533  15.579  0.00  0.00    -0.095 A 
ATOM     25  C   UNL     1      49.704  13.077  14.308  0.00  0.00    +0.056 A 
ATOM     26  C   UNL     1      50.390  12.462  13.279  0.00  0.00    -0.016 A 
ATOM     27  C   UNL     1      51.103  11.297  13.521  0.00  0.00    +0.117 A 
ATOM     30  C   UNL     1      51.125  10.753  14.797  0.00  0.00    -0.012 A 
ATOM     31  C   UNL     1      50.442  11.374  15.824  0.00  0.00    +0.064 A 
BRANCH  27  28
ATOM     28  O   UNL     1      51.779  10.689  12.510  0.00  0.00    -0.500 OA
ATOM     29  H   UNL     1      51.232  10.109  11.965  0.00  0.00    +0.394 HD
ENDBRANCH  27  28
ENDBRANCH  23  24
BRANCH  14  15
ATOM     15  O   UNL     1      45.547  15.844  19.259  0.00  0.00    -0.318 OA
ATOM     16  C   UNL     1      45.239  15.311  20.550  0.00  0.00    +0.242 C 
ENDBRANCH  14  15
BRANCH  20  21
ATOM     21  O   UNL     1      46.937  12.007  16.159  0.00  0.00    -0.532 OA
ATOM     22  H   UNL     1      47.162  11.389  16.868  0.00  0.00    +0.394 HD
ENDBRANCH  20  21
BRANCH   6   5
ATOM      5  C   UNL     1      51.025  16.600  18.024  0.00  0.00    +0.138 C 
BRANCH   5   4
ATOM      1  C   UNL     1      52.531  18.965  18.296  0.00  0.00    +0.074 C 
ATOM      2  C   UNL     1      51.852  18.651  16.988  0.00  0.00    -0.126 C 
ATOM      3  C   UNL     1      51.978  19.602  15.826  0.00  0.00    +0.070 C 
ATOM      4  C   UNL     1      51.151  17.550  16.861  0.00  0.00    -0.051 C 
ENDBRANCH   5   4
ENDBRANCH   6   5
TORSDOF 6
ENDMDL
MODEL 7
REMARK VINA RESULT:      -6.4      2.581      5.158
REMARK  Name = ZINC39144622
REMARK  11 active torsions:
REMARK  status: ('A' for Active; 'I' for Inactive)
REMARK    1  A    between atoms: C1_1  and  C2_2
REMARK    2  A    between atoms: C2_2  and  C26_34
REMARK    3  A    between atoms: C3_3  and  C4_4
REMARK    4  A    between atoms: C4_4  and  C5_5
REMARK    5  A    between atoms: C8_8  and  O5_26
REMARK    6  A    between atoms: C11_12  and  C14_19
REMARK    7  A    between atoms: C12_14  and  O3_18
REMARK    8  A    between atoms: C17_22  and  O4_25
REMARK    9  A    between atoms: O5_26  and  C20_27
REMARK   10  A    between atoms: C23_30  and  C24_32
REMARK   11  A    between atoms: C23_30  and  C25_33
REMARK                            x       y       z     vdW  Elec       q    Type
REMARK                         _______ _______ _______ _____ _____    ______ ____
ROOT
ATOM      6  C   UNL     1      49.354  17.993  19.548  0.00  0.00    -0.146 A 
ATOM      7  C   UNL     1      49.764  16.682  19.374  0.00  0.00    +0.223 A 
ATOM      8  C   UNL     1      48.825  15.637  19.377  0.00  0.00    -0.194 A 
ATOM      9  C   UNL     1      49.309  14.253  19.194  0.00  0.00    +0.056 C 
ATOM     10  C   UNL     1      50.608  14.016  19.365  0.00  0.00    -0.054 C 
ATOM     11  C   UNL     1      51.534  15.141  19.747  0.00  0.00    +0.149 C 
ATOM     12  C   UNL     1      52.936  14.843  19.215  0.00  0.00    +0.086 C 
ATOM     13  C   UNL     1      51.588  15.254  21.273  0.00  0.00    +0.037 C 
ATOM     14  C   UNL     1      47.470  15.914  19.552  0.00  0.00    +0.233 A 
ATOM     17  C   UNL     1      47.063  17.245  19.723  0.00  0.00    -0.299 A 
ATOM     18  C   UNL     1      45.643  17.572  19.898  0.00  0.00    +0.371 C 
ATOM     19  O   UNL     1      44.769  16.756  19.685  0.00  0.00    -0.416 OA
ATOM     20  C   UNL     1      45.325  18.981  20.373  0.00  0.00    +0.148 C 
ATOM     23  C   UNL     1      46.275  19.929  19.628  0.00  0.00    +0.251 C 
ATOM     32  O   UNL     1      47.625  19.571  19.918  0.00  0.00    -0.282 OA
ATOM     33  O   UNL     1      51.075  16.378  19.200  0.00  0.00    -0.289 OA
ATOM     34  C   UNL     1      48.012  18.286  19.731  0.00  0.00    +0.225 A 
ENDROOT
BRANCH  23  24
ATOM     24  C   UNL     1      46.025  21.347  20.076  0.00  0.00    -0.095 A 
ATOM     25  C   UNL     1      45.111  22.133  19.398  0.00  0.00    +0.056 A 
ATOM     26  C   UNL     1      44.879  23.432  19.805  0.00  0.00    -0.016 A 
ATOM     27  C   UNL     1      45.564  23.948  20.896  0.00  0.00    +0.117 A 
ATOM     30  C   UNL     1      46.480  23.157  21.574  0.00  0.00    -0.012 A 
ATOM     31  C   UNL     1      46.705  21.858  21.166  0.00  0.00    +0.064 A 
BRANCH  27  28
ATOM     28  O   UNL     1      45.338  25.227  21.299  0.00  0.00    -0.500 OA
ATOM     29  H   UNL     1      45.339  25.342  22.259  0.00  0.00    +0.394 HD
ENDBRANCH  27  28
ENDBRANCH  23  24
BRANCH  14  15
ATOM     15  O   UNL     1      46.560  14.911  19.555  0.00  0.00    -0.318 OA
ATOM     16  C   UNL     1      46.457  14.132  20.749  0.00  0.00    +0.242 C 
ENDBRANCH  14  15
BRANCH  20  21
ATOM     21  O   UNL     1      43.969  19.303  20.058  0.00  0.00    -0.532 OA
ATOM     22  H   UNL     1      43.413  18.533  19.883  0.00  0.00    +0.394 HD
ENDBRANCH  20  21
BRANCH   6   5
ATOM      5  C   UNL     1      50.371  19.104  19.544  0.00  0.00    +0.138 C 
BRANCH   5   4
ATOM      1  C   UNL     1      51.919  21.410  19.075  0.00  0.00    +0.074 C 
ATOM      2  C   UNL     1      51.266  20.694  17.921  0.00  0.00    -0.126 C 
ATOM      3  C   UNL     1      51.440  21.212  16.517  0.00  0.00    +0.070 C 
ATOM      4  C   UNL     1      50.546  19.621  18.139  0.00  0.00    -0.051 C 
ENDBRANCH   5   4
ENDBRANCH   6   5
TORSDOF 6
ENDMDL
MODEL 8
REMARK VINA RESULT:      -6.4      2.443      5.099
REMARK  Name = ZINC39144622
REMARK  11 active torsions:
REMARK  status: ('A' for Active; 'I' for Inactive)
REMARK    1  A    between atoms: C1_1  and  C2_2
REMARK    2  A    between atoms: C2_2  and  C26_34
REMARK    3  A    between atoms: C3_3  and  C4_4
REMARK    4  A    between atoms: C4_4  and  C5_5
REMARK    5  A    between atoms: C8_8  and  O5_26
REMARK    6  A    between atoms: C11_12  and  C14_19
REMARK    7  A    between atoms: C12_14  and  O3_18
REMARK    8  A    between atoms: C17_22  and  O4_25
REMARK    9  A    between atoms: O5_26  and  C20_27
REMARK   10  A    between atoms: C23_30  and  C24_32
REMARK   11  A    between atoms: C23_30  and  C25_33
REMARK                            x       y       z     vdW  Elec       q    Type
REMARK                         _______ _______ _______ _____ _____    ______ ____
ROOT
ATOM      6  C   UNL     1      47.211  15.999  18.715  0.00  0.00    -0.146 A 
ATOM      7  C   UNL     1      47.914  14.859  18.364  0.00  0.00    +0.223 A 
ATOM      8  C   UNL     1      49.306  14.912  18.179  0.00  0.00    -0.194 A 
ATOM      9  C   UNL     1      50.014  13.671  17.800  0.00  0.00    +0.056 C 
ATOM     10  C   UNL     1      49.292  12.656  17.332  0.00  0.00    -0.054 C 
ATOM     11  C   UNL     1      47.799  12.797  17.190  0.00  0.00    +0.149 C 
ATOM     12  C   UNL     1      47.146  11.422  17.334  0.00  0.00    +0.086 C 
ATOM     13  C   UNL     1      47.475  13.366  15.806  0.00  0.00    +0.037 C 
ATOM     14  C   UNL     1      49.990  16.113  18.350  0.00  0.00    +0.233 A 
ATOM     17  C   UNL     1      49.271  17.263  18.710  0.00  0.00    -0.299 A 
ATOM     18  C   UNL     1      49.962  18.542  18.908  0.00  0.00    +0.371 C 
ATOM     19  O   UNL     1      51.172  18.608  18.988  0.00  0.00    -0.416 OA
ATOM     20  C   UNL     1      49.085  19.780  18.997  0.00  0.00    +0.148 C 
ATOM     23  C   UNL     1      47.856  19.399  19.835  0.00  0.00    +0.251 C 
ATOM     32  O   UNL     1      47.172  18.317  19.207  0.00  0.00    -0.282 OA
ATOM     33  O   UNL     1      47.280  13.672  18.192  0.00  0.00    -0.289 OA
ATOM     34  C   UNL     1      47.874  17.205  18.882  0.00  0.00    +0.225 A 
ENDROOT
BRANCH  23  24
ATOM     24  C   UNL     1      46.931  20.585  19.939  0.00  0.00    -0.095 A 
ATOM     25  C   UNL     1      46.902  21.338  21.099  0.00  0.00    +0.056 A 
ATOM     26  C   UNL     1      46.056  22.425  21.198  0.00  0.00    -0.016 A 
ATOM     27  C   UNL     1      45.234  22.761  20.132  0.00  0.00    +0.117 A 
ATOM     30  C   UNL     1      45.265  22.004  18.970  0.00  0.00    -0.012 A 
ATOM     31  C   UNL     1      46.116  20.922  18.874  0.00  0.00    +0.064 A 
BRANCH  27  28
ATOM     28  O   UNL     1      44.399  23.830  20.227  0.00  0.00    -0.500 OA
ATOM     29  H   UNL     1      44.632  24.563  19.642  0.00  0.00    +0.394 HD
ENDBRANCH  27  28
ENDBRANCH  23  24
BRANCH  14  15
ATOM     15  O   UNL     1      51.332  16.170  18.173  0.00  0.00    -0.318 OA
ATOM     16  C   UNL     1      51.806  16.257  16.827  0.00  0.00    +0.242 C 
ENDBRANCH  14  15
BRANCH  20  21
ATOM     21  O   UNL     1      49.803  20.837  19.637  0.00  0.00    -0.532 OA
ATOM     22  H   UNL     1      49.868  20.743  20.597  0.00  0.00    +0.394 HD
ENDBRANCH  20  21
BRANCH   6   5
ATOM      5  C   UNL     1      45.719  15.930  18.910  0.00  0.00    +0.138 C 
BRANCH   5   4
ATOM      1  C   UNL     1      44.138  17.668  20.464  0.00  0.00    +0.074 C 
ATOM      2  C   UNL     1      44.680  16.398  21.069  0.00  0.00    -0.126 C 
ATOM      3  C   UNL     1      44.376  16.059  22.505  0.00  0.00    +0.070 C 
ATOM      4  C   UNL     1      45.415  15.589  20.346  0.00  0.00    -0.051 C 
ENDBRANCH   5   4
ENDBRANCH   6   5
TORSDOF 6
ENDMDL
MODEL 9
REMARK VINA RESULT:      -6.4      2.455      5.017
REMARK  Name = ZINC39144622
REMARK  11 active torsions:
REMARK  status: ('A' for Active; 'I' for Inactive)
REMARK    1  A    between atoms: C1_1  and  C2_2
REMARK    2  A    between atoms: C2_2  and  C26_34
REMARK    3  A    between atoms: C3_3  and  C4_4
REMARK    4  A    between atoms: C4_4  and  C5_5
REMARK    5  A    between atoms: C8_8  and  O5_26
REMARK    6  A    between atoms: C11_12  and  C14_19
REMARK    7  A    between atoms: C12_14  and  O3_18
REMARK    8  A    between atoms: C17_22  and  O4_25
REMARK    9  A    between atoms: O5_26  and  C20_27
REMARK   10  A    between atoms: C23_30  and  C24_32
REMARK   11  A    between atoms: C23_30  and  C25_33
REMARK                            x       y       z     vdW  Elec       q    Type
REMARK                         _______ _______ _______ _____ _____    ______ ____
ROOT
ATOM      6  C   UNL     1      48.067  17.378  18.138  0.00  0.00    -0.146 A 
ATOM      7  C   UNL     1      48.352  16.047  17.884  0.00  0.00    +0.223 A 
ATOM      8  C   UNL     1      47.596  15.030  18.491  0.00  0.00    -0.194 A 
ATOM      9  C   UNL     1      47.939  13.623  18.194  0.00  0.00    +0.056 C 
ATOM     10  C   UNL     1      49.126  13.371  17.647  0.00  0.00    -0.054 C 
ATOM     11  C   UNL     1      50.079  14.502  17.361  0.00  0.00    +0.149 C 
ATOM     12  C   UNL     1      50.970  14.123  16.178  0.00  0.00    +0.086 C 
ATOM     13  C   UNL     1      50.955  14.747  18.593  0.00  0.00    +0.037 C 
ATOM     14  C   UNL     1      46.550  15.354  19.352  0.00  0.00    +0.233 A 
ATOM     17  C   UNL     1      46.265  16.705  19.601  0.00  0.00    -0.299 A 
ATOM     18  C   UNL     1      45.164  17.081  20.495  0.00  0.00    +0.371 C 
ATOM     19  O   UNL     1      44.338  16.272  20.866  0.00  0.00    -0.416 OA
ATOM     20  C   UNL     1      45.118  18.534  20.941  0.00  0.00    +0.148 C 
ATOM     23  C   UNL     1      45.480  19.389  19.719  0.00  0.00    +0.251 C 
ATOM     32  O   UNL     1      46.779  19.024  19.254  0.00  0.00    -0.282 OA
ATOM     33  O   UNL     1      49.361  15.696  17.048  0.00  0.00    -0.289 OA
ATOM     34  C   UNL     1      47.035  17.719  18.998  0.00  0.00    +0.225 A 
ENDROOT
BRANCH  23  24
ATOM     24  C   UNL     1      45.476  20.846  20.105  0.00  0.00    -0.095 A 
ATOM     25  C   UNL     1      46.394  21.319  21.024  0.00  0.00    +0.056 A 
ATOM     26  C   UNL     1      46.392  22.654  21.380  0.00  0.00    -0.016 A 
ATOM     27  C   UNL     1      45.468  23.520  20.815  0.00  0.00    +0.117 A 
ATOM     30  C   UNL     1      44.548  23.043  19.892  0.00  0.00    -0.012 A 
ATOM     31  C   UNL     1      44.557  21.709  19.535  0.00  0.00    +0.064 A 
BRANCH  27  28
ATOM     28  O   UNL     1      45.464  24.834  21.163  0.00  0.00    -0.500 OA
ATOM     29  H   UNL     1      45.487  25.440  20.411  0.00  0.00    +0.394 HD
ENDBRANCH  27  28
ENDBRANCH  23  24
BRANCH  14  15
ATOM     15  O   UNL     1      45.817  14.378  19.940  0.00  0.00    -0.318 OA
ATOM     16  C   UNL     1      46.405  13.711  21.060  0.00  0.00    +0.242 C 
ENDBRANCH  14  15
BRANCH  20  21
ATOM     21  O   UNL     1      43.802  18.861  21.391  0.00  0.00    -0.532 OA
ATOM     22  H   UNL     1      43.633  18.627  22.314  0.00  0.00    +0.394 HD
ENDBRANCH  20  21
BRANCH   6   5
ATOM      5  C   UNL     1      48.886  18.458  17.482  0.00  0.00    +0.138 C 
BRANCH   5   4
ATOM      1  C   UNL     1      51.357  18.525  16.131  0.00  0.00    +0.074 C 
ATOM      2  C   UNL     1      51.312  18.692  17.628  0.00  0.00    -0.126 C 
ATOM      3  C   UNL     1      52.589  18.895  18.402  0.00  0.00    +0.070 C 
ATOM      4  C   UNL     1      50.162  18.662  18.257  0.00  0.00    -0.051 C 
ENDBRANCH   5   4
ENDBRANCH   6   5
TORSDOF 6
ENDMDL
