MODEL 1
REMARK VINA RESULT:      -6.8      0.000      0.000
REMARK  Name = ZINC15043216
REMARK  16 active torsions:
REMARK  status: ('A' for Active; 'I' for Inactive)
REMARK    1  A    between atoms: C2_2  and  C7_10
REMARK    2  A    between atoms: C4_4  and  O3_9
REMARK    3  A    between atoms: C5_5  and  O2_8
REMARK    4  A    between atoms: C6_6  and  O1_7
REMARK    5  A    between atoms: C7_10  and  O5_12
REMARK    6  A    between atoms: O5_12  and  C8_13
REMARK    7  A    between atoms: C8_13  and  C9_14
REMARK    8  A    between atoms: C10_16  and  O14_39
REMARK    9  A    between atoms: C11_18  and  O13_38
REMARK   10  A    between atoms: C12_20  and  O12_37
REMARK   11  A    between atoms: C13_22  and  O7_25
REMARK   12  A    between atoms: O7_25  and  C14_26
REMARK   13  A    between atoms: C14_26  and  C15_28
REMARK   14  A    between atoms: C17_30  and  O11_36
REMARK   15  A    between atoms: C18_31  and  O10_35
REMARK   16  A    between atoms: C19_32  and  O9_34
REMARK                            x       y       z     vdW  Elec       q    Type
REMARK                         _______ _______ _______ _____ _____    ______ ____
ROOT
ATOM      6  C   UNL     1      45.423  19.445  21.602  0.00  0.00    +0.209 C 
ATOM      7  C   UNL     1      44.020  19.727  21.059  0.00  0.00    +0.180 C 
ATOM     10  C   UNL     1      44.001  21.116  20.412  0.00  0.00    +0.167 C 
ATOM     13  C   UNL     1      45.071  21.172  19.318  0.00  0.00    +0.155 C 
ATOM     16  C   UNL     1      46.433  20.835  19.929  0.00  0.00    +0.326 C 
ATOM     32  O   UNL     1      46.373  19.545  20.540  0.00  0.00    -0.364 OA
ENDROOT
BRANCH   7   8
ATOM      8  O   UNL     1      43.679  18.741  20.083  0.00  0.00    -0.545 OA
ATOM      9  H   UNL     1      44.324  18.025  20.006  0.00  0.00    +0.392 HD
ENDBRANCH   7   8
BRANCH  10  11
ATOM     11  O   UNL     1      42.715  21.360  19.837  0.00  0.00    -0.552 OA
ATOM     12  H   UNL     1      42.748  21.715  18.939  0.00  0.00    +0.397 HD
ENDBRANCH  10  11
BRANCH  13  14
ATOM     14  O   UNL     1      45.112  22.486  18.757  0.00  0.00    -0.556 OA
ATOM     15  H   UNL     1      44.435  22.647  18.085  0.00  0.00    +0.394 HD
ENDBRANCH  13  14
BRANCH   6   5
ATOM      5  C   UNL     1      45.467  18.036  22.197  0.00  0.00    +0.276 C 
BRANCH   5   4
ATOM      4  O   UNL     1      46.165  17.147  21.286  0.00  0.00    -0.342 OA
BRANCH   4   3
ATOM      3  C   UNL     1      45.420  16.238  20.628  0.00  0.00    +0.515 C 
ATOM     33  O   UNL     1      44.402  15.806  21.132  0.00  0.00    -0.497 OA
BRANCH   3   2
ATOM      1  C   UNL     1      45.876  14.398  19.014  0.00  0.00    +0.080 A 
ATOM      2  C   UNL     1      45.840  15.767  19.294  0.00  0.00    -0.103 A 
ATOM     34  C   UNL     1      46.197  16.689  18.306  0.00  0.00    +0.078 A 
ATOM     35  C   UNL     1      46.594  16.246  17.060  0.00  0.00    +0.086 A 
ATOM     38  C   UNL     1      46.630  14.881  16.783  0.00  0.00    +0.094 A 
ATOM     41  C   UNL     1      46.269  13.960  17.764  0.00  0.00    +0.086 A 
BRANCH  35  36
ATOM     36  O   UNL     1      46.946  17.142  16.100  0.00  0.00    -0.478 OA
ATOM     37  H   UNL     1      47.570  16.795  15.447  0.00  0.00    +0.393 HD
ENDBRANCH  35  36
BRANCH  38  39
ATOM     39  O   UNL     1      47.017  14.448  15.555  0.00  0.00    -0.473 OA
ATOM     40  H   UNL     1      46.364  14.605  14.859  0.00  0.00    +0.391 HD
ENDBRANCH  38  39
BRANCH  41  42
ATOM     42  O   UNL     1      46.305  12.628  17.491  0.00  0.00    -0.478 OA
ATOM     43  H   UNL     1      45.507  12.151  17.754  0.00  0.00    +0.393 HD
ENDBRANCH  41  42
ENDBRANCH   3   2
ENDBRANCH   4   3
ENDBRANCH   5   4
ENDBRANCH   6   5
BRANCH  16  17
ATOM     17  O   UNL     1      47.444  20.831  18.888  0.00  0.00    -0.338 OA
BRANCH  17  18
ATOM     18  C   UNL     1      48.724  20.672  19.277  0.00  0.00    +0.517 C 
ATOM     31  O   UNL     1      49.057  20.974  20.406  0.00  0.00    -0.474 OA
BRANCH  18  19
ATOM     19  C   UNL     1      49.721  20.133  18.334  0.00  0.00    -0.103 A 
ATOM     20  C   UNL     1      50.609  20.994  17.684  0.00  0.00    +0.081 A 
ATOM     21  C   UNL     1      51.542  20.486  16.800  0.00  0.00    +0.089 A 
ATOM     24  C   UNL     1      51.599  19.116  16.558  0.00  0.00    +0.095 A 
ATOM     27  C   UNL     1      50.716  18.255  17.204  0.00  0.00    +0.086 A 
ATOM     30  C   UNL     1      49.781  18.757  18.088  0.00  0.00    +0.071 A 
BRANCH  21  22
ATOM     22  O   UNL     1      52.406  21.324  16.167  0.00  0.00    -0.484 OA
ATOM     23  H   UNL     1      52.017  22.171  15.913  0.00  0.00    +0.400 HD
ENDBRANCH  21  22
BRANCH  24  25
ATOM     25  O   UNL     1      52.514  18.619  15.685  0.00  0.00    -0.477 OA
ATOM     26  H   UNL     1      52.168  18.474  14.793  0.00  0.00    +0.398 HD
ENDBRANCH  24  25
BRANCH  27  28
ATOM     28  O   UNL     1      50.774  16.917  16.966  0.00  0.00    -0.480 OA
ATOM     29  H   UNL     1      51.434  16.663  16.307  0.00  0.00    +0.394 HD
ENDBRANCH  27  28
ENDBRANCH  18  19
ENDBRANCH  17  18
ENDBRANCH  16  17
TORSDOF 16
ENDMDL
MODEL 2
REMARK VINA RESULT:      -6.8      0.052      1.423
REMARK  Name = ZINC15043216
REMARK  16 active torsions:
REMARK  status: ('A' for Active; 'I' for Inactive)
REMARK    1  A    between atoms: C2_2  and  C7_10
REMARK    2  A    between atoms: C4_4  and  O3_9
REMARK    3  A    between atoms: C5_5  and  O2_8
REMARK    4  A    between atoms: C6_6  and  O1_7
REMARK    5  A    between atoms: C7_10  and  O5_12
REMARK    6  A    between atoms: O5_12  and  C8_13
REMARK    7  A    between atoms: C8_13  and  C9_14
REMARK    8  A    between atoms: C10_16  and  O14_39
REMARK    9  A    between atoms: C11_18  and  O13_38
REMARK   10  A    between atoms: C12_20  and  O12_37
REMARK   11  A    between atoms: C13_22  and  O7_25
REMARK   12  A    between atoms: O7_25  and  C14_26
REMARK   13  A    between atoms: C14_26  and  C15_28
REMARK   14  A    between atoms: C17_30  and  O11_36
REMARK   15  A    between atoms: C18_31  and  O10_35
REMARK   16  A    between atoms: C19_32  and  O9_34
REMARK                            x       y       z     vdW  Elec       q    Type
REMARK                         _______ _______ _______ _____ _____    ______ ____
ROOT
ATOM      6  C   UNL     1      45.404  19.467  21.615  0.00  0.00    +0.209 C 
ATOM      7  C   UNL     1      44.004  19.783  21.083  0.00  0.00    +0.180 C 
ATOM     10  C   UNL     1      44.012  21.176  20.443  0.00  0.00    +0.167 C 
ATOM     13  C   UNL     1      45.076  21.214  19.342  0.00  0.00    +0.155 C 
ATOM     16  C   UNL     1      46.434  20.842  19.941  0.00  0.00    +0.326 C 
ATOM     32  O   UNL     1      46.349  19.550  20.546  0.00  0.00    -0.364 OA
ENDROOT
BRANCH   7   8
ATOM      8  O   UNL     1      43.633  18.810  20.105  0.00  0.00    -0.545 OA
ATOM      9  H   UNL     1      44.103  17.969  20.189  0.00  0.00    +0.392 HD
ENDBRANCH   7   8
BRANCH  10  11
ATOM     11  O   UNL     1      42.728  21.452  19.880  0.00  0.00    -0.552 OA
ATOM     12  H   UNL     1      42.763  21.923  19.036  0.00  0.00    +0.397 HD
ENDBRANCH  10  11
BRANCH  13  14
ATOM     14  O   UNL     1      45.142  22.529  18.787  0.00  0.00    -0.556 OA
ATOM     15  H   UNL     1      45.771  23.112  19.233  0.00  0.00    +0.394 HD
ENDBRANCH  13  14
BRANCH   6   5
ATOM      5  C   UNL     1      45.420  18.054  22.202  0.00  0.00    +0.276 C 
BRANCH   5   4
ATOM      4  O   UNL     1      46.122  17.161  21.298  0.00  0.00    -0.342 OA
BRANCH   4   3
ATOM      3  C   UNL     1      45.376  16.271  20.616  0.00  0.00    +0.515 C 
ATOM     33  O   UNL     1      44.342  15.850  21.095  0.00  0.00    -0.497 OA
BRANCH   3   2
ATOM      1  C   UNL     1      46.203  16.731  18.313  0.00  0.00    +0.080 A 
ATOM      2  C   UNL     1      45.815  15.806  19.286  0.00  0.00    -0.103 A 
ATOM     34  C   UNL     1      45.848  14.438  19.000  0.00  0.00    +0.078 A 
ATOM     35  C   UNL     1      46.254  14.005  17.752  0.00  0.00    +0.086 A 
ATOM     38  C   UNL     1      46.640  14.929  16.783  0.00  0.00    +0.094 A 
ATOM     41  C   UNL     1      46.613  16.291  17.069  0.00  0.00    +0.086 A 
BRANCH  35  36
ATOM     36  O   UNL     1      46.282  12.674  17.471  0.00  0.00    -0.478 OA
ATOM     37  H   UNL     1      45.971  12.113  18.194  0.00  0.00    +0.393 HD
ENDBRANCH  35  36
BRANCH  38  39
ATOM     39  O   UNL     1      47.043  14.499  15.559  0.00  0.00    -0.473 OA
ATOM     40  H   UNL     1      47.279  13.562  15.530  0.00  0.00    +0.391 HD
ENDBRANCH  38  39
BRANCH  41  42
ATOM     42  O   UNL     1      46.990  17.191  16.121  0.00  0.00    -0.478 OA
ATOM     43  H   UNL     1      47.946  17.308  16.048  0.00  0.00    +0.393 HD
ENDBRANCH  41  42
ENDBRANCH   3   2
ENDBRANCH   4   3
ENDBRANCH   5   4
ENDBRANCH   6   5
BRANCH  16  17
ATOM     17  O   UNL     1      47.437  20.820  18.892  0.00  0.00    -0.338 OA
BRANCH  17  18
ATOM     18  C   UNL     1      48.722  20.689  19.276  0.00  0.00    +0.517 C 
ATOM     31  O   UNL     1      49.056  21.012  20.398  0.00  0.00    -0.474 OA
BRANCH  18  19
ATOM     19  C   UNL     1      49.722  20.154  18.334  0.00  0.00    -0.103 A 
ATOM     20  C   UNL     1      50.591  21.022  17.667  0.00  0.00    +0.081 A 
ATOM     21  C   UNL     1      51.528  20.518  16.785  0.00  0.00    +0.089 A 
ATOM     24  C   UNL     1      51.607  19.146  16.561  0.00  0.00    +0.095 A 
ATOM     27  C   UNL     1      50.743  18.279  17.224  0.00  0.00    +0.086 A 
ATOM     30  C   UNL     1      49.805  18.777  18.107  0.00  0.00    +0.071 A 
BRANCH  21  22
ATOM     22  O   UNL     1      52.373  21.362  16.135  0.00  0.00    -0.484 OA
ATOM     23  H   UNL     1      52.548  22.187  16.609  0.00  0.00    +0.400 HD
ENDBRANCH  21  22
BRANCH  24  25
ATOM     25  O   UNL     1      52.525  18.654  15.689  0.00  0.00    -0.477 OA
ATOM     26  H   UNL     1      52.292  17.791  15.318  0.00  0.00    +0.398 HD
ENDBRANCH  24  25
BRANCH  27  28
ATOM     28  O   UNL     1      50.823  16.939  17.003  0.00  0.00    -0.480 OA
ATOM     29  H   UNL     1      50.394  16.648  16.187  0.00  0.00    +0.394 HD
ENDBRANCH  27  28
ENDBRANCH  18  19
ENDBRANCH  17  18
ENDBRANCH  16  17
TORSDOF 16
ENDMDL
MODEL 3
REMARK VINA RESULT:      -6.7      1.943      7.254
REMARK  Name = ZINC15043216
REMARK  16 active torsions:
REMARK  status: ('A' for Active; 'I' for Inactive)
REMARK    1  A    between atoms: C2_2  and  C7_10
REMARK    2  A    between atoms: C4_4  and  O3_9
REMARK    3  A    between atoms: C5_5  and  O2_8
REMARK    4  A    between atoms: C6_6  and  O1_7
REMARK    5  A    between atoms: C7_10  and  O5_12
REMARK    6  A    between atoms: O5_12  and  C8_13
REMARK    7  A    between atoms: C8_13  and  C9_14
REMARK    8  A    between atoms: C10_16  and  O14_39
REMARK    9  A    between atoms: C11_18  and  O13_38
REMARK   10  A    between atoms: C12_20  and  O12_37
REMARK   11  A    between atoms: C13_22  and  O7_25
REMARK   12  A    between atoms: O7_25  and  C14_26
REMARK   13  A    between atoms: C14_26  and  C15_28
REMARK   14  A    between atoms: C17_30  and  O11_36
REMARK   15  A    between atoms: C18_31  and  O10_35
REMARK   16  A    between atoms: C19_32  and  O9_34
REMARK                            x       y       z     vdW  Elec       q    Type
REMARK                         _______ _______ _______ _____ _____    ______ ____
ROOT
ATOM      6  C   UNL     1      47.522  18.757  20.355  0.00  0.00    +0.209 C 
ATOM      7  C   UNL     1      48.165  17.595  19.593  0.00  0.00    +0.180 C 
ATOM     10  C   UNL     1      47.302  16.341  19.768  0.00  0.00    +0.167 C 
ATOM     13  C   UNL     1      45.880  16.640  19.283  0.00  0.00    +0.155 C 
ATOM     16  C   UNL     1      45.327  17.839  20.057  0.00  0.00    +0.326 C 
ATOM     32  O   UNL     1      46.192  18.962  19.877  0.00  0.00    -0.364 OA
ENDROOT
BRANCH   7   8
ATOM      8  O   UNL     1      48.253  17.924  18.205  0.00  0.00    -0.545 OA
ATOM      9  H   UNL     1      48.267  18.874  18.027  0.00  0.00    +0.392 HD
ENDBRANCH   7   8
BRANCH  10  11
ATOM     11  O   UNL     1      47.854  15.268  19.002  0.00  0.00    -0.552 OA
ATOM     12  H   UNL     1      47.418  15.130  18.150  0.00  0.00    +0.397 HD
ENDBRANCH  10  11
BRANCH  13  14
ATOM     14  O   UNL     1      45.049  15.500  19.509  0.00  0.00    -0.556 OA
ATOM     15  H   UNL     1      45.498  14.769  19.954  0.00  0.00    +0.394 HD
ENDBRANCH  13  14
BRANCH   6   5
ATOM      5  C   UNL     1      48.345  20.028  20.136  0.00  0.00    +0.276 C 
BRANCH   5   4
ATOM      4  O   UNL     1      49.527  19.992  20.979  0.00  0.00    -0.342 OA
BRANCH   4   3
ATOM      3  C   UNL     1      50.644  20.565  20.492  0.00  0.00    +0.515 C 
ATOM     33  O   UNL     1      51.235  21.401  21.148  0.00  0.00    -0.497 OA
BRANCH   3   2
ATOM      1  C   UNL     1      51.573  18.868  18.926  0.00  0.00    +0.080 A 
ATOM      2  C   UNL     1      51.151  20.179  19.161  0.00  0.00    -0.103 A 
ATOM     34  C   UNL     1      51.206  21.124  18.133  0.00  0.00    +0.078 A 
ATOM     35  C   UNL     1      51.686  20.762  16.889  0.00  0.00    +0.086 A 
ATOM     38  C   UNL     1      52.107  19.454  16.656  0.00  0.00    +0.094 A 
ATOM     41  C   UNL     1      52.048  18.510  17.678  0.00  0.00    +0.086 A 
BRANCH  35  36
ATOM     36  O   UNL     1      51.745  21.681  15.888  0.00  0.00    -0.478 OA
ATOM     37  H   UNL     1      52.629  22.043  15.738  0.00  0.00    +0.393 HD
ENDBRANCH  35  36
BRANCH  38  39
ATOM     39  O   UNL     1      52.574  19.100  15.431  0.00  0.00    -0.473 OA
ATOM     40  H   UNL     1      52.499  19.797  14.765  0.00  0.00    +0.391 HD
ENDBRANCH  38  39
BRANCH  41  42
ATOM     42  O   UNL     1      52.459  17.234  17.448  0.00  0.00    -0.478 OA
ATOM     43  H   UNL     1      53.416  17.139  17.356  0.00  0.00    +0.393 HD
ENDBRANCH  41  42
ENDBRANCH   3   2
ENDBRANCH   4   3
ENDBRANCH   5   4
ENDBRANCH   6   5
BRANCH  16  17
ATOM     17  O   UNL     1      44.001  18.164  19.564  0.00  0.00    -0.338 OA
BRANCH  17  18
ATOM     18  C   UNL     1      43.249  18.985  20.323  0.00  0.00    +0.517 C 
ATOM     31  O   UNL     1      42.779  18.583  21.369  0.00  0.00    -0.474 OA
BRANCH  18  19
ATOM     19  C   UNL     1      42.996  20.370  19.884  0.00  0.00    -0.103 A 
ATOM     20  C   UNL     1      41.819  20.683  19.200  0.00  0.00    +0.081 A 
ATOM     21  C   UNL     1      41.584  21.983  18.790  0.00  0.00    +0.089 A 
ATOM     24  C   UNL     1      42.518  22.978  19.059  0.00  0.00    +0.095 A 
ATOM     27  C   UNL     1      43.692  22.669  19.742  0.00  0.00    +0.086 A 
ATOM     30  C   UNL     1      43.932  21.372  20.154  0.00  0.00    +0.071 A 
BRANCH  21  22
ATOM     22  O   UNL     1      40.439  22.288  18.123  0.00  0.00    -0.484 OA
ATOM     23  H   UNL     1      40.155  21.610  17.495  0.00  0.00    +0.400 HD
ENDBRANCH  21  22
BRANCH  24  25
ATOM     25  O   UNL     1      42.288  24.253  18.651  0.00  0.00    -0.477 OA
ATOM     26  H   UNL     1      41.782  24.784  19.282  0.00  0.00    +0.398 HD
ENDBRANCH  24  25
BRANCH  27  28
ATOM     28  O   UNL     1      44.603  23.644  20.004  0.00  0.00    -0.480 OA
ATOM     29  H   UNL     1      45.276  23.392  20.650  0.00  0.00    +0.394 HD
ENDBRANCH  27  28
ENDBRANCH  18  19
ENDBRANCH  17  18
ENDBRANCH  16  17
TORSDOF 16
ENDMDL
MODEL 4
REMARK VINA RESULT:      -6.6      1.208      5.876
REMARK  Name = ZINC15043216
REMARK  16 active torsions:
REMARK  status: ('A' for Active; 'I' for Inactive)
REMARK    1  A    between atoms: C2_2  and  C7_10
REMARK    2  A    between atoms: C4_4  and  O3_9
REMARK    3  A    between atoms: C5_5  and  O2_8
REMARK    4  A    between atoms: C6_6  and  O1_7
REMARK    5  A    between atoms: C7_10  and  O5_12
REMARK    6  A    between atoms: O5_12  and  C8_13
REMARK    7  A    between atoms: C8_13  and  C9_14
REMARK    8  A    between atoms: C10_16  and  O14_39
REMARK    9  A    between atoms: C11_18  and  O13_38
REMARK   10  A    between atoms: C12_20  and  O12_37
REMARK   11  A    between atoms: C13_22  and  O7_25
REMARK   12  A    between atoms: O7_25  and  C14_26
REMARK   13  A    between atoms: C14_26  and  C15_28
REMARK   14  A    between atoms: C17_30  and  O11_36
REMARK   15  A    between atoms: C18_31  and  O10_35
REMARK   16  A    between atoms: C19_32  and  O9_34
REMARK                            x       y       z     vdW  Elec       q    Type
REMARK                         _______ _______ _______ _____ _____    ______ ____
ROOT
ATOM      6  C   UNL     1      46.367  21.169  20.010  0.00  0.00    +0.209 C 
ATOM      7  C   UNL     1      45.440  22.301  20.460  0.00  0.00    +0.180 C 
ATOM     10  C   UNL     1      44.104  22.181  19.720  0.00  0.00    +0.167 C 
ATOM     13  C   UNL     1      43.506  20.796  19.991  0.00  0.00    +0.155 C 
ATOM     16  C   UNL     1      44.508  19.723  19.559  0.00  0.00    +0.326 C 
ATOM     32  O   UNL     1      45.738  19.911  20.261  0.00  0.00    -0.364 OA
ENDROOT
BRANCH   7   8
ATOM      8  O   UNL     1      45.217  22.206  21.868  0.00  0.00    -0.545 OA
ATOM      9  H   UNL     1      45.648  21.446  22.283  0.00  0.00    +0.392 HD
ENDBRANCH   7   8
BRANCH  10  11
ATOM     11  O   UNL     1      43.205  23.190  20.186  0.00  0.00    -0.552 OA
ATOM     12  H   UNL     1      43.343  24.056  19.779  0.00  0.00    +0.397 HD
ENDBRANCH  10  11
BRANCH  13  14
ATOM     14  O   UNL     1      42.294  20.646  19.248  0.00  0.00    -0.556 OA
ATOM     15  H   UNL     1      42.393  20.806  18.300  0.00  0.00    +0.394 HD
ENDBRANCH  13  14
BRANCH   6   5
ATOM      5  C   UNL     1      47.683  21.247  20.787  0.00  0.00    +0.276 C 
BRANCH   5   4
ATOM      4  O   UNL     1      48.586  20.212  20.317  0.00  0.00    -0.342 OA
BRANCH   4   3
ATOM      3  C   UNL     1      49.886  20.543  20.197  0.00  0.00    +0.515 C 
ATOM     33  O   UNL     1      50.458  21.103  21.111  0.00  0.00    -0.497 OA
BRANCH   3   2
ATOM      1  C   UNL     1      50.810  21.211  17.984  0.00  0.00    +0.080 A 
ATOM      2  C   UNL     1      50.617  20.225  18.955  0.00  0.00    -0.103 A 
ATOM     34  C   UNL     1      51.121  18.937  18.751  0.00  0.00    +0.078 A 
ATOM     35  C   UNL     1      51.801  18.641  17.585  0.00  0.00    +0.086 A 
ATOM     38  C   UNL     1      51.992  19.625  16.618  0.00  0.00    +0.094 A 
ATOM     41  C   UNL     1      51.495  20.910  16.823  0.00  0.00    +0.086 A 
BRANCH  35  36
ATOM     36  O   UNL     1      52.289  17.387  17.383  0.00  0.00    -0.478 OA
ATOM     37  H   UNL     1      51.605  16.713  17.271  0.00  0.00    +0.393 HD
ENDBRANCH  35  36
BRANCH  38  39
ATOM     39  O   UNL     1      52.665  19.331  15.475  0.00  0.00    -0.473 OA
ATOM     40  H   UNL     1      53.349  19.975  15.245  0.00  0.00    +0.391 HD
ENDBRANCH  38  39
BRANCH  41  42
ATOM     42  O   UNL     1      51.683  21.869  15.877  0.00  0.00    -0.478 OA
ATOM     43  H   UNL     1      50.960  21.941  15.240  0.00  0.00    +0.393 HD
ENDBRANCH  41  42
ENDBRANCH   3   2
ENDBRANCH   4   3
ENDBRANCH   5   4
ENDBRANCH   6   5
BRANCH  16  17
ATOM     17  O   UNL     1      43.972  18.409  19.864  0.00  0.00    -0.338 OA
BRANCH  17  18
ATOM     18  C   UNL     1      44.858  17.443  20.174  0.00  0.00    +0.517 C 
ATOM     31  O   UNL     1      45.118  17.208  21.338  0.00  0.00    -0.474 OA
BRANCH  18  19
ATOM     19  C   UNL     1      45.513  16.670  19.102  0.00  0.00    -0.103 A 
ATOM     20  C   UNL     1      45.666  15.288  19.229  0.00  0.00    +0.081 A 
ATOM     21  C   UNL     1      46.281  14.566  18.223  0.00  0.00    +0.089 A 
ATOM     24  C   UNL     1      46.747  15.217  17.083  0.00  0.00    +0.095 A 
ATOM     27  C   UNL     1      46.596  16.595  16.955  0.00  0.00    +0.086 A 
ATOM     30  C   UNL     1      45.982  17.321  17.957  0.00  0.00    +0.071 A 
BRANCH  21  22
ATOM     22  O   UNL     1      46.431  13.220  18.345  0.00  0.00    -0.484 OA
ATOM     23  H   UNL     1      45.598  12.730  18.353  0.00  0.00    +0.400 HD
ENDBRANCH  21  22
BRANCH  24  25
ATOM     25  O   UNL     1      47.356  14.507  16.098  0.00  0.00    -0.477 OA
ATOM     26  H   UNL     1      47.353  14.946  15.236  0.00  0.00    +0.398 HD
ENDBRANCH  24  25
BRANCH  27  28
ATOM     28  O   UNL     1      47.052  17.227  15.840  0.00  0.00    -0.480 OA
ATOM     29  H   UNL     1      47.412  16.632  15.169  0.00  0.00    +0.394 HD
ENDBRANCH  27  28
ENDBRANCH  18  19
ENDBRANCH  17  18
ENDBRANCH  16  17
TORSDOF 16
ENDMDL
MODEL 5
REMARK VINA RESULT:      -6.6      2.032      5.527
REMARK  Name = ZINC15043216
REMARK  16 active torsions:
REMARK  status: ('A' for Active; 'I' for Inactive)
REMARK    1  A    between atoms: C2_2  and  C7_10
REMARK    2  A    between atoms: C4_4  and  O3_9
REMARK    3  A    between atoms: C5_5  and  O2_8
REMARK    4  A    between atoms: C6_6  and  O1_7
REMARK    5  A    between atoms: C7_10  and  O5_12
REMARK    6  A    between atoms: O5_12  and  C8_13
REMARK    7  A    between atoms: C8_13  and  C9_14
REMARK    8  A    between atoms: C10_16  and  O14_39
REMARK    9  A    between atoms: C11_18  and  O13_38
REMARK   10  A    between atoms: C12_20  and  O12_37
REMARK   11  A    between atoms: C13_22  and  O7_25
REMARK   12  A    between atoms: O7_25  and  C14_26
REMARK   13  A    between atoms: C14_26  and  C15_28
REMARK   14  A    between atoms: C17_30  and  O11_36
REMARK   15  A    between atoms: C18_31  and  O10_35
REMARK   16  A    between atoms: C19_32  and  O9_34
REMARK                            x       y       z     vdW  Elec       q    Type
REMARK                         _______ _______ _______ _____ _____    ______ ____
ROOT
ATOM      6  C   UNL     1      46.451  17.835  19.551  0.00  0.00    +0.209 C 
ATOM      7  C   UNL     1      45.808  17.119  18.360  0.00  0.00    +0.180 C 
ATOM     10  C   UNL     1      46.818  17.049  17.210  0.00  0.00    +0.167 C 
ATOM     13  C   UNL     1      48.085  16.341  17.700  0.00  0.00    +0.155 C 
ATOM     16  C   UNL     1      48.640  17.087  18.916  0.00  0.00    +0.326 C 
ATOM     32  O   UNL     1      47.640  17.143  19.936  0.00  0.00    -0.364 OA
ENDROOT
BRANCH   7   8
ATOM      8  O   UNL     1      45.430  15.796  18.745  0.00  0.00    -0.545 OA
ATOM      9  H   UNL     1      44.511  15.574  18.540  0.00  0.00    +0.392 HD
ENDBRANCH   7   8
BRANCH  10  11
ATOM     11  O   UNL     1      46.253  16.320  16.119  0.00  0.00    -0.552 OA
ATOM     12  H   UNL     1      46.166  15.371  16.284  0.00  0.00    +0.397 HD
ENDBRANCH  10  11
BRANCH  13  14
ATOM     14  O   UNL     1      49.062  16.335  16.657  0.00  0.00    -0.556 OA
ATOM     15  H   UNL     1      48.706  16.106  15.788  0.00  0.00    +0.394 HD
ENDBRANCH  13  14
BRANCH   6   5
ATOM      5  C   UNL     1      45.470  17.856  20.725  0.00  0.00    +0.276 C 
BRANCH   5   4
ATOM      4  O   UNL     1      44.112  17.744  20.224  0.00  0.00    -0.342 OA
BRANCH   4   3
ATOM      3  C   UNL     1      43.182  18.534  20.794  0.00  0.00    +0.515 C 
ATOM     33  O   UNL     1      42.742  18.259  21.894  0.00  0.00    -0.497 OA
BRANCH   3   2
ATOM      1  C   UNL     1      43.502  20.874  20.007  0.00  0.00    +0.080 A 
ATOM      2  C   UNL     1      42.697  19.734  20.086  0.00  0.00    -0.103 A 
ATOM     34  C   UNL     1      41.434  19.730  19.488  0.00  0.00    +0.078 A 
ATOM     35  C   UNL     1      40.980  20.857  18.829  0.00  0.00    +0.086 A 
ATOM     38  C   UNL     1      41.783  21.992  18.752  0.00  0.00    +0.094 A 
ATOM     41  C   UNL     1      43.044  21.996  19.343  0.00  0.00    +0.086 A 
BRANCH  35  36
ATOM     36  O   UNL     1      39.749  20.856  18.250  0.00  0.00    -0.478 OA
ATOM     37  H   UNL     1      39.199  21.612  18.495  0.00  0.00    +0.393 HD
ENDBRANCH  35  36
BRANCH  38  39
ATOM     39  O   UNL     1      41.336  23.097  18.100  0.00  0.00    -0.473 OA
ATOM     40  H   UNL     1      41.240  23.875  18.666  0.00  0.00    +0.391 HD
ENDBRANCH  38  39
BRANCH  41  42
ATOM     42  O   UNL     1      43.826  23.107  19.267  0.00  0.00    -0.478 OA
ATOM     43  H   UNL     1      43.470  23.872  19.737  0.00  0.00    +0.393 HD
ENDBRANCH  41  42
ENDBRANCH   3   2
ENDBRANCH   4   3
ENDBRANCH   5   4
ENDBRANCH   6   5
BRANCH  16  17
ATOM     17  O   UNL     1      49.808  16.390  19.421  0.00  0.00    -0.338 OA
BRANCH  17  18
ATOM     18  C   UNL     1      50.892  17.137  19.706  0.00  0.00    +0.517 C 
ATOM     31  O   UNL     1      51.524  16.927  20.723  0.00  0.00    -0.474 OA
BRANCH  18  19
ATOM     19  C   UNL     1      51.312  18.210  18.786  0.00  0.00    -0.103 A 
ATOM     20  C   UNL     1      51.648  17.908  17.464  0.00  0.00    +0.081 A 
ATOM     21  C   UNL     1      52.041  18.916  16.604  0.00  0.00    +0.089 A 
ATOM     24  C   UNL     1      52.102  20.232  17.054  0.00  0.00    +0.095 A 
ATOM     27  C   UNL     1      51.768  20.536  18.371  0.00  0.00    +0.086 A 
ATOM     30  C   UNL     1      51.374  19.533  19.235  0.00  0.00    +0.071 A 
BRANCH  21  22
ATOM     22  O   UNL     1      52.368  18.623  15.317  0.00  0.00    -0.484 OA
ATOM     23  H   UNL     1      53.318  18.527  15.164  0.00  0.00    +0.400 HD
ENDBRANCH  21  22
BRANCH  24  25
ATOM     25  O   UNL     1      52.494  21.221  16.208  0.00  0.00    -0.477 OA
ATOM     26  H   UNL     1      52.486  22.103  16.604  0.00  0.00    +0.398 HD
ENDBRANCH  24  25
BRANCH  27  28
ATOM     28  O   UNL     1      51.829  21.823  18.808  0.00  0.00    -0.480 OA
ATOM     29  H   UNL     1      51.644  21.928  19.751  0.00  0.00    +0.394 HD
ENDBRANCH  27  28
ENDBRANCH  18  19
ENDBRANCH  17  18
ENDBRANCH  16  17
TORSDOF 16
ENDMDL
MODEL 6
REMARK VINA RESULT:      -6.5      2.036      5.335
REMARK  Name = ZINC15043216
REMARK  16 active torsions:
REMARK  status: ('A' for Active; 'I' for Inactive)
REMARK    1  A    between atoms: C2_2  and  C7_10
REMARK    2  A    between atoms: C4_4  and  O3_9
REMARK    3  A    between atoms: C5_5  and  O2_8
REMARK    4  A    between atoms: C6_6  and  O1_7
REMARK    5  A    between atoms: C7_10  and  O5_12
REMARK    6  A    between atoms: O5_12  and  C8_13
REMARK    7  A    between atoms: C8_13  and  C9_14
REMARK    8  A    between atoms: C10_16  and  O14_39
REMARK    9  A    between atoms: C11_18  and  O13_38
REMARK   10  A    between atoms: C12_20  and  O12_37
REMARK   11  A    between atoms: C13_22  and  O7_25
REMARK   12  A    between atoms: O7_25  and  C14_26
REMARK   13  A    between atoms: C14_26  and  C15_28
REMARK   14  A    between atoms: C17_30  and  O11_36
REMARK   15  A    between atoms: C18_31  and  O10_35
REMARK   16  A    between atoms: C19_32  and  O9_34
REMARK                            x       y       z     vdW  Elec       q    Type
REMARK                         _______ _______ _______ _____ _____    ______ ____
ROOT
ATOM      6  C   UNL     1      46.418  17.756  19.583  0.00  0.00    +0.209 C 
ATOM      7  C   UNL     1      45.782  17.041  18.388  0.00  0.00    +0.180 C 
ATOM     10  C   UNL     1      46.784  17.012  17.228  0.00  0.00    +0.167 C 
ATOM     13  C   UNL     1      48.072  16.328  17.698  0.00  0.00    +0.155 C 
ATOM     16  C   UNL     1      48.619  17.071  18.919  0.00  0.00    +0.326 C 
ATOM     32  O   UNL     1      47.627  17.088  19.948  0.00  0.00    -0.364 OA
ENDROOT
BRANCH   7   8
ATOM      8  O   UNL     1      45.440  15.704  18.757  0.00  0.00    -0.545 OA
ATOM      9  H   UNL     1      44.814  15.647  19.492  0.00  0.00    +0.392 HD
ENDBRANCH   7   8
BRANCH  10  11
ATOM     11  O   UNL     1      46.227  16.284  16.132  0.00  0.00    -0.552 OA
ATOM     12  H   UNL     1      46.038  16.828  15.355  0.00  0.00    +0.397 HD
ENDBRANCH  10  11
BRANCH  13  14
ATOM     14  O   UNL     1      49.039  16.360  16.646  0.00  0.00    -0.556 OA
ATOM     15  H   UNL     1      49.810  15.800  16.805  0.00  0.00    +0.394 HD
ENDBRANCH  13  14
BRANCH   6   5
ATOM      5  C   UNL     1      45.447  17.737  20.765  0.00  0.00    +0.276 C 
BRANCH   5   4
ATOM      4  O   UNL     1      44.082  17.701  20.271  0.00  0.00    -0.342 OA
BRANCH   4   3
ATOM      3  C   UNL     1      43.198  18.532  20.855  0.00  0.00    +0.515 C 
ATOM     33  O   UNL     1      42.807  18.308  21.984  0.00  0.00    -0.497 OA
BRANCH   3   2
ATOM      1  C   UNL     1      41.459  19.676  19.490  0.00  0.00    +0.080 A 
ATOM      2  C   UNL     1      42.703  19.715  20.126  0.00  0.00    -0.103 A 
ATOM     34  C   UNL     1      43.476  20.878  20.074  0.00  0.00    +0.078 A 
ATOM     35  C   UNL     1      43.012  21.983  19.386  0.00  0.00    +0.086 A 
ATOM     38  C   UNL     1      41.772  21.942  18.752  0.00  0.00    +0.094 A 
ATOM     41  C   UNL     1      40.999  20.786  18.807  0.00  0.00    +0.086 A 
BRANCH  35  36
ATOM     36  O   UNL     1      43.766  23.115  19.331  0.00  0.00    -0.478 OA
ATOM     37  H   UNL     1      44.700  22.975  19.535  0.00  0.00    +0.393 HD
ENDBRANCH  35  36
BRANCH  38  39
ATOM     39  O   UNL     1      41.318  23.032  18.080  0.00  0.00    -0.473 OA
ATOM     40  H   UNL     1      41.886  23.307  17.348  0.00  0.00    +0.391 HD
ENDBRANCH  38  39
BRANCH  41  42
ATOM     42  O   UNL     1      39.788  20.748  18.187  0.00  0.00    -0.478 OA
ATOM     43  H   UNL     1      39.685  20.012  17.570  0.00  0.00    +0.393 HD
ENDBRANCH  41  42
ENDBRANCH   3   2
ENDBRANCH   4   3
ENDBRANCH   5   4
ENDBRANCH   6   5
BRANCH  16  17
ATOM     17  O   UNL     1      49.808  16.395  19.404  0.00  0.00    -0.338 OA
BRANCH  17  18
ATOM     18  C   UNL     1      50.863  17.168  19.726  0.00  0.00    +0.517 C 
ATOM     31  O   UNL     1      51.454  16.983  20.772  0.00  0.00    -0.474 OA
BRANCH  18  19
ATOM     19  C   UNL     1      51.301  18.239  18.812  0.00  0.00    -0.103 A 
ATOM     20  C   UNL     1      51.390  19.556  19.268  0.00  0.00    +0.081 A 
ATOM     21  C   UNL     1      51.801  20.558  18.408  0.00  0.00    +0.089 A 
ATOM     24  C   UNL     1      52.127  20.254  17.089  0.00  0.00    +0.095 A 
ATOM     27  C   UNL     1      52.039  18.942  16.632  0.00  0.00    +0.086 A 
ATOM     30  C   UNL     1      51.629  17.937  17.487  0.00  0.00    +0.071 A 
BRANCH  21  22
ATOM     22  O   UNL     1      51.887  21.841  18.851  0.00  0.00    -0.484 OA
ATOM     23  H   UNL     1      51.573  21.967  19.756  0.00  0.00    +0.400 HD
ENDBRANCH  21  22
BRANCH  24  25
ATOM     25  O   UNL     1      52.525  21.241  16.244  0.00  0.00    -0.477 OA
ATOM     26  H   UNL     1      53.274  21.759  16.569  0.00  0.00    +0.398 HD
ENDBRANCH  24  25
BRANCH  27  28
ATOM     28  O   UNL     1      52.358  18.648  15.343  0.00  0.00    -0.480 OA
ATOM     29  H   UNL     1      53.025  17.955  15.250  0.00  0.00    +0.394 HD
ENDBRANCH  27  28
ENDBRANCH  18  19
ENDBRANCH  17  18
ENDBRANCH  16  17
TORSDOF 16
ENDMDL
MODEL 7
REMARK VINA RESULT:      -6.5      2.097      7.016
REMARK  Name = ZINC15043216
REMARK  16 active torsions:
REMARK  status: ('A' for Active; 'I' for Inactive)
REMARK    1  A    between atoms: C2_2  and  C7_10
REMARK    2  A    between atoms: C4_4  and  O3_9
REMARK    3  A    between atoms: C5_5  and  O2_8
REMARK    4  A    between atoms: C6_6  and  O1_7
REMARK    5  A    between atoms: C7_10  and  O5_12
REMARK    6  A    between atoms: O5_12  and  C8_13
REMARK    7  A    between atoms: C8_13  and  C9_14
REMARK    8  A    between atoms: C10_16  and  O14_39
REMARK    9  A    between atoms: C11_18  and  O13_38
REMARK   10  A    between atoms: C12_20  and  O12_37
REMARK   11  A    between atoms: C13_22  and  O7_25
REMARK   12  A    between atoms: O7_25  and  C14_26
REMARK   13  A    between atoms: C14_26  and  C15_28
REMARK   14  A    between atoms: C17_30  and  O11_36
REMARK   15  A    between atoms: C18_31  and  O10_35
REMARK   16  A    between atoms: C19_32  and  O9_34
REMARK                            x       y       z     vdW  Elec       q    Type
REMARK                         _______ _______ _______ _____ _____    ______ ____
ROOT
ATOM      6  C   UNL     1      51.473  20.113  19.551  0.00  0.00    +0.209 C 
ATOM      7  C   UNL     1      51.519  21.085  18.369  0.00  0.00    +0.180 C 
ATOM     10  C   UNL     1      52.241  20.416  17.195  0.00  0.00    +0.167 C 
ATOM     13  C   UNL     1      51.523  19.108  16.847  0.00  0.00    +0.155 C 
ATOM     16  C   UNL     1      51.478  18.213  18.087  0.00  0.00    +0.326 C 
ATOM     32  O   UNL     1      50.821  18.907  19.150  0.00  0.00    -0.364 OA
ENDROOT
BRANCH   7   8
ATOM      8  O   UNL     1      50.187  21.426  17.979  0.00  0.00    -0.545 OA
ATOM      9  H   UNL     1      49.642  20.665  17.737  0.00  0.00    +0.392 HD
ENDBRANCH   7   8
BRANCH  10  11
ATOM     11  O   UNL     1      52.226  21.287  16.063  0.00  0.00    -0.552 OA
ATOM     12  H   UNL     1      52.129  22.222  16.288  0.00  0.00    +0.397 HD
ENDBRANCH  10  11
BRANCH  13  14
ATOM     14  O   UNL     1      52.231  18.439  15.800  0.00  0.00    -0.556 OA
ATOM     15  H   UNL     1      53.183  18.608  15.801  0.00  0.00    +0.394 HD
ENDBRANCH  13  14
BRANCH   6   5
ATOM      5  C   UNL     1      50.701  20.751  20.707  0.00  0.00    +0.276 C 
BRANCH   5   4
ATOM      4  O   UNL     1      49.275  20.624  20.467  0.00  0.00    -0.342 OA
BRANCH   4   3
ATOM      3  C   UNL     1      48.451  21.254  21.326  0.00  0.00    +0.515 C 
ATOM     33  O   UNL     1      48.867  21.625  22.406  0.00  0.00    -0.497 OA
BRANCH   3   2
ATOM      1  C   UNL     1      46.478  20.818  19.873  0.00  0.00    +0.080 A 
ATOM      2  C   UNL     1      47.044  21.495  20.957  0.00  0.00    -0.103 A 
ATOM     34  C   UNL     1      46.271  22.398  21.694  0.00  0.00    +0.078 A 
ATOM     35  C   UNL     1      44.955  22.625  21.343  0.00  0.00    +0.086 A 
ATOM     38  C   UNL     1      44.393  21.950  20.262  0.00  0.00    +0.094 A 
ATOM     41  C   UNL     1      45.159  21.046  19.530  0.00  0.00    +0.086 A 
BRANCH  35  36
ATOM     36  O   UNL     1      44.204  23.507  22.057  0.00  0.00    -0.478 OA
ATOM     37  H   UNL     1      44.335  23.451  23.013  0.00  0.00    +0.393 HD
ENDBRANCH  35  36
BRANCH  38  39
ATOM     39  O   UNL     1      43.097  22.173  19.922  0.00  0.00    -0.473 OA
ATOM     40  H   UNL     1      42.865  23.109  19.849  0.00  0.00    +0.391 HD
ENDBRANCH  38  39
BRANCH  41  42
ATOM     42  O   UNL     1      44.608  20.388  18.474  0.00  0.00    -0.478 OA
ATOM     43  H   UNL     1      44.930  19.484  18.363  0.00  0.00    +0.393 HD
ENDBRANCH  41  42
ENDBRANCH   3   2
ENDBRANCH   4   3
ENDBRANCH   5   4
ENDBRANCH   6   5
BRANCH  16  17
ATOM     17  O   UNL     1      50.750  16.996  17.781  0.00  0.00    -0.338 OA
BRANCH  17  18
ATOM     18  C   UNL     1      50.097  16.399  18.797  0.00  0.00    +0.517 C 
ATOM     31  O   UNL     1      50.689  15.632  19.531  0.00  0.00    -0.474 OA
BRANCH  18  19
ATOM     19  C   UNL     1      48.666  16.675  19.019  0.00  0.00    -0.103 A 
ATOM     20  C   UNL     1      48.076  16.368  20.248  0.00  0.00    +0.081 A 
ATOM     21  C   UNL     1      46.734  16.628  20.453  0.00  0.00    +0.089 A 
ATOM     24  C   UNL     1      45.970  17.196  19.437  0.00  0.00    +0.095 A 
ATOM     27  C   UNL     1      46.556  17.502  18.211  0.00  0.00    +0.086 A 
ATOM     30  C   UNL     1      47.896  17.245  18.000  0.00  0.00    +0.071 A 
BRANCH  21  22
ATOM     22  O   UNL     1      46.159  16.330  21.649  0.00  0.00    -0.484 OA
ATOM     23  H   UNL     1      45.517  16.986  21.952  0.00  0.00    +0.400 HD
ENDBRANCH  21  22
BRANCH  24  25
ATOM     25  O   UNL     1      44.650  17.445  19.639  0.00  0.00    -0.477 OA
ATOM     26  H   UNL     1      44.182  17.751  18.850  0.00  0.00    +0.398 HD
ENDBRANCH  24  25
BRANCH  27  28
ATOM     28  O   UNL     1      45.807  18.056  17.221  0.00  0.00    -0.480 OA
ATOM     29  H   UNL     1      45.226  18.770  17.518  0.00  0.00    +0.394 HD
ENDBRANCH  27  28
ENDBRANCH  18  19
ENDBRANCH  17  18
ENDBRANCH  16  17
TORSDOF 16
ENDMDL
MODEL 8
REMARK VINA RESULT:      -6.4      2.103      7.075
REMARK  Name = ZINC15043216
REMARK  16 active torsions:
REMARK  status: ('A' for Active; 'I' for Inactive)
REMARK    1  A    between atoms: C2_2  and  C7_10
REMARK    2  A    between atoms: C4_4  and  O3_9
REMARK    3  A    between atoms: C5_5  and  O2_8
REMARK    4  A    between atoms: C6_6  and  O1_7
REMARK    5  A    between atoms: C7_10  and  O5_12
REMARK    6  A    between atoms: O5_12  and  C8_13
REMARK    7  A    between atoms: C8_13  and  C9_14
REMARK    8  A    between atoms: C10_16  and  O14_39
REMARK    9  A    between atoms: C11_18  and  O13_38
REMARK   10  A    between atoms: C12_20  and  O12_37
REMARK   11  A    between atoms: C13_22  and  O7_25
REMARK   12  A    between atoms: O7_25  and  C14_26
REMARK   13  A    between atoms: C14_26  and  C15_28
REMARK   14  A    between atoms: C17_30  and  O11_36
REMARK   15  A    between atoms: C18_31  and  O10_35
REMARK   16  A    between atoms: C19_32  and  O9_34
REMARK                            x       y       z     vdW  Elec       q    Type
REMARK                         _______ _______ _______ _____ _____    ______ ____
ROOT
ATOM      6  C   UNL     1      51.507  20.073  19.406  0.00  0.00    +0.209 C 
ATOM      7  C   UNL     1      51.625  21.063  18.243  0.00  0.00    +0.180 C 
ATOM     10  C   UNL     1      52.334  20.378  17.070  0.00  0.00    +0.167 C 
ATOM     13  C   UNL     1      51.557  19.116  16.684  0.00  0.00    +0.155 C 
ATOM     16  C   UNL     1      51.443  18.202  17.906  0.00  0.00    +0.326 C 
ATOM     32  O   UNL     1      50.802  18.909  18.970  0.00  0.00    -0.364 OA
ENDROOT
BRANCH   7   8
ATOM      8  O   UNL     1      50.320  21.478  17.836  0.00  0.00    -0.545 OA
ATOM      9  H   UNL     1      50.003  21.046  17.031  0.00  0.00    +0.392 HD
ENDBRANCH   7   8
BRANCH  10  11
ATOM     11  O   UNL     1      52.384  21.270  15.955  0.00  0.00    -0.552 OA
ATOM     12  H   UNL     1      53.124  21.106  15.354  0.00  0.00    +0.397 HD
ENDBRANCH  10  11
BRANCH  13  14
ATOM     14  O   UNL     1      52.250  18.431  15.638  0.00  0.00    -0.556 OA
ATOM     15  H   UNL     1      52.627  19.017  14.968  0.00  0.00    +0.394 HD
ENDBRANCH  13  14
BRANCH   6   5
ATOM      5  C   UNL     1      50.747  20.729  20.560  0.00  0.00    +0.276 C 
BRANCH   5   4
ATOM      4  O   UNL     1      49.318  20.601  20.335  0.00  0.00    -0.342 OA
BRANCH   4   3
ATOM      3  C   UNL     1      48.502  21.144  21.258  0.00  0.00    +0.515 C 
ATOM     33  O   UNL     1      48.905  21.334  22.389  0.00  0.00    -0.497 OA
BRANCH   3   2
ATOM      1  C   UNL     1      46.481  22.567  21.551  0.00  0.00    +0.080 A 
ATOM      2  C   UNL     1      47.120  21.510  20.897  0.00  0.00    -0.103 A 
ATOM     34  C   UNL     1      46.448  20.802  19.896  0.00  0.00    +0.078 A 
ATOM     35  C   UNL     1      45.151  21.143  19.563  0.00  0.00    +0.086 A 
ATOM     38  C   UNL     1      44.516  22.197  20.217  0.00  0.00    +0.094 A 
ATOM     41  C   UNL     1      45.185  22.906  21.210  0.00  0.00    +0.086 A 
BRANCH  35  36
ATOM     36  O   UNL     1      44.494  20.452  18.593  0.00  0.00    -0.478 OA
ATOM     37  H   UNL     1      44.354  19.519  18.801  0.00  0.00    +0.393 HD
ENDBRANCH  35  36
BRANCH  38  39
ATOM     39  O   UNL     1      43.242  22.532  19.884  0.00  0.00    -0.473 OA
ATOM     40  H   UNL     1      42.572  22.169  20.479  0.00  0.00    +0.391 HD
ENDBRANCH  38  39
BRANCH  41  42
ATOM     42  O   UNL     1      44.563  23.935  21.847  0.00  0.00    -0.478 OA
ATOM     43  H   UNL     1      44.234  23.711  22.728  0.00  0.00    +0.393 HD
ENDBRANCH  41  42
ENDBRANCH   3   2
ENDBRANCH   4   3
ENDBRANCH   5   4
ENDBRANCH   6   5
BRANCH  16  17
ATOM     17  O   UNL     1      50.659  17.030  17.563  0.00  0.00    -0.338 OA
BRANCH  17  18
ATOM     18  C   UNL     1      50.037  16.391  18.574  0.00  0.00    +0.517 C 
ATOM     31  O   UNL     1      50.649  15.592  19.254  0.00  0.00    -0.474 OA
BRANCH  18  19
ATOM     19  C   UNL     1      48.615  16.661  18.853  0.00  0.00    -0.103 A 
ATOM     20  C   UNL     1      47.831  17.332  17.911  0.00  0.00    +0.081 A 
ATOM     21  C   UNL     1      46.497  17.583  18.175  0.00  0.00    +0.089 A 
ATOM     24  C   UNL     1      45.935  17.168  19.379  0.00  0.00    +0.095 A 
ATOM     27  C   UNL     1      46.714  16.499  20.320  0.00  0.00    +0.086 A 
ATOM     30  C   UNL     1      48.047  16.245  20.061  0.00  0.00    +0.071 A 
BRANCH  21  22
ATOM     22  O   UNL     1      45.734  18.236  17.259  0.00  0.00    -0.484 OA
ATOM     23  H   UNL     1      45.366  17.663  16.572  0.00  0.00    +0.400 HD
ENDBRANCH  21  22
BRANCH  24  25
ATOM     25  O   UNL     1      44.626  17.421  19.639  0.00  0.00    -0.477 OA
ATOM     26  H   UNL     1      44.482  18.050  20.359  0.00  0.00    +0.398 HD
ENDBRANCH  24  25
BRANCH  27  28
ATOM     28  O   UNL     1      46.162  16.094  21.495  0.00  0.00    -0.480 OA
ATOM     29  H   UNL     1      46.796  16.006  22.219  0.00  0.00    +0.394 HD
ENDBRANCH  27  28
ENDBRANCH  18  19
ENDBRANCH  17  18
ENDBRANCH  16  17
TORSDOF 16
ENDMDL
MODEL 9
REMARK VINA RESULT:      -6.4      1.883      7.012
REMARK  Name = ZINC15043216
REMARK  16 active torsions:
REMARK  status: ('A' for Active; 'I' for Inactive)
REMARK    1  A    between atoms: C2_2  and  C7_10
REMARK    2  A    between atoms: C4_4  and  O3_9
REMARK    3  A    between atoms: C5_5  and  O2_8
REMARK    4  A    between atoms: C6_6  and  O1_7
REMARK    5  A    between atoms: C7_10  and  O5_12
REMARK    6  A    between atoms: O5_12  and  C8_13
REMARK    7  A    between atoms: C8_13  and  C9_14
REMARK    8  A    between atoms: C10_16  and  O14_39
REMARK    9  A    between atoms: C11_18  and  O13_38
REMARK   10  A    between atoms: C12_20  and  O12_37
REMARK   11  A    between atoms: C13_22  and  O7_25
REMARK   12  A    between atoms: O7_25  and  C14_26
REMARK   13  A    between atoms: C14_26  and  C15_28
REMARK   14  A    between atoms: C17_30  and  O11_36
REMARK   15  A    between atoms: C18_31  and  O10_35
REMARK   16  A    between atoms: C19_32  and  O9_34
REMARK                            x       y       z     vdW  Elec       q    Type
REMARK                         _______ _______ _______ _____ _____    ______ ____
ROOT
ATOM      6  C   UNL     1      48.839  15.491  17.857  0.00  0.00    +0.209 C 
ATOM      7  C   UNL     1      47.643  14.550  17.692  0.00  0.00    +0.180 C 
ATOM     10  C   UNL     1      46.522  14.991  18.639  0.00  0.00    +0.167 C 
ATOM     13  C   UNL     1      46.161  16.450  18.342  0.00  0.00    +0.155 C 
ATOM     16  C   UNL     1      47.415  17.316  18.482  0.00  0.00    +0.326 C 
ATOM     32  O   UNL     1      48.427  16.834  17.597  0.00  0.00    -0.364 OA
ENDROOT
BRANCH   7   8
ATOM      8  O   UNL     1      47.176  14.603  16.343  0.00  0.00    -0.545 OA
ATOM      9  H   UNL     1      47.310  13.783  15.848  0.00  0.00    +0.392 HD
ENDBRANCH   7   8
BRANCH  10  11
ATOM     11  O   UNL     1      45.374  14.163  18.441  0.00  0.00    -0.552 OA
ATOM     12  H   UNL     1      44.827  14.056  19.231  0.00  0.00    +0.397 HD
ENDBRANCH  10  11
BRANCH  13  14
ATOM     14  O   UNL     1      45.167  16.893  19.268  0.00  0.00    -0.556 OA
ATOM     15  H   UNL     1      45.108  17.855  19.350  0.00  0.00    +0.394 HD
ENDBRANCH  13  14
BRANCH   6   5
ATOM      5  C   UNL     1      49.940  15.094  16.872  0.00  0.00    +0.276 C 
BRANCH   5   4
ATOM      4  O   UNL     1      51.213  15.624  17.329  0.00  0.00    -0.342 OA
BRANCH   4   3
ATOM      3  C   UNL     1      51.755  16.622  16.606  0.00  0.00    +0.515 C 
ATOM     33  O   UNL     1      52.142  16.412  15.472  0.00  0.00    -0.497 OA
BRANCH   3   2
ATOM      1  C   UNL     1      51.991  18.130  18.572  0.00  0.00    +0.080 A 
ATOM      2  C   UNL     1      51.881  17.972  17.188  0.00  0.00    -0.103 A 
ATOM     34  C   UNL     1      51.895  19.094  16.355  0.00  0.00    +0.078 A 
ATOM     35  C   UNL     1      52.008  20.358  16.903  0.00  0.00    +0.086 A 
ATOM     38  C   UNL     1      52.117  20.513  18.283  0.00  0.00    +0.094 A 
ATOM     41  C   UNL     1      52.108  19.396  19.114  0.00  0.00    +0.086 A 
BRANCH  35  36
ATOM     36  O   UNL     1      52.017  21.451  16.094  0.00  0.00    -0.478 OA
ATOM     37  H   UNL     1      52.840  21.567  15.599  0.00  0.00    +0.393 HD
ENDBRANCH  35  36
BRANCH  38  39
ATOM     39  O   UNL     1      52.232  21.756  18.819  0.00  0.00    -0.473 OA
ATOM     40  H   UNL     1      51.570  21.956  19.495  0.00  0.00    +0.391 HD
ENDBRANCH  38  39
BRANCH  41  42
ATOM     42  O   UNL     1      52.214  19.550  20.461  0.00  0.00    -0.478 OA
ATOM     43  H   UNL     1      51.540  19.077  20.967  0.00  0.00    +0.393 HD
ENDBRANCH  41  42
ENDBRANCH   3   2
ENDBRANCH   4   3
ENDBRANCH   5   4
ENDBRANCH   6   5
BRANCH  16  17
ATOM     17  O   UNL     1      47.093  18.692  18.147  0.00  0.00    -0.338 OA
BRANCH  17  18
ATOM     18  C   UNL     1      47.492  19.643  19.013  0.00  0.00    +0.517 C 
ATOM     31  O   UNL     1      48.657  19.703  19.354  0.00  0.00    -0.474 OA
BRANCH  18  19
ATOM     19  C   UNL     1      46.516  20.611  19.548  0.00  0.00    -0.103 A 
ATOM     20  C   UNL     1      46.884  21.478  20.580  0.00  0.00    +0.081 A 
ATOM     21  C   UNL     1      45.967  22.384  21.079  0.00  0.00    +0.089 A 
ATOM     24  C   UNL     1      44.679  22.434  20.554  0.00  0.00    +0.095 A 
ATOM     27  C   UNL     1      44.310  21.571  19.525  0.00  0.00    +0.086 A 
ATOM     30  C   UNL     1      45.222  20.663  19.022  0.00  0.00    +0.071 A 
BRANCH  21  22
ATOM     22  O   UNL     1      46.324  23.228  22.085  0.00  0.00    -0.484 OA
ATOM     23  H   UNL     1      45.675  23.285  22.799  0.00  0.00    +0.400 HD
ENDBRANCH  21  22
BRANCH  24  25
ATOM     25  O   UNL     1      43.778  23.321  21.050  0.00  0.00    -0.477 OA
ATOM     26  H   UNL     1      42.966  23.391  20.530  0.00  0.00    +0.398 HD
ENDBRANCH  24  25
BRANCH  27  28
ATOM     28  O   UNL     1      43.051  21.622  19.014  0.00  0.00    -0.480 OA
ATOM     29  H   UNL     1      42.812  22.481  18.640  0.00  0.00    +0.394 HD
ENDBRANCH  27  28
ENDBRANCH  18  19
ENDBRANCH  17  18
ENDBRANCH  16  17
TORSDOF 16
ENDMDL
