MODEL 1
REMARK VINA RESULT:      -7.3      0.000      0.000
REMARK  Name = ZINC95486114
REMARK  9 active torsions:
REMARK  status: ('A' for Active; 'I' for Inactive)
REMARK    1  A    between atoms: C1_1  and  C2_2
REMARK    2  A    between atoms: C5_5  and  O4_37
REMARK    3  A    between atoms: C6_7  and  C29_35
REMARK    4  A    between atoms: C6_7  and  O3_36
REMARK    5  A    between atoms: C10_12  and  C28_34
REMARK    6  A    between atoms: C14_17  and  C27_33
REMARK    7  A    between atoms: C18_21  and  C26_30
REMARK    8  A    between atoms: C21_25  and  C24_28
REMARK    9  A    between atoms: C21_25  and  C25_29
REMARK                            x       y       z     vdW  Elec       q    Type
REMARK                         _______ _______ _______ _____ _____    ______ ____
ROOT
ATOM      1  C   UNL     1      50.469  18.273  20.105  0.00  0.00    +0.034 C 
ATOM      2  C   UNL     1      49.867  19.540  19.523  0.00  0.00    -0.036 C 
ATOM      3  C   UNL     1      50.377  19.683  18.076  0.00  0.00    +0.015 C 
ATOM      4  C   UNL     1      51.895  19.846  18.073  0.00  0.00    -0.012 C 
ATOM      5  C   UNL     1      52.298  21.096  18.845  0.00  0.00    +0.136 C 
ATOM      8  C   UNL     1      51.772  21.046  20.283  0.00  0.00    +0.161 C 
ATOM     11  C   UNL     1      52.061  22.421  20.917  0.00  0.00    +0.002 C 
ATOM     12  C   UNL     1      48.338  19.507  19.486  0.00  0.00    -0.001 C 
ATOM     13  C   UNL     1      47.771  18.418  18.607  0.00  0.00    +0.004 C 
ATOM     14  C   UNL     1      46.256  18.476  18.460  0.00  0.00    +0.016 C 
ATOM     15  C   UNL     1      45.581  19.571  19.279  0.00  0.00    +0.015 C 
ATOM     16  C   UNL     1      45.850  20.909  18.580  0.00  0.00    +0.005 C 
ATOM     17  C   UNL     1      46.161  19.628  20.658  0.00  0.00    -0.115 C 
ATOM     18  C   UNL     1      45.443  19.721  21.746  0.00  0.00    -0.015 C 
ATOM     19  C   UNL     1      43.937  19.689  21.698  0.00  0.00    +0.048 C 
ATOM     20  C   UNL     1      43.558  18.745  20.551  0.00  0.00    -0.113 C 
ATOM     24  C   UNL     1      42.042  18.558  20.520  0.00  0.00    +0.015 C 
ATOM     25  C   UNL     1      41.352  19.900  20.318  0.00  0.00    +0.002 C 
ATOM     26  C   UNL     1      41.810  20.533  19.010  0.00  0.00    -0.065 C 
ATOM     27  C   UNL     1      41.326  19.703  17.817  0.00  0.00    +0.016 C 
ATOM     28  C   UNL     1      41.194  21.938  18.904  0.00  0.00    +0.006 C 
ATOM     29  C   UNL     1      43.332  20.675  18.964  0.00  0.00    +0.017 C 
ATOM     30  C   UNL     1      44.063  19.372  19.256  0.00  0.00    +0.019 C 
ATOM     31  C   UNL     1      47.675  19.549  20.849  0.00  0.00    +0.003 C 
ATOM     32  C   UNL     1      47.931  18.291  21.695  0.00  0.00    +0.032 C 
ATOM     33  C   UNL     1      48.154  20.783  21.613  0.00  0.00    +0.013 C 
ATOM     34  C   UNL     1      49.687  20.776  21.700  0.00  0.00    +0.021 C 
ATOM     35  C   UNL     1      50.275  20.798  20.293  0.00  0.00    +0.014 C 
ENDROOT
BRANCH  20  21
ATOM     21  C   UNL     1      44.187  17.390  20.779  0.00  0.00    +0.514 C 
ATOM     22  O   UNL     1      44.321  16.963  21.913  0.00  0.00    -0.704 OA
ATOM     23  O   UNL     1      44.562  16.724  19.829  0.00  0.00    -0.686 OA
ENDBRANCH  20  21
BRANCH   5   6
ATOM      6  O   UNL     1      53.723  21.201  18.872  0.00  0.00    -0.570 OA
ATOM      7  H   UNL     1      54.146  20.664  19.557  0.00  0.00    +0.378 HD
ENDBRANCH   5   6
BRANCH   8   9
ATOM      9  O   UNL     1      52.483  20.058  21.027  0.00  0.00    -0.541 OA
ATOM     10  H   UNL     1      53.437  20.058  20.869  0.00  0.00    +0.375 HD
ENDBRANCH   8   9
TORSDOF 3
ENDMDL
MODEL 2
REMARK VINA RESULT:      -7.1      3.945      7.435
REMARK  Name = ZINC95486114
REMARK  9 active torsions:
REMARK  status: ('A' for Active; 'I' for Inactive)
REMARK    1  A    between atoms: C1_1  and  C2_2
REMARK    2  A    between atoms: C5_5  and  O4_37
REMARK    3  A    between atoms: C6_7  and  C29_35
REMARK    4  A    between atoms: C6_7  and  O3_36
REMARK    5  A    between atoms: C10_12  and  C28_34
REMARK    6  A    between atoms: C14_17  and  C27_33
REMARK    7  A    between atoms: C18_21  and  C26_30
REMARK    8  A    between atoms: C21_25  and  C24_28
REMARK    9  A    between atoms: C21_25  and  C25_29
REMARK                            x       y       z     vdW  Elec       q    Type
REMARK                         _______ _______ _______ _____ _____    ______ ____
ROOT
ATOM      1  C   UNL     1      46.445  19.664  20.952  0.00  0.00    +0.034 C 
ATOM      2  C   UNL     1      45.793  19.149  19.681  0.00  0.00    -0.036 C 
ATOM      3  C   UNL     1      45.827  20.284  18.639  0.00  0.00    +0.015 C 
ATOM      4  C   UNL     1      45.006  21.470  19.135  0.00  0.00    -0.012 C 
ATOM      5  C   UNL     1      43.553  21.063  19.345  0.00  0.00    +0.136 C 
ATOM      8  C   UNL     1      43.448  19.895  20.332  0.00  0.00    +0.161 C 
ATOM     11  C   UNL     1      41.977  19.435  20.331  0.00  0.00    +0.002 C 
ATOM     12  C   UNL     1      46.518  17.939  19.090  0.00  0.00    -0.001 C 
ATOM     13  C   UNL     1      47.937  18.227  18.659  0.00  0.00    +0.004 C 
ATOM     14  C   UNL     1      48.608  17.063  17.942  0.00  0.00    +0.016 C 
ATOM     15  C   UNL     1      47.760  15.799  17.854  0.00  0.00    +0.015 C 
ATOM     16  C   UNL     1      46.685  16.031  16.785  0.00  0.00    +0.005 C 
ATOM     17  C   UNL     1      47.082  15.530  19.162  0.00  0.00    -0.115 C 
ATOM     18  C   UNL     1      47.035  14.353  19.729  0.00  0.00    -0.015 C 
ATOM     19  C   UNL     1      47.753  13.168  19.137  0.00  0.00    +0.048 C 
ATOM     20  C   UNL     1      49.035  13.710  18.493  0.00  0.00    -0.113 C 
ATOM     24  C   UNL     1      49.884  12.548  17.982  0.00  0.00    +0.015 C 
ATOM     25  C   UNL     1      49.106  11.743  16.952  0.00  0.00    +0.002 C 
ATOM     26  C   UNL     1      48.709  12.634  15.780  0.00  0.00    -0.065 C 
ATOM     27  C   UNL     1      49.953  13.086  15.010  0.00  0.00    +0.016 C 
ATOM     28  C   UNL     1      47.818  11.821  14.827  0.00  0.00    +0.006 C 
ATOM     29  C   UNL     1      47.916  13.853  16.253  0.00  0.00    +0.017 C 
ATOM     30  C   UNL     1      48.619  14.634  17.354  0.00  0.00    +0.019 C 
ATOM     31  C   UNL     1      46.417  16.676  19.923  0.00  0.00    +0.003 C 
ATOM     32  C   UNL     1      47.148  16.770  21.273  0.00  0.00    +0.032 C 
ATOM     33  C   UNL     1      44.946  16.338  20.162  0.00  0.00    +0.013 C 
ATOM     34  C   UNL     1      44.238  17.535  20.813  0.00  0.00    +0.021 C 
ATOM     35  C   UNL     1      44.331  18.744  19.888  0.00  0.00    +0.014 C 
ENDROOT
BRANCH  20  21
ATOM     21  C   UNL     1      49.845  14.457  19.529  0.00  0.00    +0.514 C 
ATOM     22  O   UNL     1      49.660  14.247  20.715  0.00  0.00    -0.704 OA
ATOM     23  O   UNL     1      50.684  15.269  19.177  0.00  0.00    -0.686 OA
ENDBRANCH  20  21
BRANCH   5   6
ATOM      6  O   UNL     1      42.815  22.175  19.857  0.00  0.00    -0.570 OA
ATOM      7  H   UNL     1      42.613  22.851  19.196  0.00  0.00    +0.378 HD
ENDBRANCH   5   6
BRANCH   8   9
ATOM      9  O   UNL     1      43.771  20.341  21.648  0.00  0.00    -0.541 OA
ATOM     10  H   UNL     1      43.007  20.634  22.163  0.00  0.00    +0.375 HD
ENDBRANCH   8   9
TORSDOF 3
ENDMDL
MODEL 3
REMARK VINA RESULT:      -6.9      1.936      7.735
REMARK  Name = ZINC95486114
REMARK  9 active torsions:
REMARK  status: ('A' for Active; 'I' for Inactive)
REMARK    1  A    between atoms: C1_1  and  C2_2
REMARK    2  A    between atoms: C5_5  and  O4_37
REMARK    3  A    between atoms: C6_7  and  C29_35
REMARK    4  A    between atoms: C6_7  and  O3_36
REMARK    5  A    between atoms: C10_12  and  C28_34
REMARK    6  A    between atoms: C14_17  and  C27_33
REMARK    7  A    between atoms: C18_21  and  C26_30
REMARK    8  A    between atoms: C21_25  and  C24_28
REMARK    9  A    between atoms: C21_25  and  C25_29
REMARK                            x       y       z     vdW  Elec       q    Type
REMARK                         _______ _______ _______ _____ _____    ______ ____
ROOT
ATOM      1  C   UNL     1      44.712  21.200  21.318  0.00  0.00    +0.034 C 
ATOM      2  C   UNL     1      44.697  20.029  20.350  0.00  0.00    -0.036 C 
ATOM      3  C   UNL     1      43.815  20.422  19.149  0.00  0.00    +0.015 C 
ATOM      4  C   UNL     1      42.381  20.660  19.613  0.00  0.00    -0.012 C 
ATOM      5  C   UNL     1      41.804  19.393  20.232  0.00  0.00    +0.136 C 
ATOM      8  C   UNL     1      42.667  18.912  21.402  0.00  0.00    +0.161 C 
ATOM     11  C   UNL     1      42.118  17.538  21.833  0.00  0.00    +0.002 C 
ATOM     12  C   UNL     1      46.089  19.679  19.822  0.00  0.00    -0.001 C 
ATOM     13  C   UNL     1      46.736  20.783  19.021  0.00  0.00    +0.004 C 
ATOM     14  C   UNL     1      48.057  20.382  18.379  0.00  0.00    +0.016 C 
ATOM     15  C   UNL     1      48.523  18.970  18.717  0.00  0.00    +0.015 C 
ATOM     16  C   UNL     1      47.663  17.989  17.912  0.00  0.00    +0.005 C 
ATOM     17  C   UNL     1      48.331  18.690  20.175  0.00  0.00    -0.115 C 
ATOM     18  C   UNL     1      49.232  18.123  20.933  0.00  0.00    -0.015 C 
ATOM     19  C   UNL     1      50.600  17.780  20.402  0.00  0.00    +0.048 C 
ATOM     20  C   UNL     1      50.960  18.871  19.386  0.00  0.00    -0.113 C 
ATOM     24  C   UNL     1      52.392  18.665  18.897  0.00  0.00    +0.015 C 
ATOM     25  C   UNL     1      52.530  17.299  18.239  0.00  0.00    +0.002 C 
ATOM     26  C   UNL     1      51.571  17.186  17.060  0.00  0.00    -0.065 C 
ATOM     27  C   UNL     1      51.977  18.158  15.948  0.00  0.00    +0.016 C 
ATOM     28  C   UNL     1      51.646  15.754  16.504  0.00  0.00    +0.006 C 
ATOM     29  C   UNL     1      50.128  17.457  17.489  0.00  0.00    +0.017 C 
ATOM     30  C   UNL     1      49.964  18.773  18.237  0.00  0.00    +0.019 C 
ATOM     31  C   UNL     1      47.028  19.098  20.862  0.00  0.00    +0.003 C 
ATOM     32  C   UNL     1      47.423  20.100  21.960  0.00  0.00    +0.032 C 
ATOM     33  C   UNL     1      46.385  17.868  21.501  0.00  0.00    +0.013 C 
ATOM     34  C   UNL     1      45.015  18.242  22.084  0.00  0.00    +0.021 C 
ATOM     35  C   UNL     1      44.112  18.757  20.968  0.00  0.00    +0.014 C 
ENDROOT
BRANCH  20  21
ATOM     21  C   UNL     1      50.888  20.227  20.052  0.00  0.00    +0.514 C 
ATOM     22  O   UNL     1      50.842  21.238  19.372  0.00  0.00    -0.704 OA
ATOM     23  O   UNL     1      50.876  20.309  21.268  0.00  0.00    -0.686 OA
ENDBRANCH  20  21
BRANCH   5   6
ATOM      6  O   UNL     1      40.479  19.654  20.703  0.00  0.00    -0.570 OA
ATOM      7  H   UNL     1      40.439  20.275  21.443  0.00  0.00    +0.378 HD
ENDBRANCH   5   6
BRANCH   8   9
ATOM      9  O   UNL     1      42.533  19.808  22.505  0.00  0.00    -0.541 OA
ATOM     10  H   UNL     1      43.010  19.529  23.299  0.00  0.00    +0.375 HD
ENDBRANCH   8   9
TORSDOF 3
ENDMDL
MODEL 4
REMARK VINA RESULT:      -6.4      3.498      7.781
REMARK  Name = ZINC95486114
REMARK  9 active torsions:
REMARK  status: ('A' for Active; 'I' for Inactive)
REMARK    1  A    between atoms: C1_1  and  C2_2
REMARK    2  A    between atoms: C5_5  and  O4_37
REMARK    3  A    between atoms: C6_7  and  C29_35
REMARK    4  A    between atoms: C6_7  and  O3_36
REMARK    5  A    between atoms: C10_12  and  C28_34
REMARK    6  A    between atoms: C14_17  and  C27_33
REMARK    7  A    between atoms: C18_21  and  C26_30
REMARK    8  A    between atoms: C21_25  and  C24_28
REMARK    9  A    between atoms: C21_25  and  C25_29
REMARK                            x       y       z     vdW  Elec       q    Type
REMARK                         _______ _______ _______ _____ _____    ______ ____
ROOT
ATOM      1  C   UNL     1      45.410  20.027  20.514  0.00  0.00    +0.034 C 
ATOM      2  C   UNL     1      44.795  18.951  19.635  0.00  0.00    -0.036 C 
ATOM      3  C   UNL     1      44.221  19.639  18.380  0.00  0.00    +0.015 C 
ATOM      4  C   UNL     1      43.110  20.605  18.780  0.00  0.00    -0.012 C 
ATOM      5  C   UNL     1      41.977  19.858  19.472  0.00  0.00    +0.136 C 
ATOM      8  C   UNL     1      42.489  19.101  20.702  0.00  0.00    +0.161 C 
ATOM     11  C   UNL     1      41.324  18.233  21.215  0.00  0.00    +0.002 C 
ATOM     12  C   UNL     1      45.812  17.905  19.179  0.00  0.00    -0.001 C 
ATOM     13  C   UNL     1      46.922  18.463  18.320  0.00  0.00    +0.004 C 
ATOM     14  C   UNL     1      47.852  17.399  17.751  0.00  0.00    +0.016 C 
ATOM     15  C   UNL     1      47.542  15.978  18.207  0.00  0.00    +0.015 C 
ATOM     16  C   UNL     1      46.295  15.505  17.450  0.00  0.00    +0.005 C 
ATOM     17  C   UNL     1      47.248  15.950  19.675  0.00  0.00    -0.115 C 
ATOM     18  C   UNL     1      47.746  15.068  20.501  0.00  0.00    -0.015 C 
ATOM     19  C   UNL     1      48.747  14.040  20.040  0.00  0.00    +0.048 C 
ATOM     20  C   UNL     1      49.600  14.714  18.959  0.00  0.00    -0.113 C 
ATOM     24  C   UNL     1      50.726  13.774  18.532  0.00  0.00    +0.015 C 
ATOM     25  C   UNL     1      50.147  12.479  17.981  0.00  0.00    +0.002 C 
ATOM     26  C   UNL     1      49.251  12.772  16.784  0.00  0.00    -0.065 C 
ATOM     27  C   UNL     1      50.082  13.313  15.616  0.00  0.00    +0.016 C 
ATOM     28  C   UNL     1      48.585  11.460  16.337  0.00  0.00    +0.006 C 
ATOM     29  C   UNL     1      48.148  13.768  17.146  0.00  0.00    +0.017 C 
ATOM     30  C   UNL     1      48.680  15.041  17.789  0.00  0.00    +0.019 C 
ATOM     31  C   UNL     1      46.339  17.014  20.288  0.00  0.00    +0.003 C 
ATOM     32  C   UNL     1      47.197  17.763  21.321  0.00  0.00    +0.032 C 
ATOM     33  C   UNL     1      45.168  16.333  20.995  0.00  0.00    +0.013 C 
ATOM     34  C   UNL     1      44.182  17.394  21.505  0.00  0.00    +0.021 C 
ATOM     35  C   UNL     1      43.653  18.203  20.326  0.00  0.00    +0.014 C 
ENDROOT
BRANCH  20  21
ATOM     21  C   UNL     1      50.231  15.969  19.520  0.00  0.00    +0.514 C 
ATOM     22  O   UNL     1      50.346  16.106  20.726  0.00  0.00    -0.704 OA
ATOM     23  O   UNL     1      50.624  16.843  18.766  0.00  0.00    -0.686 OA
ENDBRANCH  20  21
BRANCH   5   6
ATOM      6  O   UNL     1      40.971  20.788  19.880  0.00  0.00    -0.570 OA
ATOM      7  H   UNL     1      40.802  21.492  19.240  0.00  0.00    +0.378 HD
ENDBRANCH   5   6
BRANCH   8   9
ATOM      9  O   UNL     1      42.838  20.027  21.731  0.00  0.00    -0.541 OA
ATOM     10  H   UNL     1      42.318  20.841  21.720  0.00  0.00    +0.375 HD
ENDBRANCH   8   9
TORSDOF 3
ENDMDL
MODEL 5
REMARK VINA RESULT:      -6.3      2.632      7.917
REMARK  Name = ZINC95486114
REMARK  9 active torsions:
REMARK  status: ('A' for Active; 'I' for Inactive)
REMARK    1  A    between atoms: C1_1  and  C2_2
REMARK    2  A    between atoms: C5_5  and  O4_37
REMARK    3  A    between atoms: C6_7  and  C29_35
REMARK    4  A    between atoms: C6_7  and  O3_36
REMARK    5  A    between atoms: C10_12  and  C28_34
REMARK    6  A    between atoms: C14_17  and  C27_33
REMARK    7  A    between atoms: C18_21  and  C26_30
REMARK    8  A    between atoms: C21_25  and  C24_28
REMARK    9  A    between atoms: C21_25  and  C25_29
REMARK                            x       y       z     vdW  Elec       q    Type
REMARK                         _______ _______ _______ _____ _____    ______ ____
ROOT
ATOM      1  C   UNL     1      46.533  20.884  18.489  0.00  0.00    +0.034 C 
ATOM      2  C   UNL     1      46.421  19.657  19.378  0.00  0.00    -0.036 C 
ATOM      3  C   UNL     1      45.281  18.778  18.828  0.00  0.00    +0.015 C 
ATOM      4  C   UNL     1      43.957  19.533  18.907  0.00  0.00    -0.012 C 
ATOM      5  C   UNL     1      43.630  19.885  20.353  0.00  0.00    +0.136 C 
ATOM      8  C   UNL     1      44.752  20.715  20.983  0.00  0.00    +0.161 C 
ATOM     11  C   UNL     1      44.422  20.855  22.482  0.00  0.00    +0.002 C 
ATOM     12  C   UNL     1      47.700  18.819  19.398  0.00  0.00    -0.001 C 
ATOM     13  C   UNL     1      48.072  18.240  18.054  0.00  0.00    +0.004 C 
ATOM     14  C   UNL     1      49.263  17.292  18.104  0.00  0.00    +0.016 C 
ATOM     15  C   UNL     1      49.908  17.157  19.479  0.00  0.00    +0.015 C 
ATOM     16  C   UNL     1      48.988  16.284  20.342  0.00  0.00    +0.005 C 
ATOM     17  C   UNL     1      50.043  18.498  20.130  0.00  0.00    -0.115 C 
ATOM     18  C   UNL     1      51.125  18.907  20.737  0.00  0.00    -0.015 C 
ATOM     19  C   UNL     1      52.380  18.073  20.751  0.00  0.00    +0.048 C 
ATOM     20  C   UNL     1      52.430  17.337  19.407  0.00  0.00    -0.113 C 
ATOM     24  C   UNL     1      53.744  16.567  19.292  0.00  0.00    +0.015 C 
ATOM     25  C   UNL     1      53.861  15.556  20.424  0.00  0.00    +0.002 C 
ATOM     26  C   UNL     1      52.694  14.576  20.375  0.00  0.00    -0.065 C 
ATOM     27  C   UNL     1      52.779  13.709  19.116  0.00  0.00    +0.016 C 
ATOM     28  C   UNL     1      52.775  13.656  21.604  0.00  0.00    +0.006 C 
ATOM     29  C   UNL     1      51.352  15.309  20.415  0.00  0.00    +0.017 C 
ATOM     30  C   UNL     1      51.232  16.395  19.356  0.00  0.00    +0.019 C 
ATOM     31  C   UNL     1      48.878  19.486  20.082  0.00  0.00    +0.003 C 
ATOM     32  C   UNL     1      49.402  20.724  19.334  0.00  0.00    +0.032 C 
ATOM     33  C   UNL     1      48.487  19.878  21.506  0.00  0.00    +0.013 C 
ATOM     34  C   UNL     1      47.239  20.771  21.474  0.00  0.00    +0.021 C 
ATOM     35  C   UNL     1      46.086  20.008  20.830  0.00  0.00    +0.014 C 
ENDROOT
BRANCH  20  21
ATOM     21  C   UNL     1      52.379  18.340  18.277  0.00  0.00    +0.514 C 
ATOM     22  O   UNL     1      52.735  19.491  18.467  0.00  0.00    -0.704 OA
ATOM     23  O   UNL     1      51.984  17.998  17.176  0.00  0.00    -0.686 OA
ENDBRANCH  20  21
BRANCH   5   6
ATOM      6  O   UNL     1      42.412  20.633  20.397  0.00  0.00    -0.570 OA
ATOM      7  H   UNL     1      41.801  20.435  19.675  0.00  0.00    +0.378 HD
ENDBRANCH   5   6
BRANCH   8   9
ATOM      9  O   UNL     1      44.770  22.022  20.410  0.00  0.00    -0.541 OA
ATOM     10  H   UNL     1      44.115  22.625  20.785  0.00  0.00    +0.375 HD
ENDBRANCH   8   9
TORSDOF 3
ENDMDL
MODEL 6
REMARK VINA RESULT:      -6.3      4.904      6.409
REMARK  Name = ZINC95486114
REMARK  9 active torsions:
REMARK  status: ('A' for Active; 'I' for Inactive)
REMARK    1  A    between atoms: C1_1  and  C2_2
REMARK    2  A    between atoms: C5_5  and  O4_37
REMARK    3  A    between atoms: C6_7  and  C29_35
REMARK    4  A    between atoms: C6_7  and  O3_36
REMARK    5  A    between atoms: C10_12  and  C28_34
REMARK    6  A    between atoms: C14_17  and  C27_33
REMARK    7  A    between atoms: C18_21  and  C26_30
REMARK    8  A    between atoms: C21_25  and  C24_28
REMARK    9  A    between atoms: C21_25  and  C25_29
REMARK                            x       y       z     vdW  Elec       q    Type
REMARK                         _______ _______ _______ _____ _____    ______ ____
ROOT
ATOM      1  C   UNL     1      49.182  11.815  17.495  0.00  0.00    +0.034 C 
ATOM      2  C   UNL     1      48.766  12.985  16.619  0.00  0.00    -0.036 C 
ATOM      3  C   UNL     1      47.855  12.438  15.503  0.00  0.00    +0.015 C 
ATOM      4  C   UNL     1      48.633  11.457  14.630  0.00  0.00    -0.012 C 
ATOM      5  C   UNL     1      49.821  12.152  13.976  0.00  0.00    +0.136 C 
ATOM      8  C   UNL     1      50.744  12.771  15.031  0.00  0.00    +0.161 C 
ATOM     11  C   UNL     1      51.797  13.604  14.275  0.00  0.00    +0.002 C 
ATOM     12  C   UNL     1      47.987  14.054  17.387  0.00  0.00    -0.001 C 
ATOM     13  C   UNL     1      46.677  13.564  17.956  0.00  0.00    +0.004 C 
ATOM     14  C   UNL     1      45.839  14.663  18.597  0.00  0.00    +0.016 C 
ATOM     15  C   UNL     1      46.500  16.037  18.613  0.00  0.00    +0.015 C 
ATOM     16  C   UNL     1      46.429  16.606  17.191  0.00  0.00    +0.005 C 
ATOM     17  C   UNL     1      47.939  15.922  19.010  0.00  0.00    -0.115 C 
ATOM     18  C   UNL     1      48.519  16.707  19.879  0.00  0.00    -0.015 C 
ATOM     19  C   UNL     1      47.742  17.758  20.629  0.00  0.00    +0.048 C 
ATOM     20  C   UNL     1      46.341  17.180  20.863  0.00  0.00    -0.113 C 
ATOM     24  C   UNL     1      45.530  18.137  21.734  0.00  0.00    +0.015 C 
ATOM     25  C   UNL     1      45.408  19.492  21.051  0.00  0.00    +0.002 C 
ATOM     26  C   UNL     1      44.725  19.337  19.697  0.00  0.00    -0.065 C 
ATOM     27  C   UNL     1      43.268  18.902  19.882  0.00  0.00    +0.016 C 
ATOM     28  C   UNL     1      44.736  20.700  18.984  0.00  0.00    +0.006 C 
ATOM     29  C   UNL     1      45.463  18.330  18.814  0.00  0.00    +0.017 C 
ATOM     30  C   UNL     1      45.690  16.989  19.498  0.00  0.00    +0.019 C 
ATOM     31  C   UNL     1      48.807  14.818  18.408  0.00  0.00    +0.003 C 
ATOM     32  C   UNL     1      49.277  13.954  19.590  0.00  0.00    +0.032 C 
ATOM     33  C   UNL     1      50.020  15.446  17.722  0.00  0.00    +0.013 C 
ATOM     34  C   UNL     1      50.832  14.358  17.006  0.00  0.00    +0.021 C 
ATOM     35  C   UNL     1      49.958  13.681  15.956  0.00  0.00    +0.014 C 
ENDROOT
BRANCH  20  21
ATOM     21  C   UNL     1      46.452  15.864  21.600  0.00  0.00    +0.514 C 
ATOM     22  O   UNL     1      47.461  15.602  22.231  0.00  0.00    -0.704 OA
ATOM     23  O   UNL     1      45.531  15.065  21.563  0.00  0.00    -0.686 OA
ENDBRANCH  20  21
BRANCH   5   6
ATOM      6  O   UNL     1      50.563  11.203  13.205  0.00  0.00    -0.570 OA
ATOM      7  H   UNL     1      51.432  10.991  13.571  0.00  0.00    +0.378 HD
ENDBRANCH   5   6
BRANCH   8   9
ATOM      9  O   UNL     1      51.425  11.740  15.746  0.00  0.00    -0.541 OA
ATOM     10  H   UNL     1      51.440  10.888  15.290  0.00  0.00    +0.375 HD
ENDBRANCH   8   9
TORSDOF 3
ENDMDL
MODEL 7
REMARK VINA RESULT:      -6.2      4.707      8.684
REMARK  Name = ZINC95486114
REMARK  9 active torsions:
REMARK  status: ('A' for Active; 'I' for Inactive)
REMARK    1  A    between atoms: C1_1  and  C2_2
REMARK    2  A    between atoms: C5_5  and  O4_37
REMARK    3  A    between atoms: C6_7  and  C29_35
REMARK    4  A    between atoms: C6_7  and  O3_36
REMARK    5  A    between atoms: C10_12  and  C28_34
REMARK    6  A    between atoms: C14_17  and  C27_33
REMARK    7  A    between atoms: C18_21  and  C26_30
REMARK    8  A    between atoms: C21_25  and  C24_28
REMARK    9  A    between atoms: C21_25  and  C25_29
REMARK                            x       y       z     vdW  Elec       q    Type
REMARK                         _______ _______ _______ _____ _____    ______ ____
ROOT
ATOM      1  C   UNL     1      47.721  12.456  19.233  0.00  0.00    +0.034 C 
ATOM      2  C   UNL     1      47.723  13.288  17.962  0.00  0.00    -0.036 C 
ATOM      3  C   UNL     1      46.258  13.592  17.595  0.00  0.00    +0.015 C 
ATOM      4  C   UNL     1      45.515  12.292  17.300  0.00  0.00    -0.012 C 
ATOM      5  C   UNL     1      46.159  11.566  16.125  0.00  0.00    +0.136 C 
ATOM      8  C   UNL     1      47.638  11.281  16.399  0.00  0.00    +0.161 C 
ATOM     11  C   UNL     1      48.241  10.726  15.093  0.00  0.00    +0.002 C 
ATOM     12  C   UNL     1      48.458  14.619  18.125  0.00  0.00    -0.001 C 
ATOM     13  C   UNL     1      47.831  15.543  19.143  0.00  0.00    +0.004 C 
ATOM     14  C   UNL     1      48.479  16.920  19.202  0.00  0.00    +0.016 C 
ATOM     15  C   UNL     1      49.682  17.094  18.281  0.00  0.00    +0.015 C 
ATOM     16  C   UNL     1      49.156  17.238  16.847  0.00  0.00    +0.005 C 
ATOM     17  C   UNL     1      50.570  15.891  18.345  0.00  0.00    -0.115 C 
ATOM     18  C   UNL     1      51.872  15.952  18.452  0.00  0.00    -0.015 C 
ATOM     19  C   UNL     1      52.585  17.270  18.611  0.00  0.00    +0.048 C 
ATOM     20  C   UNL     1      51.658  18.171  19.435  0.00  0.00    -0.113 C 
ATOM     24  C   UNL     1      52.368  19.486  19.750  0.00  0.00    +0.015 C 
ATOM     25  C   UNL     1      52.748  20.199  18.460  0.00  0.00    +0.002 C 
ATOM     26  C   UNL     1      51.501  20.484  17.631  0.00  0.00    -0.065 C 
ATOM     27  C   UNL     1      50.606  21.499  18.346  0.00  0.00    +0.016 C 
ATOM     28  C   UNL     1      51.936  21.085  16.284  0.00  0.00    +0.006 C 
ATOM     29  C   UNL     1      50.716  19.201  17.351  0.00  0.00    +0.017 C 
ATOM     30  C   UNL     1      50.398  18.408  18.610  0.00  0.00    +0.019 C 
ATOM     31  C   UNL     1      49.957  14.492  18.313  0.00  0.00    +0.003 C 
ATOM     32  C   UNL     1      50.356  13.822  19.639  0.00  0.00    +0.032 C 
ATOM     33  C   UNL     1      50.553  13.705  17.145  0.00  0.00    +0.013 C 
ATOM     34  C   UNL     1      49.853  12.343  17.027  0.00  0.00    +0.021 C 
ATOM     35  C   UNL     1      48.363  12.559  16.779  0.00  0.00    +0.014 C 
ENDROOT
BRANCH  20  21
ATOM     21  C   UNL     1      51.328  17.496  20.747  0.00  0.00    +0.514 C 
ATOM     22  O   UNL     1      50.347  17.844  21.382  0.00  0.00    -0.704 OA
ATOM     23  O   UNL     1      52.042  16.603  21.169  0.00  0.00    -0.686 OA
ENDBRANCH  20  21
BRANCH   5   6
ATOM      6  O   UNL     1      45.478  10.329  15.898  0.00  0.00    -0.570 OA
ATOM      7  H   UNL     1      46.031   9.642  15.501  0.00  0.00    +0.378 HD
ENDBRANCH   5   6
BRANCH   8   9
ATOM      9  O   UNL     1      47.762  10.277  17.405  0.00  0.00    -0.541 OA
ATOM     10  H   UNL     1      48.112   9.436  17.081  0.00  0.00    +0.375 HD
ENDBRANCH   8   9
TORSDOF 3
ENDMDL
MODEL 8
REMARK VINA RESULT:      -6.0      3.531      5.455
REMARK  Name = ZINC95486114
REMARK  9 active torsions:
REMARK  status: ('A' for Active; 'I' for Inactive)
REMARK    1  A    between atoms: C1_1  and  C2_2
REMARK    2  A    between atoms: C5_5  and  O4_37
REMARK    3  A    between atoms: C6_7  and  C29_35
REMARK    4  A    between atoms: C6_7  and  O3_36
REMARK    5  A    between atoms: C10_12  and  C28_34
REMARK    6  A    between atoms: C14_17  and  C27_33
REMARK    7  A    between atoms: C18_21  and  C26_30
REMARK    8  A    between atoms: C21_25  and  C24_28
REMARK    9  A    between atoms: C21_25  and  C25_29
REMARK                            x       y       z     vdW  Elec       q    Type
REMARK                         _______ _______ _______ _____ _____    ______ ____
ROOT
ATOM      1  C   UNL     1      46.232  13.870  18.000  0.00  0.00    +0.034 C 
ATOM      2  C   UNL     1      47.390  14.824  18.239  0.00  0.00    -0.036 C 
ATOM      3  C   UNL     1      48.072  15.087  16.882  0.00  0.00    +0.015 C 
ATOM      4  C   UNL     1      48.647  13.787  16.328  0.00  0.00    -0.012 C 
ATOM      5  C   UNL     1      49.690  13.217  17.281  0.00  0.00    +0.136 C 
ATOM      8  C   UNL     1      49.093  12.982  18.672  0.00  0.00    +0.161 C 
ATOM     11  C   UNL     1      50.257  12.592  19.603  0.00  0.00    +0.002 C 
ATOM     12  C   UNL     1      46.943  16.168  18.814  0.00  0.00    -0.001 C 
ATOM     13  C   UNL     1      46.031  16.952  17.900  0.00  0.00    +0.004 C 
ATOM     14  C   UNL     1      45.702  18.348  18.413  0.00  0.00    +0.016 C 
ATOM     15  C   UNL     1      46.287  18.675  19.782  0.00  0.00    +0.015 C 
ATOM     16  C   UNL     1      47.788  18.935  19.598  0.00  0.00    +0.005 C 
ATOM     17  C   UNL     1      46.114  17.519  20.717  0.00  0.00    -0.115 C 
ATOM     18  C   UNL     1      45.692  17.635  21.948  0.00  0.00    -0.015 C 
ATOM     19  C   UNL     1      45.255  18.965  22.505  0.00  0.00    +0.048 C 
ATOM     20  C   UNL     1      44.605  19.731  21.347  0.00  0.00    -0.113 C 
ATOM     24  C   UNL     1      44.017  21.042  21.864  0.00  0.00    +0.015 C 
ATOM     25  C   UNL     1      45.112  21.900  22.483  0.00  0.00    +0.002 C 
ATOM     26  C   UNL     1      46.190  22.201  21.448  0.00  0.00    -0.065 C 
ATOM     27  C   UNL     1      45.628  23.093  20.337  0.00  0.00    +0.016 C 
ATOM     28  C   UNL     1      47.337  22.955  22.141  0.00  0.00    +0.006 C 
ATOM     29  C   UNL     1      46.759  20.914  20.848  0.00  0.00    +0.017 C 
ATOM     30  C   UNL     1      45.686  19.984  20.302  0.00  0.00    +0.019 C 
ATOM     31  C   UNL     1      46.412  16.100  20.233  0.00  0.00    +0.003 C 
ATOM     32  C   UNL     1      45.090  15.323  20.358  0.00  0.00    +0.032 C 
ATOM     33  C   UNL     1      47.464  15.465  21.142  0.00  0.00    +0.013 C 
ATOM     34  C   UNL     1      47.862  14.088  20.593  0.00  0.00    +0.021 C 
ATOM     35  C   UNL     1      48.443  14.251  19.191  0.00  0.00    +0.014 C 
ENDROOT
BRANCH  20  21
ATOM     21  C   UNL     1      43.473  18.912  20.769  0.00  0.00    +0.514 C 
ATOM     22  O   UNL     1      43.059  19.149  19.647  0.00  0.00    -0.704 OA
ATOM     23  O   UNL     1      42.974  18.013  21.425  0.00  0.00    -0.686 OA
ENDBRANCH  20  21
BRANCH   5   6
ATOM      6  O   UNL     1      50.178  11.975  16.766  0.00  0.00    -0.570 OA
ATOM      7  H   UNL     1      51.141  11.891  16.788  0.00  0.00    +0.378 HD
ENDBRANCH   5   6
BRANCH   8   9
ATOM      9  O   UNL     1      48.175  11.890  18.629  0.00  0.00    -0.541 OA
ATOM     10  H   UNL     1      47.456  12.005  17.994  0.00  0.00    +0.375 HD
ENDBRANCH   8   9
TORSDOF 3
ENDMDL
MODEL 9
REMARK VINA RESULT:      -5.8      5.207      6.885
REMARK  Name = ZINC95486114
REMARK  9 active torsions:
REMARK  status: ('A' for Active; 'I' for Inactive)
REMARK    1  A    between atoms: C1_1  and  C2_2
REMARK    2  A    between atoms: C5_5  and  O4_37
REMARK    3  A    between atoms: C6_7  and  C29_35
REMARK    4  A    between atoms: C6_7  and  O3_36
REMARK    5  A    between atoms: C10_12  and  C28_34
REMARK    6  A    between atoms: C14_17  and  C27_33
REMARK    7  A    between atoms: C18_21  and  C26_30
REMARK    8  A    between atoms: C21_25  and  C24_28
REMARK    9  A    between atoms: C21_25  and  C25_29
REMARK                            x       y       z     vdW  Elec       q    Type
REMARK                         _______ _______ _______ _____ _____    ______ ____
ROOT
ATOM      1  C   UNL     1      52.982  17.454  19.001  0.00  0.00    +0.034 C 
ATOM      2  C   UNL     1      51.558  17.709  18.538  0.00  0.00    -0.036 C 
ATOM      3  C   UNL     1      51.622  18.616  17.293  0.00  0.00    +0.015 C 
ATOM      4  C   UNL     1      52.239  19.962  17.662  0.00  0.00    -0.012 C 
ATOM      5  C   UNL     1      51.395  20.664  18.718  0.00  0.00    +0.136 C 
ATOM      8  C   UNL     1      51.242  19.790  19.968  0.00  0.00    +0.161 C 
ATOM     11  C   UNL     1      50.227  20.494  20.889  0.00  0.00    +0.002 C 
ATOM     12  C   UNL     1      50.821  16.425  18.153  0.00  0.00    -0.001 C 
ATOM     13  C   UNL     1      51.439  15.691  16.986  0.00  0.00    +0.004 C 
ATOM     14  C   UNL     1      50.625  14.494  16.515  0.00  0.00    +0.016 C 
ATOM     15  C   UNL     1      49.379  14.208  17.346  0.00  0.00    +0.015 C 
ATOM     16  C   UNL     1      48.322  15.258  16.980  0.00  0.00    +0.005 C 
ATOM     17  C   UNL     1      49.683  14.326  18.807  0.00  0.00    -0.115 C 
ATOM     18  C   UNL     1      49.295  13.459  19.704  0.00  0.00    -0.015 C 
ATOM     19  C   UNL     1      48.568  12.198  19.313  0.00  0.00    +0.048 C 
ATOM     20  C   UNL     1      49.141  11.766  17.958  0.00  0.00    -0.113 C 
ATOM     24  C   UNL     1      48.544  10.419  17.555  0.00  0.00    +0.015 C 
ATOM     25  C   UNL     1      47.030  10.527  17.449  0.00  0.00    +0.002 C 
ATOM     26  C   UNL     1      46.650  11.580  16.414  0.00  0.00    -0.065 C 
ATOM     27  C   UNL     1      47.070  11.127  15.014  0.00  0.00    +0.016 C 
ATOM     28  C   UNL     1      45.121  11.752  16.430  0.00  0.00    +0.006 C 
ATOM     29  C   UNL     1      47.286  12.933  16.739  0.00  0.00    +0.017 C 
ATOM     30  C   UNL     1      48.791  12.851  16.947  0.00  0.00    +0.019 C 
ATOM     31  C   UNL     1      50.517  15.501  19.316  0.00  0.00    +0.003 C 
ATOM     32  C   UNL     1      51.773  14.885  19.956  0.00  0.00    +0.032 C 
ATOM     33  C   UNL     1      49.724  16.262  20.379  0.00  0.00    +0.013 C 
ATOM     34  C   UNL     1      50.500  17.516  20.806  0.00  0.00    +0.021 C 
ATOM     35  C   UNL     1      50.710  18.419  19.595  0.00  0.00    +0.014 C 
ENDROOT
BRANCH  20  21
ATOM     21  C   UNL     1      50.639  11.594  18.073  0.00  0.00    +0.514 C 
ATOM     22  O   UNL     1      51.152  11.427  19.166  0.00  0.00    -0.704 OA
ATOM     23  O   UNL     1      51.334  11.621  17.072  0.00  0.00    -0.686 OA
ENDBRANCH  20  21
BRANCH   5   6
ATOM      6  O   UNL     1      52.018  21.898  19.084  0.00  0.00    -0.570 OA
ATOM      7  H   UNL     1      52.204  21.981  20.029  0.00  0.00    +0.378 HD
ENDBRANCH   5   6
BRANCH   8   9
ATOM      9  O   UNL     1      52.487  19.711  20.661  0.00  0.00    -0.541 OA
ATOM     10  H   UNL     1      53.228  19.428  20.108  0.00  0.00    +0.375 HD
ENDBRANCH   8   9
TORSDOF 3
ENDMDL
