MODEL 1
REMARK VINA RESULT:      -6.4      0.000      0.000
REMARK  Name = ZINC14644461
REMARK  8 active torsions:
REMARK  status: ('A' for Active; 'I' for Inactive)
REMARK    1  A    between atoms: C1_1  and  O1_2
REMARK    2  A    between atoms: O1_2  and  C2_3
REMARK    3  A    between atoms: C4_5  and  C9_12
REMARK    4  A    between atoms: C6_7  and  O3_10
REMARK    5  A    between atoms: C7_8  and  O2_9
REMARK    6  A    between atoms: O3_10  and  C8_11
REMARK    7  A    between atoms: C10_13  and  O7_24
REMARK    8  A    between atoms: C15_19  and  O6_23
REMARK                            x       y       z     vdW  Elec       q    Type
REMARK                         _______ _______ _______ _____ _____    ______ ____
ROOT
ATOM      6  C   UNL     1      43.905  18.946  20.082  0.00  0.00    +0.171 A 
ATOM      7  C   UNL     1      43.378  18.358  21.194  0.00  0.00    -0.067 A 
ATOM     10  C   UNL     1      43.742  17.027  21.518  0.00  0.00    +0.408 A 
ATOM     11  C   UNL     1      44.689  16.344  20.618  0.00  0.00    -0.230 A 
ATOM     12  C   UNL     1      45.103  15.034  20.860  0.00  0.00    +0.140 A 
ATOM     13  C   UNL     1      45.980  14.431  20.006  0.00  0.00    -0.025 A 
ATOM     14  C   UNL     1      46.464  15.117  18.894  0.00  0.00    +0.178 A 
ATOM     17  C   UNL     1      46.063  16.417  18.639  0.00  0.00    -0.018 A 
ATOM     18  C   UNL     1      45.172  17.043  19.498  0.00  0.00    +0.164 A 
ATOM     19  O   UNL     1      43.291  16.469  22.505  0.00  0.00    -0.449 OA
ATOM     20  O   UNL     1      44.767  18.310  19.270  0.00  0.00    -0.206 OA
ENDROOT
BRANCH   6   5
ATOM      3  C   UNL     1      44.008  22.685  19.745  0.00  0.00    +0.139 A 
ATOM      4  C   UNL     1      44.378  21.389  20.050  0.00  0.00    -0.022 A 
ATOM      5  C   UNL     1      43.513  20.330  19.758  0.00  0.00    -0.003 A 
ATOM     21  C   UNL     1      42.280  20.585  19.153  0.00  0.00    -0.050 A 
ATOM     22  C   UNL     1      41.913  21.885  18.856  0.00  0.00    +0.137 A 
ATOM     25  C   UNL     1      42.776  22.937  19.147  0.00  0.00    +0.068 A 
BRANCH   3   2
ATOM      1  C   UNL     1      45.742  23.540  21.129  0.00  0.00    +0.250 C 
ATOM      2  O   UNL     1      44.849  23.717  20.028  0.00  0.00    -0.298 OA
ENDBRANCH   3   2
BRANCH  22  23
ATOM     23  O   UNL     1      40.710  22.135  18.272  0.00  0.00    -0.299 OA
ATOM     24  C   UNL     1      39.588  21.394  18.756  0.00  0.00    +0.248 C 
ENDBRANCH  22  23
BRANCH  25  26
ATOM     26  O   UNL     1      42.416  24.214  18.847  0.00  0.00    -0.470 OA
ATOM     27  H   UNL     1      41.545  24.291  18.436  0.00  0.00    +0.388 HD
ENDBRANCH  25  26
ENDBRANCH   6   5
BRANCH   7   8
ATOM      8  O   UNL     1      42.507  19.043  21.985  0.00  0.00    -0.456 OA
ATOM      9  H   UNL     1      42.922  19.472  22.746  0.00  0.00    +0.389 HD
ENDBRANCH   7   8
BRANCH  14  15
ATOM     15  O   UNL     1      47.332  14.502  18.049  0.00  0.00    -0.490 OA
ATOM     16  H   UNL     1      47.900  13.847  18.478  0.00  0.00    +0.404 HD
ENDBRANCH  14  15
TORSDOF 6
ENDMDL
MODEL 2
REMARK VINA RESULT:      -6.4      0.145      2.639
REMARK  Name = ZINC14644461
REMARK  8 active torsions:
REMARK  status: ('A' for Active; 'I' for Inactive)
REMARK    1  A    between atoms: C1_1  and  O1_2
REMARK    2  A    between atoms: O1_2  and  C2_3
REMARK    3  A    between atoms: C4_5  and  C9_12
REMARK    4  A    between atoms: C6_7  and  O3_10
REMARK    5  A    between atoms: C7_8  and  O2_9
REMARK    6  A    between atoms: O3_10  and  C8_11
REMARK    7  A    between atoms: C10_13  and  O7_24
REMARK    8  A    between atoms: C15_19  and  O6_23
REMARK                            x       y       z     vdW  Elec       q    Type
REMARK                         _______ _______ _______ _____ _____    ______ ____
ROOT
ATOM      6  C   UNL     1      43.953  18.913  20.061  0.00  0.00    +0.171 A 
ATOM      7  C   UNL     1      43.454  18.321  21.183  0.00  0.00    -0.067 A 
ATOM     10  C   UNL     1      43.809  16.982  21.483  0.00  0.00    +0.408 A 
ATOM     11  C   UNL     1      44.717  16.295  20.545  0.00  0.00    -0.230 A 
ATOM     12  C   UNL     1      45.120  14.976  20.761  0.00  0.00    +0.140 A 
ATOM     13  C   UNL     1      45.961  14.370  19.873  0.00  0.00    -0.025 A 
ATOM     14  C   UNL     1      46.419  15.061  18.753  0.00  0.00    +0.178 A 
ATOM     17  C   UNL     1      46.028  16.370  18.524  0.00  0.00    -0.018 A 
ATOM     18  C   UNL     1      45.174  16.999  19.418  0.00  0.00    +0.164 A 
ATOM     19  O   UNL     1      43.382  16.419  22.478  0.00  0.00    -0.449 OA
ATOM     20  O   UNL     1      44.780  18.274  19.216  0.00  0.00    -0.206 OA
ENDROOT
BRANCH   6   5
ATOM      3  C   UNL     1      41.988  21.888  18.881  0.00  0.00    +0.139 A 
ATOM      4  C   UNL     1      42.343  20.581  19.158  0.00  0.00    -0.022 A 
ATOM      5  C   UNL     1      43.572  20.306  19.764  0.00  0.00    -0.003 A 
ATOM     21  C   UNL     1      44.435  21.354  20.094  0.00  0.00    -0.050 A 
ATOM     22  C   UNL     1      44.077  22.658  19.810  0.00  0.00    +0.137 A 
ATOM     25  C   UNL     1      42.853  22.930  19.206  0.00  0.00    +0.068 A 
BRANCH   3   2
ATOM      1  C   UNL     1      39.775  21.161  18.404  0.00  0.00    +0.250 C 
ATOM      2  O   UNL     1      40.792  22.158  18.291  0.00  0.00    -0.298 OA
ENDBRANCH   3   2
BRANCH  22  23
ATOM     23  O   UNL     1      44.920  23.679  20.126  0.00  0.00    -0.299 OA
ATOM     24  C   UNL     1      45.874  23.435  21.161  0.00  0.00    +0.248 C 
ENDBRANCH  22  23
BRANCH  25  26
ATOM     26  O   UNL     1      42.500  24.215  18.933  0.00  0.00    -0.470 OA
ATOM     27  H   UNL     1      43.018  24.624  18.227  0.00  0.00    +0.388 HD
ENDBRANCH  25  26
ENDBRANCH   6   5
BRANCH   7   8
ATOM      8  O   UNL     1      42.618  19.010  22.009  0.00  0.00    -0.456 OA
ATOM      9  H   UNL     1      41.748  18.601  22.117  0.00  0.00    +0.389 HD
ENDBRANCH   7   8
BRANCH  14  15
ATOM     15  O   UNL     1      47.250  14.443  17.875  0.00  0.00    -0.490 OA
ATOM     16  H   UNL     1      47.873  13.830  18.289  0.00  0.00    +0.404 HD
ENDBRANCH  14  15
TORSDOF 6
ENDMDL
MODEL 3
REMARK VINA RESULT:      -6.1      5.078      7.707
REMARK  Name = ZINC14644461
REMARK  8 active torsions:
REMARK  status: ('A' for Active; 'I' for Inactive)
REMARK    1  A    between atoms: C1_1  and  O1_2
REMARK    2  A    between atoms: O1_2  and  C2_3
REMARK    3  A    between atoms: C4_5  and  C9_12
REMARK    4  A    between atoms: C6_7  and  O3_10
REMARK    5  A    between atoms: C7_8  and  O2_9
REMARK    6  A    between atoms: O3_10  and  C8_11
REMARK    7  A    between atoms: C10_13  and  O7_24
REMARK    8  A    between atoms: C15_19  and  O6_23
REMARK                            x       y       z     vdW  Elec       q    Type
REMARK                         _______ _______ _______ _____ _____    ______ ____
ROOT
ATOM      6  C   UNL     1      47.913  20.351  19.097  0.00  0.00    +0.171 A 
ATOM      7  C   UNL     1      47.478  19.079  18.867  0.00  0.00    -0.067 A 
ATOM     10  C   UNL     1      46.087  18.807  18.858  0.00  0.00    +0.408 A 
ATOM     11  C   UNL     1      45.174  19.939  19.102  0.00  0.00    -0.230 A 
ATOM     12  C   UNL     1      43.789  19.763  19.110  0.00  0.00    +0.140 A 
ATOM     13  C   UNL     1      42.971  20.833  19.339  0.00  0.00    -0.025 A 
ATOM     14  C   UNL     1      43.513  22.097  19.563  0.00  0.00    +0.178 A 
ATOM     17  C   UNL     1      44.884  22.288  19.558  0.00  0.00    -0.018 A 
ATOM     18  C   UNL     1      45.727  21.210  19.327  0.00  0.00    +0.164 A 
ATOM     19  O   UNL     1      45.661  17.681  18.656  0.00  0.00    -0.449 OA
ATOM     20  O   UNL     1      47.067  21.372  19.317  0.00  0.00    -0.206 OA
ENDROOT
BRANCH   6   5
ATOM      3  C   UNL     1      51.415  21.006  17.909  0.00  0.00    +0.139 A 
ATOM      4  C   UNL     1      50.055  20.758  17.899  0.00  0.00    -0.022 A 
ATOM      5  C   UNL     1      49.362  20.615  19.104  0.00  0.00    -0.003 A 
ATOM     21  C   UNL     1      50.047  20.728  20.318  0.00  0.00    -0.050 A 
ATOM     22  C   UNL     1      51.408  20.971  20.321  0.00  0.00    +0.137 A 
ATOM     25  C   UNL     1      52.095  21.113  19.119  0.00  0.00    +0.068 A 
BRANCH   3   2
ATOM      1  C   UNL     1      52.159  19.999  15.888  0.00  0.00    +0.250 C 
ATOM      2  O   UNL     1      52.089  21.146  16.736  0.00  0.00    -0.298 OA
ENDBRANCH   3   2
BRANCH  22  23
ATOM     23  O   UNL     1      52.076  21.075  21.502  0.00  0.00    -0.299 OA
ATOM     24  C   UNL     1      52.510  19.859  22.112  0.00  0.00    +0.248 C 
ENDBRANCH  22  23
BRANCH  25  26
ATOM     26  O   UNL     1      53.433  21.358  19.126  0.00  0.00    -0.470 OA
ATOM     27  H   UNL     1      53.973  20.588  19.349  0.00  0.00    +0.388 HD
ENDBRANCH  25  26
ENDBRANCH   6   5
BRANCH   7   8
ATOM      8  O   UNL     1      48.374  18.077  18.650  0.00  0.00    -0.456 OA
ATOM      9  H   UNL     1      49.296  18.369  18.643  0.00  0.00    +0.389 HD
ENDBRANCH   7   8
BRANCH  14  15
ATOM     15  O   UNL     1      42.687  23.150  19.796  0.00  0.00    -0.490 OA
ATOM     16  H   UNL     1      41.777  22.898  20.003  0.00  0.00    +0.404 HD
ENDBRANCH  14  15
TORSDOF 6
ENDMDL
MODEL 4
REMARK VINA RESULT:      -6.1      5.074      7.538
REMARK  Name = ZINC14644461
REMARK  8 active torsions:
REMARK  status: ('A' for Active; 'I' for Inactive)
REMARK    1  A    between atoms: C1_1  and  O1_2
REMARK    2  A    between atoms: O1_2  and  C2_3
REMARK    3  A    between atoms: C4_5  and  C9_12
REMARK    4  A    between atoms: C6_7  and  O3_10
REMARK    5  A    between atoms: C7_8  and  O2_9
REMARK    6  A    between atoms: O3_10  and  C8_11
REMARK    7  A    between atoms: C10_13  and  O7_24
REMARK    8  A    between atoms: C15_19  and  O6_23
REMARK                            x       y       z     vdW  Elec       q    Type
REMARK                         _______ _______ _______ _____ _____    ______ ____
ROOT
ATOM      6  C   UNL     1      47.907  20.343  19.104  0.00  0.00    +0.171 A 
ATOM      7  C   UNL     1      47.475  19.066  18.896  0.00  0.00    -0.067 A 
ATOM     10  C   UNL     1      46.085  18.791  18.896  0.00  0.00    +0.408 A 
ATOM     11  C   UNL     1      45.169  19.923  19.126  0.00  0.00    -0.230 A 
ATOM     12  C   UNL     1      43.785  19.744  19.143  0.00  0.00    +0.140 A 
ATOM     13  C   UNL     1      42.966  20.815  19.359  0.00  0.00    -0.025 A 
ATOM     14  C   UNL     1      43.504  22.084  19.562  0.00  0.00    +0.178 A 
ATOM     17  C   UNL     1      44.875  22.278  19.548  0.00  0.00    -0.018 A 
ATOM     18  C   UNL     1      45.721  21.200  19.330  0.00  0.00    +0.164 A 
ATOM     19  O   UNL     1      45.662  17.660  18.713  0.00  0.00    -0.449 OA
ATOM     20  O   UNL     1      47.060  21.365  19.312  0.00  0.00    -0.206 OA
ENDROOT
BRANCH   6   5
ATOM      3  C   UNL     1      51.410  20.972  20.304  0.00  0.00    +0.139 A 
ATOM      4  C   UNL     1      50.050  20.720  20.310  0.00  0.00    -0.022 A 
ATOM      5  C   UNL     1      49.356  20.611  19.102  0.00  0.00    -0.003 A 
ATOM     21  C   UNL     1      50.041  20.749  17.891  0.00  0.00    -0.050 A 
ATOM     22  C   UNL     1      51.399  21.006  17.892  0.00  0.00    +0.137 A 
ATOM     25  C   UNL     1      52.087  21.115  19.096  0.00  0.00    +0.068 A 
BRANCH   3   2
ATOM      1  C   UNL     1      52.459  19.860  22.126  0.00  0.00    +0.250 C 
ATOM      2  O   UNL     1      52.086  21.079  21.480  0.00  0.00    -0.298 OA
ENDBRANCH   3   2
BRANCH  22  23
ATOM     23  O   UNL     1      52.065  21.147  16.714  0.00  0.00    -0.299 OA
ATOM     24  C   UNL     1      52.200  19.979  15.902  0.00  0.00    +0.248 C 
ENDBRANCH  22  23
BRANCH  25  26
ATOM     26  O   UNL     1      53.426  21.361  19.094  0.00  0.00    -0.470 OA
ATOM     27  H   UNL     1      53.654  22.298  19.029  0.00  0.00    +0.388 HD
ENDBRANCH  25  26
ENDBRANCH   6   5
BRANCH   7   8
ATOM      8  O   UNL     1      48.373  18.063  18.690  0.00  0.00    -0.456 OA
ATOM      9  H   UNL     1      48.621  17.942  17.763  0.00  0.00    +0.389 HD
ENDBRANCH   7   8
BRANCH  14  15
ATOM     15  O   UNL     1      42.677  23.138  19.781  0.00  0.00    -0.490 OA
ATOM     16  H   UNL     1      41.760  22.887  19.960  0.00  0.00    +0.404 HD
ENDBRANCH  14  15
TORSDOF 6
ENDMDL
MODEL 5
REMARK VINA RESULT:      -5.9      3.378      5.281
REMARK  Name = ZINC14644461
REMARK  8 active torsions:
REMARK  status: ('A' for Active; 'I' for Inactive)
REMARK    1  A    between atoms: C1_1  and  O1_2
REMARK    2  A    between atoms: O1_2  and  C2_3
REMARK    3  A    between atoms: C4_5  and  C9_12
REMARK    4  A    between atoms: C6_7  and  O3_10
REMARK    5  A    between atoms: C7_8  and  O2_9
REMARK    6  A    between atoms: O3_10  and  C8_11
REMARK    7  A    between atoms: C10_13  and  O7_24
REMARK    8  A    between atoms: C15_19  and  O6_23
REMARK                            x       y       z     vdW  Elec       q    Type
REMARK                         _______ _______ _______ _____ _____    ______ ____
ROOT
ATOM      6  C   UNL     1      46.549  18.904  18.962  0.00  0.00    +0.171 A 
ATOM      7  C   UNL     1      46.861  17.788  18.243  0.00  0.00    -0.067 A 
ATOM     10  C   UNL     1      48.180  17.619  17.755  0.00  0.00    +0.408 A 
ATOM     11  C   UNL     1      49.157  18.681  18.059  0.00  0.00    -0.230 A 
ATOM     12  C   UNL     1      50.479  18.597  17.618  0.00  0.00    +0.140 A 
ATOM     13  C   UNL     1      51.358  19.598  17.917  0.00  0.00    -0.025 A 
ATOM     14  C   UNL     1      50.943  20.701  18.661  0.00  0.00    +0.178 A 
ATOM     17  C   UNL     1      49.635  20.799  19.105  0.00  0.00    -0.018 A 
ATOM     18  C   UNL     1      48.730  19.790  18.809  0.00  0.00    +0.164 A 
ATOM     19  O   UNL     1      48.496  16.633  17.107  0.00  0.00    -0.449 OA
ATOM     20  O   UNL     1      47.451  19.863  19.232  0.00  0.00    -0.206 OA
ENDROOT
BRANCH   6   5
ATOM      3  C   UNL     1      43.507  18.653  21.151  0.00  0.00    +0.139 A 
ATOM      4  C   UNL     1      44.800  18.501  20.686  0.00  0.00    -0.022 A 
ATOM      5  C   UNL     1      45.171  19.064  19.462  0.00  0.00    -0.003 A 
ATOM     21  C   UNL     1      44.235  19.785  18.715  0.00  0.00    -0.050 A 
ATOM     22  C   UNL     1      42.942  19.929  19.183  0.00  0.00    +0.137 A 
ATOM     25  C   UNL     1      42.576  19.367  20.402  0.00  0.00    +0.068 A 
BRANCH   3   2
ATOM      1  C   UNL     1      43.329  16.697  22.491  0.00  0.00    +0.250 C 
ATOM      2  O   UNL     1      43.145  18.106  22.343  0.00  0.00    -0.298 OA
ENDBRANCH   3   2
BRANCH  22  23
ATOM     23  O   UNL     1      42.029  20.626  18.454  0.00  0.00    -0.299 OA
ATOM     24  C   UNL     1      41.782  21.977  18.844  0.00  0.00    +0.248 C 
ENDBRANCH  22  23
BRANCH  25  26
ATOM     26  O   UNL     1      41.304  19.516  20.864  0.00  0.00    -0.470 OA
ATOM     27  H   UNL     1      41.233  20.085  21.642  0.00  0.00    +0.388 HD
ENDBRANCH  25  26
ENDBRANCH   6   5
BRANCH   7   8
ATOM      8  O   UNL     1      45.911  16.844  17.996  0.00  0.00    -0.456 OA
ATOM      9  H   UNL     1      46.114  15.975  18.369  0.00  0.00    +0.389 HD
ENDBRANCH   7   8
BRANCH  14  15
ATOM     15  O   UNL     1      51.827  21.692  18.945  0.00  0.00    -0.490 OA
ATOM     16  H   UNL     1      51.795  21.996  19.863  0.00  0.00    +0.404 HD
ENDBRANCH  14  15
TORSDOF 6
ENDMDL
MODEL 6
REMARK VINA RESULT:      -5.7      2.440      6.664
REMARK  Name = ZINC14644461
REMARK  8 active torsions:
REMARK  status: ('A' for Active; 'I' for Inactive)
REMARK    1  A    between atoms: C1_1  and  O1_2
REMARK    2  A    between atoms: O1_2  and  C2_3
REMARK    3  A    between atoms: C4_5  and  C9_12
REMARK    4  A    between atoms: C6_7  and  O3_10
REMARK    5  A    between atoms: C7_8  and  O2_9
REMARK    6  A    between atoms: O3_10  and  C8_11
REMARK    7  A    between atoms: C10_13  and  O7_24
REMARK    8  A    between atoms: C15_19  and  O6_23
REMARK                            x       y       z     vdW  Elec       q    Type
REMARK                         _______ _______ _______ _____ _____    ______ ____
ROOT
ATOM      6  C   UNL     1      44.791  18.602  19.428  0.00  0.00    +0.171 A 
ATOM      7  C   UNL     1      44.327  17.931  20.520  0.00  0.00    -0.067 A 
ATOM     10  C   UNL     1      43.019  18.195  20.998  0.00  0.00    +0.408 A 
ATOM     11  C   UNL     1      42.221  19.199  20.272  0.00  0.00    -0.230 A 
ATOM     12  C   UNL     1      40.923  19.522  20.672  0.00  0.00    +0.140 A 
ATOM     13  C   UNL     1      40.212  20.457  19.977  0.00  0.00    -0.025 A 
ATOM     14  C   UNL     1      40.775  21.090  18.870  0.00  0.00    +0.178 A 
ATOM     17  C   UNL     1      42.061  20.781  18.460  0.00  0.00    -0.018 A 
ATOM     18  C   UNL     1      42.796  19.833  19.157  0.00  0.00    +0.164 A 
ATOM     19  O   UNL     1      42.570  17.613  21.973  0.00  0.00    -0.449 OA
ATOM     20  O   UNL     1      44.051  19.515  18.776  0.00  0.00    -0.206 OA
ENDROOT
BRANCH   6   5
ATOM      3  C   UNL     1      47.654  17.001  17.599  0.00  0.00    +0.139 A 
ATOM      4  C   UNL     1      46.374  17.266  18.050  0.00  0.00    -0.022 A 
ATOM      5  C   UNL     1      46.154  18.317  18.946  0.00  0.00    -0.003 A 
ATOM     21  C   UNL     1      47.228  19.100  19.378  0.00  0.00    -0.050 A 
ATOM     22  C   UNL     1      48.506  18.826  18.927  0.00  0.00    +0.137 A 
ATOM     25  C   UNL     1      48.722  17.779  18.036  0.00  0.00    +0.068 A 
BRANCH   3   2
ATOM      1  C   UNL     1      46.931  14.901  16.749  0.00  0.00    +0.250 C 
ATOM      2  O   UNL     1      47.870  15.979  16.728  0.00  0.00    -0.298 OA
ENDBRANCH   3   2
BRANCH  22  23
ATOM     23  O   UNL     1      49.553  19.584  19.352  0.00  0.00    -0.299 OA
ATOM     24  C   UNL     1      49.707  20.871  18.751  0.00  0.00    +0.248 C 
ENDBRANCH  22  23
BRANCH  25  26
ATOM     26  O   UNL     1      49.980  17.516  17.590  0.00  0.00    -0.470 OA
ATOM     27  H   UNL     1      50.679  17.780  18.203  0.00  0.00    +0.388 HD
ENDBRANCH  25  26
ENDBRANCH   6   5
BRANCH   7   8
ATOM      8  O   UNL     1      45.115  17.015  21.148  0.00  0.00    -0.456 OA
ATOM      9  H   UNL     1      45.739  16.565  20.561  0.00  0.00    +0.389 HD
ENDBRANCH   7   8
BRANCH  14  15
ATOM     15  O   UNL     1      40.057  22.022  18.192  0.00  0.00    -0.490 OA
ATOM     16  H   UNL     1      40.205  22.014  17.237  0.00  0.00    +0.404 HD
ENDBRANCH  14  15
TORSDOF 6
ENDMDL
MODEL 7
REMARK VINA RESULT:      -5.7      2.417      6.285
REMARK  Name = ZINC14644461
REMARK  8 active torsions:
REMARK  status: ('A' for Active; 'I' for Inactive)
REMARK    1  A    between atoms: C1_1  and  O1_2
REMARK    2  A    between atoms: O1_2  and  C2_3
REMARK    3  A    between atoms: C4_5  and  C9_12
REMARK    4  A    between atoms: C6_7  and  O3_10
REMARK    5  A    between atoms: C7_8  and  O2_9
REMARK    6  A    between atoms: O3_10  and  C8_11
REMARK    7  A    between atoms: C10_13  and  O7_24
REMARK    8  A    between atoms: C15_19  and  O6_23
REMARK                            x       y       z     vdW  Elec       q    Type
REMARK                         _______ _______ _______ _____ _____    ______ ____
ROOT
ATOM      6  C   UNL     1      44.759  18.605  19.415  0.00  0.00    +0.171 A 
ATOM      7  C   UNL     1      44.301  17.943  20.515  0.00  0.00    -0.067 A 
ATOM     10  C   UNL     1      42.997  18.214  21.000  0.00  0.00    +0.408 A 
ATOM     11  C   UNL     1      42.197  19.216  20.272  0.00  0.00    -0.230 A 
ATOM     12  C   UNL     1      40.903  19.546  20.679  0.00  0.00    +0.140 A 
ATOM     13  C   UNL     1      40.191  20.479  19.982  0.00  0.00    -0.025 A 
ATOM     14  C   UNL     1      40.748  21.102  18.867  0.00  0.00    +0.178 A 
ATOM     17  C   UNL     1      42.030  20.786  18.451  0.00  0.00    -0.018 A 
ATOM     18  C   UNL     1      42.767  19.840  19.149  0.00  0.00    +0.164 A 
ATOM     19  O   UNL     1      42.553  17.641  21.982  0.00  0.00    -0.449 OA
ATOM     20  O   UNL     1      44.018  19.516  18.762  0.00  0.00    -0.206 OA
ENDROOT
BRANCH   6   5
ATOM      3  C   UNL     1      48.476  18.796  18.906  0.00  0.00    +0.139 A 
ATOM      4  C   UNL     1      47.202  19.074  19.367  0.00  0.00    -0.022 A 
ATOM      5  C   UNL     1      46.118  18.311  18.925  0.00  0.00    -0.003 A 
ATOM     21  C   UNL     1      46.326  17.265  18.023  0.00  0.00    -0.050 A 
ATOM     22  C   UNL     1      47.601  16.995  17.561  0.00  0.00    +0.137 A 
ATOM     25  C   UNL     1      48.678  17.757  18.002  0.00  0.00    +0.068 A 
BRANCH   3   2
ATOM      1  C   UNL     1      49.658  20.856  18.798  0.00  0.00    +0.250 C 
ATOM      2  O   UNL     1      49.531  19.539  19.335  0.00  0.00    -0.298 OA
ENDBRANCH   3   2
BRANCH  22  23
ATOM     23  O   UNL     1      47.803  15.979  16.678  0.00  0.00    -0.299 OA
ATOM     24  C   UNL     1      47.103  14.759  16.923  0.00  0.00    +0.248 C 
ENDBRANCH  22  23
BRANCH  25  26
ATOM     26  O   UNL     1      49.933  17.485  17.552  0.00  0.00    -0.470 OA
ATOM     27  H   UNL     1      49.967  17.204  16.627  0.00  0.00    +0.388 HD
ENDBRANCH  25  26
ENDBRANCH   6   5
BRANCH   7   8
ATOM      8  O   UNL     1      45.090  17.028  21.144  0.00  0.00    -0.456 OA
ATOM      9  H   UNL     1      44.655  16.573  21.878  0.00  0.00    +0.389 HD
ENDBRANCH   7   8
BRANCH  14  15
ATOM     15  O   UNL     1      40.029  22.032  18.187  0.00  0.00    -0.490 OA
ATOM     16  H   UNL     1      40.497  22.866  18.048  0.00  0.00    +0.404 HD
ENDBRANCH  14  15
TORSDOF 6
ENDMDL
MODEL 8
REMARK VINA RESULT:      -5.6      1.784      3.595
REMARK  Name = ZINC14644461
REMARK  8 active torsions:
REMARK  status: ('A' for Active; 'I' for Inactive)
REMARK    1  A    between atoms: C1_1  and  O1_2
REMARK    2  A    between atoms: O1_2  and  C2_3
REMARK    3  A    between atoms: C4_5  and  C9_12
REMARK    4  A    between atoms: C6_7  and  O3_10
REMARK    5  A    between atoms: C7_8  and  O2_9
REMARK    6  A    between atoms: O3_10  and  C8_11
REMARK    7  A    between atoms: C10_13  and  O7_24
REMARK    8  A    between atoms: C15_19  and  O6_23
REMARK                            x       y       z     vdW  Elec       q    Type
REMARK                         _______ _______ _______ _____ _____    ______ ____
ROOT
ATOM      6  C   UNL     1      45.185  17.292  19.544  0.00  0.00    +0.171 A 
ATOM      7  C   UNL     1      44.898  16.335  20.472  0.00  0.00    -0.067 A 
ATOM     10  C   UNL     1      45.249  14.986  20.215  0.00  0.00    +0.408 A 
ATOM     11  C   UNL     1      45.919  14.692  18.935  0.00  0.00    -0.230 A 
ATOM     12  C   UNL     1      46.301  13.392  18.600  0.00  0.00    +0.140 A 
ATOM     13  C   UNL     1      46.919  13.154  17.406  0.00  0.00    -0.025 A 
ATOM     14  C   UNL     1      47.170  14.201  16.522  0.00  0.00    +0.178 A 
ATOM     17  C   UNL     1      46.797  15.496  16.840  0.00  0.00    -0.018 A 
ATOM     18  C   UNL     1      46.168  15.754  18.050  0.00  0.00    +0.164 A 
ATOM     19  O   UNL     1      45.008  14.103  21.023  0.00  0.00    -0.449 OA
ATOM     20  O   UNL     1      45.796  17.008  18.382  0.00  0.00    -0.206 OA
ENDROOT
BRANCH   6   5
ATOM      3  C   UNL     1      43.320  20.552  19.508  0.00  0.00    +0.139 A 
ATOM      4  C   UNL     1      43.668  19.241  19.241  0.00  0.00    -0.022 A 
ATOM      5  C   UNL     1      44.811  18.689  19.827  0.00  0.00    -0.003 A 
ATOM     21  C   UNL     1      45.595  19.464  20.687  0.00  0.00    -0.050 A 
ATOM     22  C   UNL     1      45.244  20.776  20.946  0.00  0.00    +0.137 A 
ATOM     25  C   UNL     1      44.106  21.322  20.361  0.00  0.00    +0.068 A 
BRANCH   3   2
ATOM      1  C   UNL     1      40.965  20.438  19.203  0.00  0.00    +0.250 C 
ATOM      2  O   UNL     1      42.208  21.090  18.938  0.00  0.00    -0.298 OA
ENDBRANCH   3   2
BRANCH  22  23
ATOM     23  O   UNL     1      46.010  21.532  21.779  0.00  0.00    -0.299 OA
ATOM     24  C   UNL     1      47.269  21.979  21.274  0.00  0.00    +0.248 C 
ENDBRANCH  22  23
BRANCH  25  26
ATOM     26  O   UNL     1      43.760  22.612  20.623  0.00  0.00    -0.470 OA
ATOM     27  H   UNL     1      44.513  23.209  20.720  0.00  0.00    +0.388 HD
ENDBRANCH  25  26
ENDBRANCH   6   5
BRANCH   7   8
ATOM      8  O   UNL     1      44.276  16.673  21.636  0.00  0.00    -0.456 OA
ATOM      9  H   UNL     1      43.497  17.233  21.517  0.00  0.00    +0.389 HD
ENDBRANCH   7   8
BRANCH  14  15
ATOM     15  O   UNL     1      47.780  13.948  15.335  0.00  0.00    -0.490 OA
ATOM     16  H   UNL     1      47.944  13.010  15.170  0.00  0.00    +0.404 HD
ENDBRANCH  14  15
TORSDOF 6
ENDMDL
MODEL 9
REMARK VINA RESULT:      -5.3      6.583     10.422
REMARK  Name = ZINC14644461
REMARK  8 active torsions:
REMARK  status: ('A' for Active; 'I' for Inactive)
REMARK    1  A    between atoms: C1_1  and  O1_2
REMARK    2  A    between atoms: O1_2  and  C2_3
REMARK    3  A    between atoms: C4_5  and  C9_12
REMARK    4  A    between atoms: C6_7  and  O3_10
REMARK    5  A    between atoms: C7_8  and  O2_9
REMARK    6  A    between atoms: O3_10  and  C8_11
REMARK    7  A    between atoms: C10_13  and  O7_24
REMARK    8  A    between atoms: C15_19  and  O6_23
REMARK                            x       y       z     vdW  Elec       q    Type
REMARK                         _______ _______ _______ _____ _____    ______ ____
ROOT
ATOM      6  C   UNL     1      50.317  16.250  17.528  0.00  0.00    +0.171 A 
ATOM      7  C   UNL     1      49.615  16.630  18.634  0.00  0.00    -0.067 A 
ATOM     10  C   UNL     1      49.581  17.998  19.003  0.00  0.00    +0.408 A 
ATOM     11  C   UNL     1      50.322  18.948  18.153  0.00  0.00    -0.230 A 
ATOM     12  C   UNL     1      50.344  20.314  18.442  0.00  0.00    +0.140 A 
ATOM     13  C   UNL     1      51.040  21.166  17.634  0.00  0.00    -0.025 A 
ATOM     14  C   UNL     1      51.727  20.680  16.524  0.00  0.00    +0.178 A 
ATOM     17  C   UNL     1      51.716  19.329  16.224  0.00  0.00    -0.018 A 
ATOM     18  C   UNL     1      51.013  18.450  17.036  0.00  0.00    +0.164 A 
ATOM     19  O   UNL     1      48.963  18.376  19.986  0.00  0.00    -0.449 OA
ATOM     20  O   UNL     1      50.987  17.129  16.764  0.00  0.00    -0.206 OA
ENDROOT
BRANCH   6   5
ATOM      3  C   UNL     1      49.265  12.904  16.184  0.00  0.00    +0.139 A 
ATOM      4  C   UNL     1      49.239  14.243  16.529  0.00  0.00    -0.022 A 
ATOM      5  C   UNL     1      50.342  14.823  17.160  0.00  0.00    -0.003 A 
ATOM     21  C   UNL     1      51.473  14.049  17.436  0.00  0.00    -0.050 A 
ATOM     22  C   UNL     1      51.491  12.709  17.093  0.00  0.00    +0.137 A 
ATOM     25  C   UNL     1      50.391  12.135  16.465  0.00  0.00    +0.068 A 
BRANCH   3   2
ATOM      1  C   UNL     1      48.021  12.617  14.178  0.00  0.00    +0.250 C 
ATOM      2  O   UNL     1      48.192  12.339  15.569  0.00  0.00    -0.298 OA
ENDBRANCH   3   2
BRANCH  22  23
ATOM     23  O   UNL     1      52.589  11.954  17.367  0.00  0.00    -0.299 OA
ATOM     24  C   UNL     1      53.139  12.060  18.681  0.00  0.00    +0.248 C 
ENDBRANCH  22  23
BRANCH  25  26
ATOM     26  O   UNL     1      50.415  10.818  16.124  0.00  0.00    -0.470 OA
ATOM     27  H   UNL     1      51.129  10.581  15.518  0.00  0.00    +0.388 HD
ENDBRANCH  25  26
ENDBRANCH   6   5
BRANCH   7   8
ATOM      8  O   UNL     1      48.952  15.702  19.378  0.00  0.00    -0.456 OA
ATOM      9  H   UNL     1      48.745  14.888  18.898  0.00  0.00    +0.389 HD
ENDBRANCH   7   8
BRANCH  14  15
ATOM     15  O   UNL     1      52.421  21.540  15.733  0.00  0.00    -0.490 OA
ATOM     16  H   UNL     1      53.281  21.797  16.091  0.00  0.00    +0.404 HD
ENDBRANCH  14  15
TORSDOF 6
ENDMDL
