MODEL 1
REMARK VINA RESULT:      -5.6      0.000      0.000
REMARK  Name = ZINC95486226
REMARK  6 active torsions:
REMARK  status: ('A' for Active; 'I' for Inactive)
REMARK    1  A    between atoms: C1_1  and  C2_2
REMARK    2  A    between atoms: C2_2  and  C3_3
REMARK    3  A    between atoms: C5_6  and  C18_29
REMARK    4  A    between atoms: C6_8  and  C17_26
REMARK    5  A    between atoms: C6_8  and  O6_28
REMARK    6  A    between atoms: C17_26  and  O5_27
REMARK                            x       y       z     vdW  Elec       q    Type
REMARK                         _______ _______ _______ _____ _____    ______ ____
ROOT
ATOM      3  C   UNL     1      47.467  20.754  19.691  0.00  0.00    +0.035 C 
ATOM      4  C   UNL     1      46.759  19.475  19.242  0.00  0.00    +0.060 C 
ATOM      5  C   UNL     1      47.326  18.281  20.013  0.00  0.00    +0.018 C 
ATOM      6  C   UNL     1      46.249  17.710  20.937  0.00  0.00    +0.065 C 
ATOM      7  C   UNL     1      47.773  17.202  19.024  0.00  0.00    +0.155 C 
ATOM     13  C   UNL     1      49.175  16.761  19.359  0.00  0.00    +0.441 C 
ATOM     14  O   UNL     1      50.026  16.426  18.378  0.00  0.00    -0.328 OA
ATOM     15  C   UNL     1      51.397  16.787  18.557  0.00  0.00    +0.324 C 
ATOM     16  C   UNL     1      51.758  17.886  17.590  0.00  0.00    -0.155 C 
ATOM     17  C   UNL     1      51.590  17.834  16.294  0.00  0.00    +0.071 C 
ATOM     18  C   UNL     1      52.081  19.120  15.692  0.00  0.00    +0.299 C 
ATOM     19  N   UNL     1      52.426  20.050  16.770  0.00  0.00    -0.377 N 
ATOM     20  H   UNL     1      53.352  20.437  16.637  0.00  0.00    +0.446 HD
ATOM     21  C   UNL     1      51.419  21.116  16.869  0.00  0.00    +0.295 C 
ATOM     22  C   UNL     1      50.944  21.172  18.323  0.00  0.00    +0.205 C 
ATOM     23  O   UNL     1      49.515  21.162  18.373  0.00  0.00    -0.339 OA
ATOM     24  C   UNL     1      51.502  19.925  19.013  0.00  0.00    +0.087 C 
ATOM     25  C   UNL     1      52.367  19.211  17.971  0.00  0.00    +0.201 C 
ATOM     26  O   UNL     1      49.532  16.710  20.513  0.00  0.00    -0.456 OA
ATOM     27  C   UNL     1      48.950  20.615  19.461  0.00  0.00    +0.472 C 
ATOM     28  O   UNL     1      49.630  20.010  20.255  0.00  0.00    -0.474 OA
ENDROOT
BRANCH   3   2
ATOM      1  C   UNL     1      46.789  22.446  21.400  0.00  0.00    +0.018 C 
ATOM      2  C   UNL     1      47.202  20.989  21.180  0.00  0.00    +0.056 C 
ENDBRANCH   3   2
BRANCH   7   8
ATOM      8  O   UNL     1      46.889  16.082  19.108  0.00  0.00    -0.517 OA
ATOM      9  H   UNL     1      47.246  15.337  19.610  0.00  0.00    +0.392 HD
ENDBRANCH   7   8
BRANCH   7  10
ATOM     10  C   UNL     1      47.744  17.769  17.603  0.00  0.00    +0.177 C 
BRANCH  10  11
ATOM     11  O   UNL     1      47.690  16.694  16.662  0.00  0.00    -0.553 OA
ATOM     12  H   UNL     1      48.430  16.678  16.040  0.00  0.00    +0.383 HD
ENDBRANCH  10  11
ENDBRANCH   7  10
TORSDOF 4
ENDMDL
MODEL 2
REMARK VINA RESULT:      -5.4      2.725      5.709
REMARK  Name = ZINC95486226
REMARK  6 active torsions:
REMARK  status: ('A' for Active; 'I' for Inactive)
REMARK    1  A    between atoms: C1_1  and  C2_2
REMARK    2  A    between atoms: C2_2  and  C3_3
REMARK    3  A    between atoms: C5_6  and  C18_29
REMARK    4  A    between atoms: C6_8  and  C17_26
REMARK    5  A    between atoms: C6_8  and  O6_28
REMARK    6  A    between atoms: C17_26  and  O5_27
REMARK                            x       y       z     vdW  Elec       q    Type
REMARK                         _______ _______ _______ _____ _____    ______ ____
ROOT
ATOM      3  C   UNL     1      49.594  20.403  19.686  0.00  0.00    +0.035 C 
ATOM      4  C   UNL     1      49.602  18.874  19.719  0.00  0.00    +0.060 C 
ATOM      5  C   UNL     1      48.787  18.334  18.541  0.00  0.00    +0.018 C 
ATOM      6  C   UNL     1      49.718  17.613  17.563  0.00  0.00    +0.065 C 
ATOM      7  C   UNL     1      47.733  17.354  19.058  0.00  0.00    +0.155 C 
ATOM     13  C   UNL     1      46.387  17.713  18.484  0.00  0.00    +0.441 C 
ATOM     14  O   UNL     1      45.277  17.548  19.219  0.00  0.00    -0.328 OA
ATOM     15  C   UNL     1      44.248  18.529  19.070  0.00  0.00    +0.324 C 
ATOM     16  C   UNL     1      44.158  19.358  20.327  0.00  0.00    -0.155 C 
ATOM     17  C   UNL     1      43.995  18.880  21.533  0.00  0.00    +0.071 C 
ATOM     18  C   UNL     1      43.948  20.027  22.503  0.00  0.00    +0.299 C 
ATOM     19  N   UNL     1      44.260  21.268  21.789  0.00  0.00    -0.377 N 
ATOM     20  H   UNL     1      43.566  21.983  21.975  0.00  0.00    +0.446 HD
ATOM     21  C   UNL     1      45.607  21.738  22.143  0.00  0.00    +0.295 C 
ATOM     22  C   UNL     1      46.376  21.968  20.839  0.00  0.00    +0.205 C 
ATOM     23  O   UNL     1      47.649  21.321  20.901  0.00  0.00    -0.339 OA
ATOM     24  C   UNL     1      45.529  21.357  19.720  0.00  0.00    +0.087 C 
ATOM     25  C   UNL     1      44.241  20.862  20.381  0.00  0.00    +0.201 C 
ATOM     26  O   UNL     1      46.307  18.150  17.359  0.00  0.00    -0.456 OA
ATOM     27  C   UNL     1      48.172  20.899  19.738  0.00  0.00    +0.472 C 
ATOM     28  O   UNL     1      47.501  20.916  18.733  0.00  0.00    -0.474 OA
ENDROOT
BRANCH   3   2
ATOM      1  C   UNL     1      51.743  21.149  18.653  0.00  0.00    +0.018 C 
ATOM      2  C   UNL     1      50.257  20.890  18.396  0.00  0.00    +0.056 C 
ENDBRANCH   3   2
BRANCH   7   8
ATOM      8  O   UNL     1      48.081  16.026  18.661  0.00  0.00    -0.517 OA
ATOM      9  H   UNL     1      47.563  15.336  19.099  0.00  0.00    +0.392 HD
ENDBRANCH   7   8
BRANCH   7  10
ATOM     10  C   UNL     1      47.671  17.430  20.585  0.00  0.00    +0.177 C 
BRANCH  10  11
ATOM     11  O   UNL     1      46.988  16.280  21.093  0.00  0.00    -0.553 OA
ATOM     12  H   UNL     1      47.076  16.161  22.048  0.00  0.00    +0.383 HD
ENDBRANCH  10  11
ENDBRANCH   7  10
TORSDOF 4
ENDMDL
MODEL 3
REMARK VINA RESULT:      -5.3      3.699      6.367
REMARK  Name = ZINC95486226
REMARK  6 active torsions:
REMARK  status: ('A' for Active; 'I' for Inactive)
REMARK    1  A    between atoms: C1_1  and  C2_2
REMARK    2  A    between atoms: C2_2  and  C3_3
REMARK    3  A    between atoms: C5_6  and  C18_29
REMARK    4  A    between atoms: C6_8  and  C17_26
REMARK    5  A    between atoms: C6_8  and  O6_28
REMARK    6  A    between atoms: C17_26  and  O5_27
REMARK                            x       y       z     vdW  Elec       q    Type
REMARK                         _______ _______ _______ _____ _____    ______ ____
ROOT
ATOM      3  C   UNL     1      44.942  15.057  21.344  0.00  0.00    +0.035 C 
ATOM      4  C   UNL     1      45.711  14.908  20.029  0.00  0.00    +0.060 C 
ATOM      5  C   UNL     1      47.084  15.571  20.164  0.00  0.00    +0.018 C 
ATOM      6  C   UNL     1      48.176  14.502  20.104  0.00  0.00    +0.065 C 
ATOM      7  C   UNL     1      47.282  16.567  19.020  0.00  0.00    +0.155 C 
ATOM     13  C   UNL     1      47.739  17.890  19.578  0.00  0.00    +0.441 C 
ATOM     14  O   UNL     1      47.334  19.036  19.008  0.00  0.00    -0.328 OA
ATOM     15  C   UNL     1      47.070  20.136  19.880  0.00  0.00    +0.324 C 
ATOM     16  C   UNL     1      45.587  20.405  19.916  0.00  0.00    -0.155 C 
ATOM     17  C   UNL     1      44.835  20.618  18.867  0.00  0.00    +0.071 C 
ATOM     18  C   UNL     1      43.423  20.851  19.325  0.00  0.00    +0.299 C 
ATOM     19  N   UNL     1      43.342  20.600  20.767  0.00  0.00    -0.377 N 
ATOM     20  H   UNL     1      42.894  21.371  21.248  0.00  0.00    +0.446 HD
ATOM     21  C   UNL     1      42.640  19.336  21.028  0.00  0.00    +0.295 C 
ATOM     22  C   UNL     1      43.531  18.490  21.941  0.00  0.00    +0.205 C 
ATOM     23  O   UNL     1      43.666  17.171  21.407  0.00  0.00    -0.339 OA
ATOM     24  C   UNL     1      44.895  19.182  21.983  0.00  0.00    +0.087 C 
ATOM     25  C   UNL     1      44.747  20.468  21.165  0.00  0.00    +0.201 C 
ATOM     26  O   UNL     1      48.471  17.920  20.540  0.00  0.00    -0.456 OA
ATOM     27  C   UNL     1      44.807  16.519  21.683  0.00  0.00    +0.472 C 
ATOM     28  O   UNL     1      45.726  17.105  22.204  0.00  0.00    -0.474 OA
ENDROOT
BRANCH   3   2
ATOM      1  C   UNL     1      45.277  12.871  22.505  0.00  0.00    +0.018 C 
ATOM      2  C   UNL     1      45.701  14.341  22.463  0.00  0.00    +0.056 C 
ENDBRANCH   3   2
BRANCH   7   8
ATOM      8  O   UNL     1      48.270  16.065  18.117  0.00  0.00    -0.517 OA
ATOM      9  H   UNL     1      48.585  15.178  18.333  0.00  0.00    +0.392 HD
ENDBRANCH   7   8
BRANCH   7  10
ATOM     10  C   UNL     1      45.960  16.759  18.274  0.00  0.00    +0.177 C 
BRANCH  10  11
ATOM     11  O   UNL     1      46.221  17.257  16.960  0.00  0.00    -0.553 OA
ATOM     12  H   UNL     1      46.399  18.207  16.929  0.00  0.00    +0.383 HD
ENDBRANCH  10  11
ENDBRANCH   7  10
TORSDOF 4
ENDMDL
MODEL 4
REMARK VINA RESULT:      -5.1     20.030     21.949
REMARK  Name = ZINC95486226
REMARK  6 active torsions:
REMARK  status: ('A' for Active; 'I' for Inactive)
REMARK    1  A    between atoms: C1_1  and  C2_2
REMARK    2  A    between atoms: C2_2  and  C3_3
REMARK    3  A    between atoms: C5_6  and  C18_29
REMARK    4  A    between atoms: C6_8  and  C17_26
REMARK    5  A    between atoms: C6_8  and  O6_28
REMARK    6  A    between atoms: C17_26  and  O5_27
REMARK                            x       y       z     vdW  Elec       q    Type
REMARK                         _______ _______ _______ _____ _____    ______ ____
ROOT
ATOM      3  C   UNL     1      50.509  35.124   3.454  0.00  0.00    +0.035 C 
ATOM      4  C   UNL     1      51.174  35.143   2.077  0.00  0.00    +0.060 C 
ATOM      5  C   UNL     1      51.503  33.711   1.649  0.00  0.00    +0.018 C 
ATOM      6  C   UNL     1      50.640  33.326   0.445  0.00  0.00    +0.065 C 
ATOM      7  C   UNL     1      52.981  33.619   1.268  0.00  0.00    +0.155 C 
ATOM     13  C   UNL     1      53.613  32.449   1.977  0.00  0.00    +0.441 C 
ATOM     14  O   UNL     1      54.884  32.526   2.398  0.00  0.00    -0.328 OA
ATOM     15  C   UNL     1      55.196  31.888   3.639  0.00  0.00    +0.324 C 
ATOM     16  C   UNL     1      55.485  32.937   4.683  0.00  0.00    -0.155 C 
ATOM     17  C   UNL     1      56.368  33.895   4.565  0.00  0.00    +0.071 C 
ATOM     18  C   UNL     1      56.356  34.719   5.821  0.00  0.00    +0.299 C 
ATOM     19  N   UNL     1      55.254  34.270   6.676  0.00  0.00    -0.377 N 
ATOM     20  H   UNL     1      55.573  34.088   7.620  0.00  0.00    +0.446 HD
ATOM     21  C   UNL     1      54.165  35.257   6.668  0.00  0.00    +0.295 C 
ATOM     22  C   UNL     1      52.871  34.518   6.316  0.00  0.00    +0.205 C 
ATOM     23  O   UNL     1      52.186  35.205   5.267  0.00  0.00    -0.339 OA
ATOM     24  C   UNL     1      53.281  33.120   5.848  0.00  0.00    +0.087 C 
ATOM     25  C   UNL     1      54.800  33.039   6.022  0.00  0.00    +0.201 C 
ATOM     26  O   UNL     1      52.973  31.441   2.167  0.00  0.00    -0.456 OA
ATOM     27  C   UNL     1      51.428  34.459   4.447  0.00  0.00    +0.472 C 
ATOM     28  O   UNL     1      51.484  33.253   4.504  0.00  0.00    -0.474 OA
ENDROOT
BRANCH   3   2
ATOM      1  C   UNL     1      48.050  35.311   3.056  0.00  0.00    +0.018 C 
ATOM      2  C   UNL     1      49.194  34.346   3.375  0.00  0.00    +0.056 C 
ENDBRANCH   3   2
BRANCH   7   8
ATOM      8  O   UNL     1      53.099  33.439  -0.145  0.00  0.00    -0.517 OA
ATOM      9  H   UNL     1      53.725  34.042  -0.568  0.00  0.00    +0.392 HD
ENDBRANCH   7   8
BRANCH   7  10
ATOM     10  C   UNL     1      53.695  34.909   1.678  0.00  0.00    +0.177 C 
BRANCH  10  11
ATOM     11  O   UNL     1      54.942  35.005   0.986  0.00  0.00    -0.553 OA
ATOM     12  H   UNL     1      55.700  34.687   1.495  0.00  0.00    +0.383 HD
ENDBRANCH  10  11
ENDBRANCH   7  10
TORSDOF 4
ENDMDL
MODEL 5
REMARK VINA RESULT:      -4.9      2.714      5.088
REMARK  Name = ZINC95486226
REMARK  6 active torsions:
REMARK  status: ('A' for Active; 'I' for Inactive)
REMARK    1  A    between atoms: C1_1  and  C2_2
REMARK    2  A    between atoms: C2_2  and  C3_3
REMARK    3  A    between atoms: C5_6  and  C18_29
REMARK    4  A    between atoms: C6_8  and  C17_26
REMARK    5  A    between atoms: C6_8  and  O6_28
REMARK    6  A    between atoms: C17_26  and  O5_27
REMARK                            x       y       z     vdW  Elec       q    Type
REMARK                         _______ _______ _______ _____ _____    ______ ____
ROOT
ATOM      3  C   UNL     1      47.038  19.937  19.859  0.00  0.00    +0.035 C 
ATOM      4  C   UNL     1      48.535  19.857  20.163  0.00  0.00    +0.060 C 
ATOM      5  C   UNL     1      49.307  19.615  18.864  0.00  0.00    +0.018 C 
ATOM      6  C   UNL     1      50.158  20.845  18.539  0.00  0.00    +0.065 C 
ATOM      7  C   UNL     1      50.215  18.395  19.030  0.00  0.00    +0.155 C 
ATOM     13  C   UNL     1      50.013  17.456  17.869  0.00  0.00    +0.441 C 
ATOM     14  O   UNL     1      50.082  16.129  18.059  0.00  0.00    -0.328 OA
ATOM     15  C   UNL     1      49.182  15.318  17.301  0.00  0.00    +0.324 C 
ATOM     16  C   UNL     1      48.144  14.727  18.222  0.00  0.00    -0.155 C 
ATOM     17  C   UNL     1      48.401  14.029  19.298  0.00  0.00    +0.071 C 
ATOM     18  C   UNL     1      47.101  13.617  19.927  0.00  0.00    +0.299 C 
ATOM     19  N   UNL     1      45.998  14.270  19.216  0.00  0.00    -0.377 N 
ATOM     20  H   UNL     1      45.287  13.599  18.948  0.00  0.00    +0.446 HD
ATOM     21  C   UNL     1      45.425  15.346  20.036  0.00  0.00    +0.295 C 
ATOM     22  C   UNL     1      45.406  16.618  19.184  0.00  0.00    +0.205 C 
ATOM     23  O   UNL     1      45.986  17.703  19.912  0.00  0.00    -0.339 OA
ATOM     24  C   UNL     1      46.239  16.319  17.935  0.00  0.00    +0.087 C 
ATOM     25  C   UNL     1      46.653  14.849  18.039  0.00  0.00    +0.201 C 
ATOM     26  O   UNL     1      49.789  17.898  16.767  0.00  0.00    -0.456 OA
ATOM     27  C   UNL     1      46.592  18.661  19.193  0.00  0.00    +0.472 C 
ATOM     28  O   UNL     1      46.780  18.500  18.010  0.00  0.00    -0.474 OA
ENDROOT
BRANCH   3   2
ATOM      1  C   UNL     1      45.321  21.585  19.100  0.00  0.00    +0.018 C 
ATOM      2  C   UNL     1      46.769  21.121  18.928  0.00  0.00    +0.056 C 
ENDBRANCH   3   2
BRANCH   7   8
ATOM      8  O   UNL     1      51.579  18.819  19.069  0.00  0.00    -0.517 OA
ATOM      9  H   UNL     1      52.164  18.217  19.549  0.00  0.00    +0.392 HD
ENDBRANCH   7   8
BRANCH   7  10
ATOM     10  C   UNL     1      49.867  17.675  20.335  0.00  0.00    +0.177 C 
BRANCH  10  11
ATOM     11  O   UNL     1      50.933  16.790  20.689  0.00  0.00    -0.553 OA
ATOM     12  H   UNL     1      50.709  16.169  21.396  0.00  0.00    +0.383 HD
ENDBRANCH  10  11
ENDBRANCH   7  10
TORSDOF 4
ENDMDL
MODEL 6
REMARK VINA RESULT:      -4.8      1.618      2.024
REMARK  Name = ZINC95486226
REMARK  6 active torsions:
REMARK  status: ('A' for Active; 'I' for Inactive)
REMARK    1  A    between atoms: C1_1  and  C2_2
REMARK    2  A    between atoms: C2_2  and  C3_3
REMARK    3  A    between atoms: C5_6  and  C18_29
REMARK    4  A    between atoms: C6_8  and  C17_26
REMARK    5  A    between atoms: C6_8  and  O6_28
REMARK    6  A    between atoms: C17_26  and  O5_27
REMARK                            x       y       z     vdW  Elec       q    Type
REMARK                         _______ _______ _______ _____ _____    ______ ____
ROOT
ATOM      3  C   UNL     1      46.068  21.056  19.094  0.00  0.00    +0.035 C 
ATOM      4  C   UNL     1      45.391  19.774  18.607  0.00  0.00    +0.060 C 
ATOM      5  C   UNL     1      45.430  18.723  19.719  0.00  0.00    +0.018 C 
ATOM      6  C   UNL     1      44.008  18.447  20.212  0.00  0.00    +0.065 C 
ATOM      7  C   UNL     1      46.042  17.430  19.178  0.00  0.00    +0.155 C 
ATOM     13  C   UNL     1      47.125  16.955  20.112  0.00  0.00    +0.441 C 
ATOM     14  O   UNL     1      48.220  16.355  19.621  0.00  0.00    -0.328 OA
ATOM     15  C   UNL     1      49.460  16.632  20.276  0.00  0.00    +0.324 C 
ATOM     16  C   UNL     1      50.327  17.473  19.373  0.00  0.00    -0.155 C 
ATOM     17  C   UNL     1      50.655  17.166  18.144  0.00  0.00    +0.071 C 
ATOM     18  C   UNL     1      51.533  18.255  17.594  0.00  0.00    +0.299 C 
ATOM     19  N   UNL     1      51.586  19.357  18.558  0.00  0.00    -0.377 N 
ATOM     20  H   UNL     1      52.543  19.631  18.748  0.00  0.00    +0.446 HD
ATOM     21  C   UNL     1      50.797  20.499  18.075  0.00  0.00    +0.295 C 
ATOM     22  C   UNL     1      49.823  20.895  19.187  0.00  0.00    +0.205 C 
ATOM     23  O   UNL     1      48.500  21.012  18.661  0.00  0.00    -0.339 OA
ATOM     24  C   UNL     1      49.876  19.777  20.231  0.00  0.00    +0.087 C 
ATOM     25  C   UNL     1      50.947  18.794  19.751  0.00  0.00    +0.201 C 
ATOM     26  O   UNL     1      47.007  17.116  21.304  0.00  0.00    -0.456 OA
ATOM     27  C   UNL     1      47.486  20.752  19.502  0.00  0.00    +0.472 C 
ATOM     28  O   UNL     1      47.712  20.271  20.588  0.00  0.00    -0.474 OA
ENDROOT
BRANCH   3   2
ATOM      1  C   UNL     1      44.047  22.342  19.802  0.00  0.00    +0.018 C 
ATOM      2  C   UNL     1      45.301  21.616  20.293  0.00  0.00    +0.056 C 
ENDBRANCH   3   2
BRANCH   7   8
ATOM      8  O   UNL     1      45.027  16.428  19.077  0.00  0.00    -0.517 OA
ATOM      9  H   UNL     1      44.290  16.672  18.501  0.00  0.00    +0.392 HD
ENDBRANCH   7   8
BRANCH   7  10
ATOM     10  C   UNL     1      46.641  17.690  17.794  0.00  0.00    +0.177 C 
BRANCH  10  11
ATOM     11  O   UNL     1      46.685  16.466  17.056  0.00  0.00    -0.553 OA
ATOM     12  H   UNL     1      47.554  16.263  16.685  0.00  0.00    +0.383 HD
ENDBRANCH  10  11
ENDBRANCH   7  10
TORSDOF 4
ENDMDL
MODEL 7
REMARK VINA RESULT:      -4.8      2.471      4.490
REMARK  Name = ZINC95486226
REMARK  6 active torsions:
REMARK  status: ('A' for Active; 'I' for Inactive)
REMARK    1  A    between atoms: C1_1  and  C2_2
REMARK    2  A    between atoms: C2_2  and  C3_3
REMARK    3  A    between atoms: C5_6  and  C18_29
REMARK    4  A    between atoms: C6_8  and  C17_26
REMARK    5  A    between atoms: C6_8  and  O6_28
REMARK    6  A    between atoms: C17_26  and  O5_27
REMARK                            x       y       z     vdW  Elec       q    Type
REMARK                         _______ _______ _______ _____ _____    ______ ____
ROOT
ATOM      3  C   UNL     1      49.733  20.180  18.897  0.00  0.00    +0.035 C 
ATOM      4  C   UNL     1      48.305  20.729  18.893  0.00  0.00    +0.060 C 
ATOM      5  C   UNL     1      47.610  20.351  20.202  0.00  0.00    +0.018 C 
ATOM      6  C   UNL     1      47.338  21.615  21.020  0.00  0.00    +0.065 C 
ATOM      7  C   UNL     1      46.286  19.650  19.893  0.00  0.00    +0.155 C 
ATOM     13  C   UNL     1      46.197  18.369  20.682  0.00  0.00    +0.441 C 
ATOM     14  O   UNL     1      45.599  17.292  20.151  0.00  0.00    -0.328 OA
ATOM     15  C   UNL     1      46.168  16.017  20.455  0.00  0.00    +0.324 C 
ATOM     16  C   UNL     1      46.811  15.446  19.217  0.00  0.00    -0.155 C 
ATOM     17  C   UNL     1      46.213  15.282  18.065  0.00  0.00    +0.071 C 
ATOM     18  C   UNL     1      47.191  14.680  17.096  0.00  0.00    +0.299 C 
ATOM     19  N   UNL     1      48.516  14.635  17.722  0.00  0.00    -0.377 N 
ATOM     20  H   UNL     1      48.926  13.711  17.643  0.00  0.00    +0.446 HD
ATOM     21  C   UNL     1      49.396  15.654  17.133  0.00  0.00    +0.295 C 
ATOM     22  C   UNL     1      49.982  16.480  18.281  0.00  0.00    +0.205 C 
ATOM     23  O   UNL     1      49.817  17.874  18.015  0.00  0.00    -0.339 OA
ATOM     24  C   UNL     1      49.205  16.089  19.540  0.00  0.00    +0.087 C 
ATOM     25  C   UNL     1      48.240  14.977  19.120  0.00  0.00    +0.201 C 
ATOM     26  O   UNL     1      46.667  18.312  21.795  0.00  0.00    -0.456 OA
ATOM     27  C   UNL     1      49.696  18.685  19.079  0.00  0.00    +0.472 C 
ATOM     28  O   UNL     1      49.558  18.215  20.184  0.00  0.00    -0.474 OA
ENDROOT
BRANCH   3   2
ATOM      1  C   UNL     1      51.887  21.276  19.532  0.00  0.00    +0.018 C 
ATOM      2  C   UNL     1      50.520  20.815  20.045  0.00  0.00    +0.056 C 
ENDBRANCH   3   2
BRANCH   7   8
ATOM      8  O   UNL     1      45.198  20.505  20.250  0.00  0.00    -0.517 OA
ATOM      9  H   UNL     1      45.472  21.353  20.625  0.00  0.00    +0.392 HD
ENDBRANCH   7   8
BRANCH   7  10
ATOM     10  C   UNL     1      46.214  19.332  18.397  0.00  0.00    +0.177 C 
BRANCH  10  11
ATOM     11  O   UNL     1      44.847  19.191  18.005  0.00  0.00    -0.553 OA
ATOM     12  H   UNL     1      44.241  19.782  18.472  0.00  0.00    +0.383 HD
ENDBRANCH  10  11
ENDBRANCH   7  10
TORSDOF 4
ENDMDL
MODEL 8
REMARK VINA RESULT:      -4.8      3.391      6.255
REMARK  Name = ZINC95486226
REMARK  6 active torsions:
REMARK  status: ('A' for Active; 'I' for Inactive)
REMARK    1  A    between atoms: C1_1  and  C2_2
REMARK    2  A    between atoms: C2_2  and  C3_3
REMARK    3  A    between atoms: C5_6  and  C18_29
REMARK    4  A    between atoms: C6_8  and  C17_26
REMARK    5  A    between atoms: C6_8  and  O6_28
REMARK    6  A    between atoms: C17_26  and  O5_27
REMARK                            x       y       z     vdW  Elec       q    Type
REMARK                         _______ _______ _______ _____ _____    ______ ____
ROOT
ATOM      3  C   UNL     1      45.819  16.456  18.859  0.00  0.00    +0.035 C 
ATOM      4  C   UNL     1      47.272  16.890  18.658  0.00  0.00    +0.060 C 
ATOM      5  C   UNL     1      47.954  17.036  20.020  0.00  0.00    +0.018 C 
ATOM      6  C   UNL     1      49.036  15.965  20.167  0.00  0.00    +0.065 C 
ATOM      7  C   UNL     1      48.591  18.423  20.125  0.00  0.00    +0.155 C 
ATOM     13  C   UNL     1      48.178  19.070  21.422  0.00  0.00    +0.441 C 
ATOM     14  O   UNL     1      47.972  20.395  21.477  0.00  0.00    -0.328 OA
ATOM     15  C   UNL     1      46.910  20.853  22.315  0.00  0.00    +0.324 C 
ATOM     16  C   UNL     1      45.788  21.384  21.459  0.00  0.00    -0.155 C 
ATOM     17  C   UNL     1      45.913  22.307  20.541  0.00  0.00    +0.071 C 
ATOM     18  C   UNL     1      44.567  22.559  19.924  0.00  0.00    +0.299 C 
ATOM     19  N   UNL     1      43.612  21.577  20.445  0.00  0.00    -0.377 N 
ATOM     20  H   UNL     1      42.773  22.029  20.788  0.00  0.00    +0.446 HD
ATOM     21  C   UNL     1      43.290  20.580  19.416  0.00  0.00    +0.295 C 
ATOM     22  C   UNL     1      43.521  19.193  20.024  0.00  0.00    +0.205 C 
ATOM     23  O   UNL     1      44.326  18.403  19.147  0.00  0.00    -0.339 OA
ATOM     24  C   UNL     1      44.251  19.416  21.351  0.00  0.00    +0.087 C 
ATOM     25  C   UNL     1      44.352  20.932  21.534  0.00  0.00    +0.201 C 
ATOM     26  O   UNL     1      48.031  18.395  22.414  0.00  0.00    -0.456 OA
ATOM     27  C   UNL     1      45.106  17.469  19.716  0.00  0.00    +0.472 C 
ATOM     28  O   UNL     1      45.235  17.441  20.918  0.00  0.00    -0.474 OA
ENDROOT
BRANCH   3   2
ATOM      1  C   UNL     1      45.862  13.985  18.491  0.00  0.00    +0.018 C 
ATOM      2  C   UNL     1      45.786  15.090  19.547  0.00  0.00    +0.056 C 
ENDBRANCH   3   2
BRANCH   7   8
ATOM      8  O   UNL     1      50.014  18.298  20.087  0.00  0.00    -0.517 OA
ATOM      9  H   UNL     1      50.365  17.625  20.685  0.00  0.00    +0.392 HD
ENDBRANCH   7   8
BRANCH   7  10
ATOM     10  C   UNL     1      48.124  19.289  18.953  0.00  0.00    +0.177 C 
BRANCH  10  11
ATOM     11  O   UNL     1      48.983  20.425  18.828  0.00  0.00    -0.553 OA
ATOM     12  H   UNL     1      48.697  21.193  19.342  0.00  0.00    +0.383 HD
ENDBRANCH  10  11
ENDBRANCH   7  10
TORSDOF 4
ENDMDL
MODEL 9
REMARK VINA RESULT:      -4.7      2.548      4.901
REMARK  Name = ZINC95486226
REMARK  6 active torsions:
REMARK  status: ('A' for Active; 'I' for Inactive)
REMARK    1  A    between atoms: C1_1  and  C2_2
REMARK    2  A    between atoms: C2_2  and  C3_3
REMARK    3  A    between atoms: C5_6  and  C18_29
REMARK    4  A    between atoms: C6_8  and  C17_26
REMARK    5  A    between atoms: C6_8  and  O6_28
REMARK    6  A    between atoms: C17_26  and  O5_27
REMARK                            x       y       z     vdW  Elec       q    Type
REMARK                         _______ _______ _______ _____ _____    ______ ____
ROOT
ATOM      3  C   UNL     1      48.449  19.694  19.704  0.00  0.00    +0.035 C 
ATOM      4  C   UNL     1      49.955  19.964  19.738  0.00  0.00    +0.060 C 
ATOM      5  C   UNL     1      50.528  19.829  18.325  0.00  0.00    +0.018 C 
ATOM      6  C   UNL     1      51.010  21.196  17.836  0.00  0.00    +0.065 C 
ATOM      7  C   UNL     1      51.704  18.851  18.344  0.00  0.00    +0.155 C 
ATOM     13  C   UNL     1      51.527  17.828  17.251  0.00  0.00    +0.441 C 
ATOM     14  O   UNL     1      51.927  16.562  17.445  0.00  0.00    -0.328 OA
ATOM     15  C   UNL     1      51.119  15.532  16.871  0.00  0.00    +0.324 C 
ATOM     16  C   UNL     1      50.415  14.776  17.970  0.00  0.00    -0.155 C 
ATOM     17  C   UNL     1      51.003  14.213  18.994  0.00  0.00    +0.071 C 
ATOM     18  C   UNL     1      49.958  13.558  19.850  0.00  0.00    +0.299 C 
ATOM     19  N   UNL     1      48.631  13.911  19.337  0.00  0.00    -0.377 N 
ATOM     20  H   UNL     1      48.056  13.086  19.211  0.00  0.00    +0.446 HD
ATOM     21  C   UNL     1      47.977  14.876  20.231  0.00  0.00    +0.295 C 
ATOM     22  C   UNL     1      47.524  16.065  19.378  0.00  0.00    +0.205 C 
ATOM     23  O   UNL     1      47.957  17.289  19.976  0.00  0.00    -0.339 OA
ATOM     24  C   UNL     1      48.177  15.890  18.005  0.00  0.00    +0.087 C 
ATOM     25  C   UNL     1      48.926  14.556  18.055  0.00  0.00    +0.201 C 
ATOM     26  O   UNL     1      51.024  18.149  16.200  0.00  0.00    -0.456 OA
ATOM     27  C   UNL     1      48.198  18.317  19.147  0.00  0.00    +0.472 C 
ATOM     28  O   UNL     1      48.213  18.138  17.951  0.00  0.00    -0.474 OA
ENDROOT
BRANCH   3   2
ATOM      1  C   UNL     1      46.267  20.769  19.136  0.00  0.00    +0.018 C 
ATOM      2  C   UNL     1      47.764  20.737  18.819  0.00  0.00    +0.056 C 
ENDBRANCH   3   2
BRANCH   7   8
ATOM      8  O   UNL     1      52.923  19.566  18.133  0.00  0.00    -0.517 OA
ATOM      9  H   UNL     1      53.489  19.619  18.915  0.00  0.00    +0.392 HD
ENDBRANCH   7   8
BRANCH   7  10
ATOM     10  C   UNL     1      51.757  18.143  19.700  0.00  0.00    +0.177 C 
BRANCH  10  11
ATOM     11  O   UNL     1      52.983  17.415  19.810  0.00  0.00    -0.553 OA
ATOM     12  H   UNL     1      53.381  17.446  20.691  0.00  0.00    +0.383 HD
ENDBRANCH  10  11
ENDBRANCH   7  10
TORSDOF 4
ENDMDL
