MODEL 1
REMARK VINA RESULT:      -5.3      0.000      0.000
REMARK  Name = ZINC34181679
REMARK  8 active torsions:
REMARK  status: ('A' for Active; 'I' for Inactive)
REMARK    1  A    between atoms: C1_1  and  C2_2
REMARK    2  A    between atoms: C2_2  and  C3_3
REMARK    3  A    between atoms: C3_3  and  O1_4
REMARK    4  A    between atoms: O1_4  and  C4_5
REMARK    5  A    between atoms: C4_5  and  C5_7
REMARK    6  A    between atoms: C6_8  and  C7_9
REMARK    7  A    between atoms: C10_12  and  O4_16
REMARK    8  A    between atoms: C11_13  and  O3_15
REMARK                            x       y       z     vdW  Elec       q    Type
REMARK                         _______ _______ _______ _____ _____    ______ ____
ROOT
ATOM      8  C   UNL     1      45.744  20.941  18.916  0.00  0.00    -0.080 A 
ATOM      9  C   UNL     1      44.941  19.832  18.621  0.00  0.00    +0.054 A 
ATOM     10  C   UNL     1      43.586  19.881  18.862  0.00  0.00    +0.007 A 
ATOM     11  C   UNL     1      43.013  21.026  19.399  0.00  0.00    +0.101 A 
ATOM     14  C   UNL     1      43.806  22.133  19.696  0.00  0.00    +0.078 A 
ATOM     17  C   UNL     1      45.167  22.092  19.463  0.00  0.00    +0.043 A 
ENDROOT
BRANCH   8   7
ATOM      6  C   UNL     1      48.051  20.686  19.680  0.00  0.00    -0.063 C 
ATOM      7  C   UNL     1      47.191  20.892  18.659  0.00  0.00    +0.154 C 
BRANCH   6   5
ATOM      5  C   UNL     1      49.446  20.639  19.432  0.00  0.00    +0.501 C 
ATOM     18  O   UNL     1      50.185  20.074  20.217  0.00  0.00    -0.514 OA
BRANCH   5   4
ATOM      4  O   UNL     1      49.955  21.223  18.328  0.00  0.00    -0.351 OA
BRANCH   4   3
ATOM      3  C   UNL     1      51.297  20.886  17.975  0.00  0.00    +0.201 C 
BRANCH   3   2
ATOM      1  C   UNL     1      52.128  19.921  15.824  0.00  0.00    +0.032 C 
ATOM      2  C   UNL     1      51.518  21.159  16.486  0.00  0.00    +0.025 C 
ENDBRANCH   3   2
ENDBRANCH   4   3
ENDBRANCH   5   4
ENDBRANCH   6   5
ENDBRANCH   8   7
BRANCH  11  12
ATOM     12  O   UNL     1      41.676  21.068  19.634  0.00  0.00    -0.486 OA
ATOM     13  H   UNL     1      41.164  21.478  18.923  0.00  0.00    +0.392 HD
ENDBRANCH  11  12
BRANCH  14  15
ATOM     15  O   UNL     1      43.241  23.254  20.223  0.00  0.00    -0.485 OA
ATOM     16  H   UNL     1      43.380  24.050  19.692  0.00  0.00    +0.390 HD
ENDBRANCH  14  15
TORSDOF 7
ENDMDL
MODEL 2
REMARK VINA RESULT:      -5.2      1.528      2.290
REMARK  Name = ZINC34181679
REMARK  8 active torsions:
REMARK  status: ('A' for Active; 'I' for Inactive)
REMARK    1  A    between atoms: C1_1  and  C2_2
REMARK    2  A    between atoms: C2_2  and  C3_3
REMARK    3  A    between atoms: C3_3  and  O1_4
REMARK    4  A    between atoms: O1_4  and  C4_5
REMARK    5  A    between atoms: C4_5  and  C5_7
REMARK    6  A    between atoms: C6_8  and  C7_9
REMARK    7  A    between atoms: C10_12  and  O4_16
REMARK    8  A    between atoms: C11_13  and  O3_15
REMARK                            x       y       z     vdW  Elec       q    Type
REMARK                         _______ _______ _______ _____ _____    ______ ____
ROOT
ATOM      8  C   UNL     1      46.585  21.202  19.858  0.00  0.00    -0.080 A 
ATOM      9  C   UNL     1      47.048  21.836  21.018  0.00  0.00    +0.054 A 
ATOM     10  C   UNL     1      46.198  22.632  21.753  0.00  0.00    +0.007 A 
ATOM     11  C   UNL     1      44.882  22.809  21.347  0.00  0.00    +0.101 A 
ATOM     14  C   UNL     1      44.413  22.183  20.193  0.00  0.00    +0.078 A 
ATOM     17  C   UNL     1      45.260  21.387  19.446  0.00  0.00    +0.043 A 
ENDROOT
BRANCH   8   7
ATOM      6  C   UNL     1      48.804  20.299  19.379  0.00  0.00    -0.063 C 
ATOM      7  C   UNL     1      47.490  20.352  19.072  0.00  0.00    +0.154 C 
BRANCH   6   5
ATOM      5  C   UNL     1      49.677  19.479  18.620  0.00  0.00    +0.501 C 
ATOM     18  O   UNL     1      49.246  18.489  18.059  0.00  0.00    -0.514 OA
BRANCH   5   4
ATOM      4  O   UNL     1      50.985  19.795  18.522  0.00  0.00    -0.351 OA
BRANCH   4   3
ATOM      3  C   UNL     1      51.302  21.123  18.104  0.00  0.00    +0.201 C 
BRANCH   3   2
ATOM      1  C   UNL     1      52.169  19.940  16.081  0.00  0.00    +0.032 C 
ATOM      2  C   UNL     1      51.404  21.169  16.578  0.00  0.00    +0.025 C 
ENDBRANCH   3   2
ENDBRANCH   4   3
ENDBRANCH   5   4
ENDBRANCH   6   5
ENDBRANCH   8   7
BRANCH  11  12
ATOM     12  O   UNL     1      44.048  23.596  22.076  0.00  0.00    -0.486 OA
ATOM     13  H   UNL     1      44.475  24.029  22.828  0.00  0.00    +0.392 HD
ENDBRANCH  11  12
BRANCH  14  15
ATOM     15  O   UNL     1      43.124  22.360  19.797  0.00  0.00    -0.485 OA
ATOM     16  H   UNL     1      42.992  23.124  19.220  0.00  0.00    +0.390 HD
ENDBRANCH  14  15
TORSDOF 7
ENDMDL
MODEL 3
REMARK VINA RESULT:      -5.0      2.196      7.018
REMARK  Name = ZINC34181679
REMARK  8 active torsions:
REMARK  status: ('A' for Active; 'I' for Inactive)
REMARK    1  A    between atoms: C1_1  and  C2_2
REMARK    2  A    between atoms: C2_2  and  C3_3
REMARK    3  A    between atoms: C3_3  and  O1_4
REMARK    4  A    between atoms: O1_4  and  C4_5
REMARK    5  A    between atoms: C4_5  and  C5_7
REMARK    6  A    between atoms: C6_8  and  C7_9
REMARK    7  A    between atoms: C10_12  and  O4_16
REMARK    8  A    between atoms: C11_13  and  O3_15
REMARK                            x       y       z     vdW  Elec       q    Type
REMARK                         _______ _______ _______ _____ _____    ______ ____
ROOT
ATOM      8  C   UNL     1      50.053  20.246  18.525  0.00  0.00    -0.080 A 
ATOM      9  C   UNL     1      50.104  18.864  18.301  0.00  0.00    +0.054 A 
ATOM     10  C   UNL     1      50.909  18.358  17.305  0.00  0.00    +0.007 A 
ATOM     11  C   UNL     1      51.671  19.214  16.521  0.00  0.00    +0.101 A 
ATOM     14  C   UNL     1      51.625  20.590  16.737  0.00  0.00    +0.078 A 
ATOM     17  C   UNL     1      50.816  21.108  17.730  0.00  0.00    +0.043 A 
ENDROOT
BRANCH   8   7
ATOM      6  C   UNL     1      47.851  20.775  19.443  0.00  0.00    -0.063 C 
ATOM      7  C   UNL     1      49.195  20.789  19.587  0.00  0.00    +0.154 C 
BRANCH   6   5
ATOM      5  C   UNL     1      47.023  21.300  20.468  0.00  0.00    +0.501 C 
ATOM     18  O   UNL     1      47.504  21.999  21.339  0.00  0.00    -0.514 OA
BRANCH   5   4
ATOM      4  O   UNL     1      45.703  21.022  20.477  0.00  0.00    -0.351 OA
BRANCH   4   3
ATOM      3  C   UNL     1      44.906  21.626  19.458  0.00  0.00    +0.201 C 
BRANCH   3   2
ATOM      1  C   UNL     1      44.603  24.088  19.154  0.00  0.00    +0.032 C 
ATOM      2  C   UNL     1      44.228  22.880  20.015  0.00  0.00    +0.025 C 
ENDBRANCH   3   2
ENDBRANCH   4   3
ENDBRANCH   5   4
ENDBRANCH   6   5
ENDBRANCH   8   7
BRANCH  11  12
ATOM     12  O   UNL     1      52.464  18.709  15.540  0.00  0.00    -0.486 OA
ATOM     13  H   UNL     1      52.967  17.926  15.806  0.00  0.00    +0.392 HD
ENDBRANCH  11  12
BRANCH  14  15
ATOM     15  O   UNL     1      52.373  21.426  15.966  0.00  0.00    -0.485 OA
ATOM     16  H   UNL     1      52.853  20.980  15.256  0.00  0.00    +0.390 HD
ENDBRANCH  14  15
TORSDOF 7
ENDMDL
MODEL 4
REMARK VINA RESULT:      -5.0     18.281     19.838
REMARK  Name = ZINC34181679
REMARK  8 active torsions:
REMARK  status: ('A' for Active; 'I' for Inactive)
REMARK    1  A    between atoms: C1_1  and  C2_2
REMARK    2  A    between atoms: C2_2  and  C3_3
REMARK    3  A    between atoms: C3_3  and  O1_4
REMARK    4  A    between atoms: O1_4  and  C4_5
REMARK    5  A    between atoms: C4_5  and  C5_7
REMARK    6  A    between atoms: C6_8  and  C7_9
REMARK    7  A    between atoms: C10_12  and  O4_16
REMARK    8  A    between atoms: C11_13  and  O3_15
REMARK                            x       y       z     vdW  Elec       q    Type
REMARK                         _______ _______ _______ _____ _____    ______ ____
ROOT
ATOM      8  C   UNL     1      53.855  33.442   5.514  0.00  0.00    -0.080 A 
ATOM      9  C   UNL     1      52.911  32.495   5.096  0.00  0.00    +0.054 A 
ATOM     10  C   UNL     1      51.630  32.532   5.601  0.00  0.00    +0.007 A 
ATOM     11  C   UNL     1      51.271  33.505   6.524  0.00  0.00    +0.101 A 
ATOM     14  C   UNL     1      52.205  34.450   6.946  0.00  0.00    +0.078 A 
ATOM     17  C   UNL     1      53.493  34.418   6.449  0.00  0.00    +0.043 A 
ENDROOT
BRANCH   8   7
ATOM      6  C   UNL     1      56.278  33.563   5.807  0.00  0.00    -0.063 C 
ATOM      7  C   UNL     1      55.223  33.405   4.977  0.00  0.00    +0.154 C 
BRANCH   6   5
ATOM      5  C   UNL     1      57.597  33.528   5.289  0.00  0.00    +0.501 C 
ATOM     18  O   UNL     1      58.527  33.928   5.964  0.00  0.00    -0.514 OA
BRANCH   5   4
ATOM      4  O   UNL     1      57.822  33.052   4.047  0.00  0.00    -0.351 OA
BRANCH   4   3
ATOM      3  C   UNL     1      58.322  31.718   3.943  0.00  0.00    +0.201 C 
BRANCH   3   2
ATOM      1  C   UNL     1      56.801  31.759   1.961  0.00  0.00    +0.032 C 
ATOM      2  C   UNL     1      57.377  30.884   3.076  0.00  0.00    +0.025 C 
ENDBRANCH   3   2
ENDBRANCH   4   3
ENDBRANCH   5   4
ENDBRANCH   6   5
ENDBRANCH   8   7
BRANCH  11  12
ATOM     12  O   UNL     1      50.006  33.536   7.017  0.00  0.00    -0.486 OA
ATOM     13  H   UNL     1      49.404  34.107   6.520  0.00  0.00    +0.392 HD
ENDBRANCH  11  12
BRANCH  14  15
ATOM     15  O   UNL     1      51.849  35.401   7.850  0.00  0.00    -0.485 OA
ATOM     16  H   UNL     1      51.436  35.048   8.650  0.00  0.00    +0.390 HD
ENDBRANCH  14  15
TORSDOF 7
ENDMDL
MODEL 5
REMARK VINA RESULT:      -4.7      1.663      2.252
REMARK  Name = ZINC34181679
REMARK  8 active torsions:
REMARK  status: ('A' for Active; 'I' for Inactive)
REMARK    1  A    between atoms: C1_1  and  C2_2
REMARK    2  A    between atoms: C2_2  and  C3_3
REMARK    3  A    between atoms: C3_3  and  O1_4
REMARK    4  A    between atoms: O1_4  and  C4_5
REMARK    5  A    between atoms: C4_5  and  C5_7
REMARK    6  A    between atoms: C6_8  and  C7_9
REMARK    7  A    between atoms: C10_12  and  O4_16
REMARK    8  A    between atoms: C11_13  and  O3_15
REMARK                            x       y       z     vdW  Elec       q    Type
REMARK                         _______ _______ _______ _____ _____    ______ ____
ROOT
ATOM      8  C   UNL     1      47.703  20.141  19.006  0.00  0.00    -0.080 A 
ATOM      9  C   UNL     1      47.100  18.937  18.624  0.00  0.00    +0.054 A 
ATOM     10  C   UNL     1      45.744  18.892  18.386  0.00  0.00    +0.007 A 
ATOM     11  C   UNL     1      44.973  20.039  18.525  0.00  0.00    +0.101 A 
ATOM     14  C   UNL     1      45.566  21.241  18.906  0.00  0.00    +0.078 A 
ATOM     17  C   UNL     1      46.924  21.294  19.152  0.00  0.00    +0.043 A 
ENDROOT
BRANCH   8   7
ATOM      6  C   UNL     1      49.930  21.042  18.558  0.00  0.00    -0.063 C 
ATOM      7  C   UNL     1      49.150  20.192  19.261  0.00  0.00    +0.154 C 
BRANCH   6   5
ATOM      5  C   UNL     1      51.326  21.091  18.803  0.00  0.00    +0.501 C 
ATOM     18  O   UNL     1      51.740  21.447  19.891  0.00  0.00    -0.514 OA
BRANCH   5   4
ATOM      4  O   UNL     1      52.194  20.744  17.831  0.00  0.00    -0.351 OA
BRANCH   4   3
ATOM      3  C   UNL     1      52.461  19.350  17.667  0.00  0.00    +0.201 C 
BRANCH   3   2
ATOM      1  C   UNL     1      50.658  17.898  16.727  0.00  0.00    +0.032 C 
ATOM      2  C   UNL     1      51.802  18.852  16.379  0.00  0.00    +0.025 C 
ENDBRANCH   3   2
ENDBRANCH   4   3
ENDBRANCH   5   4
ENDBRANCH   6   5
ENDBRANCH   8   7
BRANCH  11  12
ATOM     12  O   UNL     1      43.636  19.988  18.289  0.00  0.00    -0.486 OA
ATOM     13  H   UNL     1      43.328  20.634  17.638  0.00  0.00    +0.392 HD
ENDBRANCH  11  12
BRANCH  14  15
ATOM     15  O   UNL     1      44.807  22.362  19.042  0.00  0.00    -0.485 OA
ATOM     16  H   UNL     1      44.978  23.035  18.370  0.00  0.00    +0.390 HD
ENDBRANCH  14  15
TORSDOF 7
ENDMDL
MODEL 6
REMARK VINA RESULT:      -4.7      2.240      2.891
REMARK  Name = ZINC34181679
REMARK  8 active torsions:
REMARK  status: ('A' for Active; 'I' for Inactive)
REMARK    1  A    between atoms: C1_1  and  C2_2
REMARK    2  A    between atoms: C2_2  and  C3_3
REMARK    3  A    between atoms: C3_3  and  O1_4
REMARK    4  A    between atoms: O1_4  and  C4_5
REMARK    5  A    between atoms: C4_5  and  C5_7
REMARK    6  A    between atoms: C6_8  and  C7_9
REMARK    7  A    between atoms: C10_12  and  O4_16
REMARK    8  A    between atoms: C11_13  and  O3_15
REMARK                            x       y       z     vdW  Elec       q    Type
REMARK                         _______ _______ _______ _____ _____    ______ ____
ROOT
ATOM      8  C   UNL     1      45.215  19.891  18.581  0.00  0.00    -0.080 A 
ATOM      9  C   UNL     1      45.927  21.068  18.840  0.00  0.00    +0.054 A 
ATOM     10  C   UNL     1      45.282  22.157  19.382  0.00  0.00    +0.007 A 
ATOM     11  C   UNL     1      43.926  22.093  19.672  0.00  0.00    +0.101 A 
ATOM     14  C   UNL     1      43.209  20.925  19.416  0.00  0.00    +0.078 A 
ATOM     17  C   UNL     1      43.846  19.829  18.868  0.00  0.00    +0.043 A 
ENDROOT
BRANCH   8   7
ATOM      6  C   UNL     1      47.219  18.539  18.228  0.00  0.00    -0.063 C 
ATOM      7  C   UNL     1      45.900  18.726  18.003  0.00  0.00    +0.154 C 
BRANCH   6   5
ATOM      5  C   UNL     1      47.880  17.415  17.670  0.00  0.00    +0.501 C 
ATOM     18  O   UNL     1      47.249  16.590  17.038  0.00  0.00    -0.514 OA
BRANCH   5   4
ATOM      4  O   UNL     1      49.210  17.262  17.841  0.00  0.00    -0.351 OA
BRANCH   4   3
ATOM      3  C   UNL     1      50.024  18.423  17.676  0.00  0.00    +0.201 C 
BRANCH   3   2
ATOM      1  C   UNL     1      51.825  19.455  16.284  0.00  0.00    +0.032 C 
ATOM      2  C   UNL     1      51.089  18.154  16.610  0.00  0.00    +0.025 C 
ENDBRANCH   3   2
ENDBRANCH   4   3
ENDBRANCH   5   4
ENDBRANCH   6   5
ENDBRANCH   8   7
BRANCH  11  12
ATOM     12  O   UNL     1      43.296  23.171  20.206  0.00  0.00    -0.486 OA
ATOM     13  H   UNL     1      42.338  23.173  20.071  0.00  0.00    +0.392 HD
ENDBRANCH  11  12
BRANCH  14  15
ATOM     15  O   UNL     1      41.880  20.866  19.700  0.00  0.00    -0.485 OA
ATOM     16  H   UNL     1      41.317  20.753  18.922  0.00  0.00    +0.390 HD
ENDBRANCH  14  15
TORSDOF 7
ENDMDL
MODEL 7
REMARK VINA RESULT:      -4.7      1.979      7.012
REMARK  Name = ZINC34181679
REMARK  8 active torsions:
REMARK  status: ('A' for Active; 'I' for Inactive)
REMARK    1  A    between atoms: C1_1  and  C2_2
REMARK    2  A    between atoms: C2_2  and  C3_3
REMARK    3  A    between atoms: C3_3  and  O1_4
REMARK    4  A    between atoms: O1_4  and  C4_5
REMARK    5  A    between atoms: C4_5  and  C5_7
REMARK    6  A    between atoms: C6_8  and  C7_9
REMARK    7  A    between atoms: C10_12  and  O4_16
REMARK    8  A    between atoms: C11_13  and  O3_15
REMARK                            x       y       z     vdW  Elec       q    Type
REMARK                         _______ _______ _______ _____ _____    ______ ____
ROOT
ATOM      8  C   UNL     1      49.273  20.778  19.600  0.00  0.00    -0.080 A 
ATOM      9  C   UNL     1      50.105  20.814  20.726  0.00  0.00    +0.054 A 
ATOM     10  C   UNL     1      51.457  21.032  20.576  0.00  0.00    +0.007 A 
ATOM     11  C   UNL     1      51.998  21.216  19.310  0.00  0.00    +0.101 A 
ATOM     14  C   UNL     1      51.177  21.181  18.185  0.00  0.00    +0.078 A 
ATOM     17  C   UNL     1      49.820  20.958  18.325  0.00  0.00    +0.043 A 
ENDROOT
BRANCH   8   7
ATOM      6  C   UNL     1      46.979  20.896  18.769  0.00  0.00    -0.063 C 
ATOM      7  C   UNL     1      47.830  20.546  19.758  0.00  0.00    +0.154 C 
BRANCH   6   5
ATOM      5  C   UNL     1      45.587  20.672  18.921  0.00  0.00    +0.501 C 
ATOM     18  O   UNL     1      45.077  19.670  18.454  0.00  0.00    -0.514 OA
BRANCH   5   4
ATOM      4  O   UNL     1      44.827  21.570  19.581  0.00  0.00    -0.351 OA
BRANCH   4   3
ATOM      3  C   UNL     1      44.509  21.275  20.942  0.00  0.00    +0.201 C 
BRANCH   3   2
ATOM      1  C   UNL     1      45.509  23.564  20.984  0.00  0.00    +0.032 C 
ATOM      2  C   UNL     1      44.761  22.513  21.806  0.00  0.00    +0.025 C 
ENDBRANCH   3   2
ENDBRANCH   4   3
ENDBRANCH   5   4
ENDBRANCH   6   5
ENDBRANCH   8   7
BRANCH  11  12
ATOM     12  O   UNL     1      53.332  21.430  19.169  0.00  0.00    -0.486 OA
ATOM     13  H   UNL     1      53.874  20.977  19.829  0.00  0.00    +0.392 HD
ENDBRANCH  11  12
BRANCH  14  15
ATOM     15  O   UNL     1      51.710  21.361  16.946  0.00  0.00    -0.485 OA
ATOM     16  H   UNL     1      52.525  21.882  16.942  0.00  0.00    +0.390 HD
ENDBRANCH  14  15
TORSDOF 7
ENDMDL
MODEL 8
REMARK VINA RESULT:      -4.7      3.121      4.742
REMARK  Name = ZINC34181679
REMARK  8 active torsions:
REMARK  status: ('A' for Active; 'I' for Inactive)
REMARK    1  A    between atoms: C1_1  and  C2_2
REMARK    2  A    between atoms: C2_2  and  C3_3
REMARK    3  A    between atoms: C3_3  and  O1_4
REMARK    4  A    between atoms: O1_4  and  C4_5
REMARK    5  A    between atoms: C4_5  and  C5_7
REMARK    6  A    between atoms: C6_8  and  C7_9
REMARK    7  A    between atoms: C10_12  and  O4_16
REMARK    8  A    between atoms: C11_13  and  O3_15
REMARK                            x       y       z     vdW  Elec       q    Type
REMARK                         _______ _______ _______ _____ _____    ______ ____
ROOT
ATOM      8  C   UNL     1      45.176  19.965  18.572  0.00  0.00    -0.080 A 
ATOM      9  C   UNL     1      45.893  21.136  18.849  0.00  0.00    +0.054 A 
ATOM     10  C   UNL     1      45.253  22.215  19.418  0.00  0.00    +0.007 A 
ATOM     11  C   UNL     1      43.899  22.146  19.716  0.00  0.00    +0.101 A 
ATOM     14  C   UNL     1      43.178  20.985  19.442  0.00  0.00    +0.078 A 
ATOM     17  C   UNL     1      43.810  19.899  18.867  0.00  0.00    +0.043 A 
ENDROOT
BRANCH   8   7
ATOM      6  C   UNL     1      46.924  18.257  18.579  0.00  0.00    -0.063 C 
ATOM      7  C   UNL     1      45.856  18.811  17.965  0.00  0.00    +0.154 C 
BRANCH   6   5
ATOM      5  C   UNL     1      47.579  17.145  17.994  0.00  0.00    +0.501 C 
ATOM     18  O   UNL     1      48.250  17.293  16.990  0.00  0.00    -0.514 OA
BRANCH   5   4
ATOM      4  O   UNL     1      47.458  15.921  18.549  0.00  0.00    -0.351 OA
BRANCH   4   3
ATOM      3  C   UNL     1      46.166  15.315  18.509  0.00  0.00    +0.201 C 
BRANCH   3   2
ATOM      1  C   UNL     1      44.861  16.006  20.525  0.00  0.00    +0.032 C 
ATOM      2  C   UNL     1      45.746  14.912  19.924  0.00  0.00    +0.025 C 
ENDBRANCH   3   2
ENDBRANCH   4   3
ENDBRANCH   5   4
ENDBRANCH   6   5
ENDBRANCH   8   7
BRANCH  11  12
ATOM     12  O   UNL     1      43.274  23.214  20.277  0.00  0.00    -0.486 OA
ATOM     13  H   UNL     1      43.354  24.030  19.764  0.00  0.00    +0.392 HD
ENDBRANCH  11  12
BRANCH  14  15
ATOM     15  O   UNL     1      41.852  20.922  19.736  0.00  0.00    -0.485 OA
ATOM     16  H   UNL     1      41.402  20.155  19.356  0.00  0.00    +0.390 HD
ENDBRANCH  14  15
TORSDOF 7
ENDMDL
MODEL 9
REMARK VINA RESULT:      -4.6     18.870     20.208
REMARK  Name = ZINC34181679
REMARK  8 active torsions:
REMARK  status: ('A' for Active; 'I' for Inactive)
REMARK    1  A    between atoms: C1_1  and  C2_2
REMARK    2  A    between atoms: C2_2  and  C3_3
REMARK    3  A    between atoms: C3_3  and  O1_4
REMARK    4  A    between atoms: O1_4  and  C4_5
REMARK    5  A    between atoms: C4_5  and  C5_7
REMARK    6  A    between atoms: C6_8  and  C7_9
REMARK    7  A    between atoms: C10_12  and  O4_16
REMARK    8  A    between atoms: C11_13  and  O3_15
REMARK                            x       y       z     vdW  Elec       q    Type
REMARK                         _______ _______ _______ _____ _____    ______ ____
ROOT
ATOM      8  C   UNL     1      53.580  32.582   4.839  0.00  0.00    -0.080 A 
ATOM      9  C   UNL     1      54.113  33.080   6.034  0.00  0.00    +0.054 A 
ATOM     10  C   UNL     1      53.322  33.821   6.884  0.00  0.00    +0.007 A 
ATOM     11  C   UNL     1      51.997  34.076   6.559  0.00  0.00    +0.101 A 
ATOM     14  C   UNL     1      51.459  33.585   5.371  0.00  0.00    +0.078 A 
ATOM     17  C   UNL     1      52.246  32.845   4.510  0.00  0.00    +0.043 A 
ENDROOT
BRANCH   8   7
ATOM      6  C   UNL     1      54.929  32.358   2.814  0.00  0.00    -0.063 C 
ATOM      7  C   UNL     1      54.422  31.791   3.930  0.00  0.00    +0.154 C 
BRANCH   6   5
ATOM      5  C   UNL     1      55.741  31.595   1.937  0.00  0.00    +0.501 C 
ATOM     18  O   UNL     1      55.449  31.507   0.759  0.00  0.00    -0.514 OA
BRANCH   5   4
ATOM      4  O   UNL     1      56.836  30.964   2.409  0.00  0.00    -0.351 OA
BRANCH   4   3
ATOM      3  C   UNL     1      57.960  31.779   2.746  0.00  0.00    +0.201 C 
BRANCH   3   2
ATOM      1  C   UNL     1      57.809  32.776   5.032  0.00  0.00    +0.032 C 
ATOM      2  C   UNL     1      58.312  31.580   4.221  0.00  0.00    +0.025 C 
ENDBRANCH   3   2
ENDBRANCH   4   3
ENDBRANCH   5   4
ENDBRANCH   6   5
ENDBRANCH   8   7
BRANCH  11  12
ATOM     12  O   UNL     1      51.222  34.808   7.401  0.00  0.00    -0.486 OA
ATOM     13  H   UNL     1      51.695  35.525   7.847  0.00  0.00    +0.392 HD
ENDBRANCH  11  12
BRANCH  14  15
ATOM     15  O   UNL     1      50.160  33.838   5.055  0.00  0.00    -0.485 OA
ATOM     16  H   UNL     1      49.549  33.739   5.798  0.00  0.00    +0.390 HD
ENDBRANCH  14  15
TORSDOF 7
ENDMDL
