MODEL 1
REMARK VINA RESULT:      -7.5      0.000      0.000
REMARK  Name = ZINC95486333
REMARK  3 active torsions:
REMARK  status: ('A' for Active; 'I' for Inactive)
REMARK    1  A    between atoms: C1_1  and  N1_2
REMARK    2  A    between atoms: C8_9  and  C17_19
REMARK    3  A    between atoms: N3_26  and  C32_36
REMARK                            x       y       z     vdW  Elec       q    Type
REMARK                         _______ _______ _______ _____ _____    ______ ____
ROOT
ATOM      1  C   UNL     1      51.820  16.105  15.967  0.00  0.00    +0.368 C 
ATOM      2  N   UNL     1      51.173  17.045  16.886  0.00  0.00    -0.333 N 
ATOM      3  C   UNL     1      51.324  18.352  16.676  0.00  0.00    +0.142 A 
ATOM      4  C   UNL     1      52.090  18.827  15.593  0.00  0.00    +0.015 A 
ATOM      5  C   UNL     1      52.229  20.166  15.400  0.00  0.00    +0.119 A 
ATOM      6  C   UNL     1      51.626  21.083  16.257  0.00  0.00    +0.057 A 
ATOM      7  C   UNL     1      50.878  20.662  17.317  0.00  0.00    +0.087 A 
ATOM      8  C   UNL     1      50.713  19.292  17.544  0.00  0.00    -0.045 A 
ATOM      9  C   UNL     1      49.918  18.796  18.669  0.00  0.00    +0.100 A 
ATOM     28  C   UNL     1      49.812  17.407  18.815  0.00  0.00    +0.124 A 
ATOM     29  N   UNL     1      49.158  16.624  19.739  0.00  0.00    -0.593 N 
ATOM     30  H   UNL     1      48.635  16.963  20.482  0.00  0.00    +0.438 HD
ATOM     31  C   UNL     1      49.354  15.282  19.458  0.00  0.00    +0.195 A 
ATOM     32  C   UNL     1      48.909  14.122  20.083  0.00  0.00    +0.007 A 
ATOM     33  C   UNL     1      49.262  12.888  19.579  0.00  0.00    +0.117 A 
ATOM     34  C   UNL     1      50.060  12.788  18.450  0.00  0.00    +0.015 A 
ATOM     35  C   UNL     1      50.510  13.928  17.817  0.00  0.00    +0.098 A 
ATOM     36  C   UNL     1      50.160  15.180  18.316  0.00  0.00    -0.151 A 
ATOM     37  C   UNL     1      50.459  16.562  17.884  0.00  0.00    +0.205 A 
ENDROOT
BRANCH   9  10
ATOM     10  C   UNL     1      49.260  19.717  19.606  0.00  0.00    +0.023 A 
ATOM     11  C   UNL     1      50.039  20.453  20.607  0.00  0.00    -0.102 A 
ATOM     12  C   UNL     1      51.427  20.296  20.691  0.00  0.00    +0.058 A 
ATOM     13  C   UNL     1      52.133  20.992  21.630  0.00  0.00    +0.007 A 
ATOM     14  C   UNL     1      51.484  21.855  22.505  0.00  0.00    +0.095 A 
ATOM     15  C   UNL     1      50.120  22.025  22.443  0.00  0.00    -0.014 A 
ATOM     16  C   UNL     1      49.377  21.327  21.492  0.00  0.00    +0.191 A 
ATOM     17  N   UNL     1      48.014  21.488  21.417  0.00  0.00    -0.438 N 
ATOM     18  C   UNL     1      47.348  22.399  22.351  0.00  0.00    +0.329 C 
ATOM     19  C   UNL     1      47.260  20.810  20.484  0.00  0.00    +0.132 A 
ATOM     20  C   UNL     1      45.912  20.786  20.192  0.00  0.00    -0.266 A 
ATOM     21  C   UNL     1      45.735  19.899  19.127  0.00  0.00    +0.212 A 
ATOM     22  C   UNL     1      44.382  19.611  18.526  0.00  0.00    +0.177 C 
ATOM     23  C   UNL     1      43.395  20.641  18.991  0.00  0.00    -0.036 C 
ATOM     24  C   UNL     1      43.564  21.459  19.975  0.00  0.00    -0.034 C 
ATOM     25  N   UNL     1      46.900  19.404  18.780  0.00  0.00    -0.527 NA
ATOM     26  C   UNL     1      44.785  21.537  20.845  0.00  0.00    +0.141 C 
ATOM     27  C   UNL     1      47.870  19.917  19.559  0.00  0.00    +0.086 A 
ENDBRANCH   9  10
TORSDOF 1
ENDMDL
MODEL 2
REMARK VINA RESULT:      -7.4      2.828      8.984
REMARK  Name = ZINC95486333
REMARK  3 active torsions:
REMARK  status: ('A' for Active; 'I' for Inactive)
REMARK    1  A    between atoms: C1_1  and  N1_2
REMARK    2  A    between atoms: C8_9  and  C17_19
REMARK    3  A    between atoms: N3_26  and  C32_36
REMARK                            x       y       z     vdW  Elec       q    Type
REMARK                         _______ _______ _______ _____ _____    ______ ____
ROOT
ATOM      1  C   UNL     1      48.409  19.485  20.014  0.00  0.00    +0.368 C 
ATOM      2  N   UNL     1      48.979  18.204  19.588  0.00  0.00    -0.333 N 
ATOM      3  C   UNL     1      48.545  17.086  20.169  0.00  0.00    +0.142 A 
ATOM      4  C   UNL     1      47.558  17.130  21.173  0.00  0.00    +0.015 A 
ATOM      5  C   UNL     1      47.132  15.974  21.751  0.00  0.00    +0.119 A 
ATOM      6  C   UNL     1      47.654  14.741  21.367  0.00  0.00    +0.057 A 
ATOM      7  C   UNL     1      48.611  14.660  20.399  0.00  0.00    +0.087 A 
ATOM      8  C   UNL     1      49.072  15.828  19.783  0.00  0.00    -0.045 A 
ATOM      9  C   UNL     1      50.097  15.787  18.740  0.00  0.00    +0.100 A 
ATOM     28  C   UNL     1      50.496  17.009  18.183  0.00  0.00    +0.124 A 
ATOM     29  N   UNL     1      51.413  17.322  17.207  0.00  0.00    -0.593 N 
ATOM     30  H   UNL     1      51.957  16.677  16.730  0.00  0.00    +0.438 HD
ATOM     31  C   UNL     1      51.449  18.691  17.002  0.00  0.00    +0.195 A 
ATOM     32  C   UNL     1      52.196  19.488  16.140  0.00  0.00    +0.007 A 
ATOM     33  C   UNL     1      52.028  20.857  16.145  0.00  0.00    +0.117 A 
ATOM     34  C   UNL     1      51.117  21.452  17.004  0.00  0.00    +0.015 A 
ATOM     35  C   UNL     1      50.368  20.679  17.865  0.00  0.00    +0.098 A 
ATOM     36  C   UNL     1      50.529  19.296  17.870  0.00  0.00    -0.151 A 
ATOM     37  C   UNL     1      49.896  18.205  18.641  0.00  0.00    +0.205 A 
ENDROOT
BRANCH   9  10
ATOM     10  C   UNL     1      50.686  14.515  18.295  0.00  0.00    +0.023 A 
ATOM     11  C   UNL     1      50.026  13.701  17.269  0.00  0.00    -0.102 A 
ATOM     12  C   UNL     1      48.823  14.118  16.688  0.00  0.00    +0.058 A 
ATOM     13  C   UNL     1      48.226  13.345  15.734  0.00  0.00    +0.007 A 
ATOM     14  C   UNL     1      48.803  12.146  15.334  0.00  0.00    +0.095 A 
ATOM     15  C   UNL     1      49.985  11.713  15.891  0.00  0.00    -0.014 A 
ATOM     16  C   UNL     1      50.615  12.486  16.867  0.00  0.00    +0.191 A 
ATOM     17  N   UNL     1      51.796  12.068  17.431  0.00  0.00    -0.438 N 
ATOM     18  C   UNL     1      52.387  10.799  16.998  0.00  0.00    +0.329 C 
ATOM     19  C   UNL     1      52.437  12.816  18.394  0.00  0.00    +0.132 A 
ATOM     20  C   UNL     1      53.604  12.641  19.107  0.00  0.00    -0.266 A 
ATOM     21  C   UNL     1      53.742  13.745  19.952  0.00  0.00    +0.212 A 
ATOM     22  C   UNL     1      54.911  13.907  20.893  0.00  0.00    +0.177 C 
ATOM     23  C   UNL     1      55.995  12.938  20.522  0.00  0.00    -0.036 C 
ATOM     24  C   UNL     1      55.862  11.920  19.739  0.00  0.00    -0.034 C 
ATOM     25  N   UNL     1      52.725  14.555  19.774  0.00  0.00    -0.527 NA
ATOM     26  C   UNL     1      54.594  11.510  19.049  0.00  0.00    +0.141 C 
ATOM     27  C   UNL     1      51.896  14.054  18.839  0.00  0.00    +0.086 A 
ENDBRANCH   9  10
TORSDOF 1
ENDMDL
MODEL 3
REMARK VINA RESULT:      -7.3      2.676      5.861
REMARK  Name = ZINC95486333
REMARK  3 active torsions:
REMARK  status: ('A' for Active; 'I' for Inactive)
REMARK    1  A    between atoms: C1_1  and  N1_2
REMARK    2  A    between atoms: C8_9  and  C17_19
REMARK    3  A    between atoms: N3_26  and  C32_36
REMARK                            x       y       z     vdW  Elec       q    Type
REMARK                         _______ _______ _______ _____ _____    ______ ____
ROOT
ATOM      1  C   UNL     1      50.982  10.689  16.662  0.00  0.00    +0.368 C 
ATOM      2  N   UNL     1      50.635  12.010  17.193  0.00  0.00    -0.333 N 
ATOM      3  C   UNL     1      49.469  12.553  16.844  0.00  0.00    +0.142 A 
ATOM      4  C   UNL     1      48.585  11.876  15.982  0.00  0.00    +0.015 A 
ATOM      5  C   UNL     1      47.401  12.453  15.641  0.00  0.00    +0.119 A 
ATOM      6  C   UNL     1      47.043  13.707  16.130  0.00  0.00    +0.057 A 
ATOM      7  C   UNL     1      47.874  14.393  16.966  0.00  0.00    +0.087 A 
ATOM      8  C   UNL     1      49.099  13.830  17.338  0.00  0.00    -0.045 A 
ATOM      9  C   UNL     1      50.021  14.531  18.233  0.00  0.00    +0.100 A 
ATOM     28  C   UNL     1      51.224  13.887  18.547  0.00  0.00    +0.124 A 
ATOM     29  N   UNL     1      52.288  14.255  19.338  0.00  0.00    -0.593 N 
ATOM     30  H   UNL     1      52.351  15.088  19.830  0.00  0.00    +0.438 HD
ATOM     31  C   UNL     1      53.256  13.265  19.333  0.00  0.00    +0.195 A 
ATOM     32  C   UNL     1      54.492  13.163  19.963  0.00  0.00    +0.007 A 
ATOM     33  C   UNL     1      55.271  12.040  19.780  0.00  0.00    +0.117 A 
ATOM     34  C   UNL     1      54.834  11.004  18.969  0.00  0.00    +0.015 A 
ATOM     35  C   UNL     1      53.612  11.087  18.336  0.00  0.00    +0.098 A 
ATOM     36  C   UNL     1      52.817  12.215  18.514  0.00  0.00    -0.151 A 
ATOM     37  C   UNL     1      51.487  12.609  18.001  0.00  0.00    +0.205 A 
ENDROOT
BRANCH   9  10
ATOM     10  C   UNL     1      49.697  15.857  18.778  0.00  0.00    +0.023 A 
ATOM     11  C   UNL     1      48.882  15.992  19.991  0.00  0.00    -0.102 A 
ATOM     12  C   UNL     1      48.397  14.860  20.656  0.00  0.00    +0.058 A 
ATOM     13  C   UNL     1      47.641  15.008  21.784  0.00  0.00    +0.007 A 
ATOM     14  C   UNL     1      47.349  16.274  22.277  0.00  0.00    +0.095 A 
ATOM     15  C   UNL     1      47.813  17.402  21.639  0.00  0.00    -0.014 A 
ATOM     16  C   UNL     1      48.588  17.277  20.486  0.00  0.00    +0.191 A 
ATOM     17  N   UNL     1      49.061  18.394  19.840  0.00  0.00    -0.438 N 
ATOM     18  C   UNL     1      48.738  19.720  20.373  0.00  0.00    +0.329 C 
ATOM     19  C   UNL     1      49.830  18.294  18.701  0.00  0.00    +0.132 A 
ATOM     20  C   UNL     1      50.422  19.226  17.874  0.00  0.00    -0.266 A 
ATOM     21  C   UNL     1      51.084  18.521  16.866  0.00  0.00    +0.212 A 
ATOM     22  C   UNL     1      51.856  19.209  15.767  0.00  0.00    +0.177 C 
ATOM     23  C   UNL     1      52.077  20.648  16.131  0.00  0.00    -0.036 C 
ATOM     24  C   UNL     1      51.463  21.293  17.064  0.00  0.00    -0.034 C 
ATOM     25  N   UNL     1      50.914  17.234  17.055  0.00  0.00    -0.527 NA
ATOM     26  C   UNL     1      50.407  20.726  17.968  0.00  0.00    +0.141 C 
ATOM     27  C   UNL     1      50.165  17.025  18.154  0.00  0.00    +0.086 A 
ENDBRANCH   9  10
TORSDOF 1
ENDMDL
MODEL 4
REMARK VINA RESULT:      -7.2      2.925      8.554
REMARK  Name = ZINC95486333
REMARK  3 active torsions:
REMARK  status: ('A' for Active; 'I' for Inactive)
REMARK    1  A    between atoms: C1_1  and  N1_2
REMARK    2  A    between atoms: C8_9  and  C17_19
REMARK    3  A    between atoms: N3_26  and  C32_36
REMARK                            x       y       z     vdW  Elec       q    Type
REMARK                         _______ _______ _______ _____ _____    ______ ____
ROOT
ATOM      1  C   UNL     1      47.300  18.564  18.825  0.00  0.00    +0.368 C 
ATOM      2  N   UNL     1      48.189  17.406  18.699  0.00  0.00    -0.333 N 
ATOM      3  C   UNL     1      47.664  16.184  18.799  0.00  0.00    +0.142 A 
ATOM      4  C   UNL     1      46.285  16.005  19.022  0.00  0.00    +0.015 A 
ATOM      5  C   UNL     1      45.775  14.748  19.120  0.00  0.00    +0.119 A 
ATOM      6  C   UNL     1      46.594  13.627  19.004  0.00  0.00    +0.057 A 
ATOM      7  C   UNL     1      47.934  13.761  18.789  0.00  0.00    +0.087 A 
ATOM      8  C   UNL     1      48.492  15.039  18.682  0.00  0.00    -0.045 A 
ATOM      9  C   UNL     1      49.925  15.229  18.450  0.00  0.00    +0.100 A 
ATOM     28  C   UNL     1      50.391  16.547  18.358  0.00  0.00    +0.124 A 
ATOM     29  N   UNL     1      51.647  17.068  18.150  0.00  0.00    -0.593 N 
ATOM     30  H   UNL     1      52.452  16.543  18.029  0.00  0.00    +0.438 HD
ATOM     31  C   UNL     1      51.597  18.452  18.139  0.00  0.00    +0.195 A 
ATOM     32  C   UNL     1      52.580  19.421  17.969  0.00  0.00    +0.007 A 
ATOM     33  C   UNL     1      52.246  20.759  18.004  0.00  0.00    +0.117 A 
ATOM     34  C   UNL     1      50.932  21.152  18.210  0.00  0.00    +0.015 A 
ATOM     35  C   UNL     1      49.944  20.205  18.381  0.00  0.00    +0.098 A 
ATOM     36  C   UNL     1      50.270  18.852  18.347  0.00  0.00    -0.151 A 
ATOM     37  C   UNL     1      49.472  17.614  18.484  0.00  0.00    +0.205 A 
ENDROOT
BRANCH   9  10
ATOM     10  C   UNL     1      50.837  14.083  18.320  0.00  0.00    +0.023 A 
ATOM     11  C   UNL     1      51.598  13.595  19.475  0.00  0.00    -0.102 A 
ATOM     12  C   UNL     1      51.471  14.208  20.727  0.00  0.00    +0.058 A 
ATOM     13  C   UNL     1      52.188  13.737  21.790  0.00  0.00    +0.007 A 
ATOM     14  C   UNL     1      53.046  12.653  21.638  0.00  0.00    +0.095 A 
ATOM     15  C   UNL     1      53.189  12.035  20.417  0.00  0.00    -0.014 A 
ATOM     16  C   UNL     1      52.466  12.497  19.317  0.00  0.00    +0.191 A 
ATOM     17  N   UNL     1      52.597  11.889  18.092  0.00  0.00    -0.438 N 
ATOM     18  C   UNL     1      53.509  10.750  17.951  0.00  0.00    +0.329 C 
ATOM     19  C   UNL     1      51.891  12.326  16.992  0.00  0.00    +0.132 A 
ATOM     20  C   UNL     1      51.831  11.909  15.679  0.00  0.00    -0.266 A 
ATOM     21  C   UNL     1      50.927  12.747  15.021  0.00  0.00    +0.212 A 
ATOM     22  C   UNL     1      50.597  12.595  13.557  0.00  0.00    +0.177 C 
ATOM     23  C   UNL     1      51.088  11.265  13.065  0.00  0.00    -0.036 C 
ATOM     24  C   UNL     1      51.922  10.495  13.677  0.00  0.00    -0.034 C 
ATOM     25  N   UNL     1      50.456  13.628  15.872  0.00  0.00    -0.527 NA
ATOM     26  C   UNL     1      52.563  10.783  15.004  0.00  0.00    +0.141 C 
ATOM     27  C   UNL     1      50.996  13.427  17.089  0.00  0.00    +0.086 A 
ENDBRANCH   9  10
TORSDOF 1
ENDMDL
MODEL 5
REMARK VINA RESULT:      -7.2      2.353      7.891
REMARK  Name = ZINC95486333
REMARK  3 active torsions:
REMARK  status: ('A' for Active; 'I' for Inactive)
REMARK    1  A    between atoms: C1_1  and  N1_2
REMARK    2  A    between atoms: C8_9  and  C17_19
REMARK    3  A    between atoms: N3_26  and  C32_36
REMARK                            x       y       z     vdW  Elec       q    Type
REMARK                         _______ _______ _______ _____ _____    ______ ____
ROOT
ATOM      1  C   UNL     1      43.592  15.920  22.184  0.00  0.00    +0.368 C 
ATOM      2  N   UNL     1      44.791  15.959  21.344  0.00  0.00    -0.333 N 
ATOM      3  C   UNL     1      45.694  14.987  21.471  0.00  0.00    +0.142 A 
ATOM      4  C   UNL     1      45.503  13.940  22.394  0.00  0.00    +0.015 A 
ATOM      5  C   UNL     1      46.440  12.959  22.505  0.00  0.00    +0.119 A 
ATOM      6  C   UNL     1      47.590  12.969  21.720  0.00  0.00    +0.057 A 
ATOM      7  C   UNL     1      47.809  13.967  20.816  0.00  0.00    +0.087 A 
ATOM      8  C   UNL     1      46.866  14.991  20.674  0.00  0.00    -0.045 A 
ATOM      9  C   UNL     1      47.061  16.080  19.717  0.00  0.00    +0.100 A 
ATOM     28  C   UNL     1      46.063  17.060  19.648  0.00  0.00    +0.124 A 
ATOM     29  N   UNL     1      45.933  18.192  18.877  0.00  0.00    -0.593 N 
ATOM     30  H   UNL     1      46.577  18.489  18.216  0.00  0.00    +0.438 HD
ATOM     31  C   UNL     1      44.751  18.847  19.179  0.00  0.00    +0.195 A 
ATOM     32  C   UNL     1      44.176  20.013  18.683  0.00  0.00    +0.007 A 
ATOM     33  C   UNL     1      42.962  20.447  19.175  0.00  0.00    +0.117 A 
ATOM     34  C   UNL     1      42.305  19.731  20.163  0.00  0.00    +0.015 A 
ATOM     35  C   UNL     1      42.860  18.573  20.667  0.00  0.00    +0.098 A 
ATOM     36  C   UNL     1      44.084  18.125  20.178  0.00  0.00    -0.151 A 
ATOM     37  C   UNL     1      44.930  16.952  20.487  0.00  0.00    +0.205 A 
ENDROOT
BRANCH   9  10
ATOM     10  C   UNL     1      48.256  16.142  18.862  0.00  0.00    +0.023 A 
ATOM     11  C   UNL     1      48.525  15.097  17.869  0.00  0.00    -0.102 A 
ATOM     12  C   UNL     1      47.648  14.018  17.711  0.00  0.00    +0.058 A 
ATOM     13  C   UNL     1      47.916  13.056  16.779  0.00  0.00    +0.007 A 
ATOM     14  C   UNL     1      49.055  13.140  15.986  0.00  0.00    +0.095 A 
ATOM     15  C   UNL     1      49.933  14.191  16.124  0.00  0.00    -0.014 A 
ATOM     16  C   UNL     1      49.679  15.186  17.067  0.00  0.00    +0.191 A 
ATOM     17  N   UNL     1      50.546  16.243  17.215  0.00  0.00    -0.438 N 
ATOM     18  C   UNL     1      51.742  16.311  16.372  0.00  0.00    +0.329 C 
ATOM     19  C   UNL     1      50.315  17.239  18.138  0.00  0.00    +0.132 A 
ATOM     20  C   UNL     1      50.998  18.385  18.486  0.00  0.00    -0.266 A 
ATOM     21  C   UNL     1      50.271  19.009  19.502  0.00  0.00    +0.212 A 
ATOM     22  C   UNL     1      50.711  20.302  20.140  0.00  0.00    +0.177 C 
ATOM     23  C   UNL     1      51.784  20.937  19.304  0.00  0.00    -0.036 C 
ATOM     24  C   UNL     1      52.452  20.357  18.366  0.00  0.00    -0.034 C 
ATOM     25  N   UNL     1      49.202  18.295  19.768  0.00  0.00    -0.527 NA
ATOM     26  C   UNL     1      52.285  18.930  17.930  0.00  0.00    +0.141 C 
ATOM     27  C   UNL     1      49.164  17.208  18.974  0.00  0.00    +0.086 A 
ENDBRANCH   9  10
TORSDOF 1
ENDMDL
MODEL 6
REMARK VINA RESULT:      -7.2      2.682      8.064
REMARK  Name = ZINC95486333
REMARK  3 active torsions:
REMARK  status: ('A' for Active; 'I' for Inactive)
REMARK    1  A    between atoms: C1_1  and  N1_2
REMARK    2  A    between atoms: C8_9  and  C17_19
REMARK    3  A    between atoms: N3_26  and  C32_36
REMARK                            x       y       z     vdW  Elec       q    Type
REMARK                         _______ _______ _______ _____ _____    ______ ____
ROOT
ATOM      1  C   UNL     1      48.917  19.634  20.466  0.00  0.00    +0.368 C 
ATOM      2  N   UNL     1      49.446  18.343  20.018  0.00  0.00    -0.333 N 
ATOM      3  C   UNL     1      49.117  17.246  20.699  0.00  0.00    +0.142 A 
ATOM      4  C   UNL     1      48.277  17.320  21.827  0.00  0.00    +0.015 A 
ATOM      5  C   UNL     1      47.955  16.185  22.505  0.00  0.00    +0.119 A 
ATOM      6  C   UNL     1      48.443  14.944  22.104  0.00  0.00    +0.057 A 
ATOM      7  C   UNL     1      49.259  14.833  21.017  0.00  0.00    +0.087 A 
ATOM      8  C   UNL     1      49.609  15.979  20.296  0.00  0.00    -0.045 A 
ATOM      9  C   UNL     1      50.481  15.905  19.123  0.00  0.00    +0.100 A 
ATOM     28  C   UNL     1      50.777  17.107  18.467  0.00  0.00    +0.124 A 
ATOM     29  N   UNL     1      51.545  17.389  17.361  0.00  0.00    -0.593 N 
ATOM     30  H   UNL     1      52.030  16.731  16.840  0.00  0.00    +0.438 HD
ATOM     31  C   UNL     1      51.528  18.749  17.097  0.00  0.00    +0.195 A 
ATOM     32  C   UNL     1      52.134  19.517  16.109  0.00  0.00    +0.007 A 
ATOM     33  C   UNL     1      51.943  20.882  16.080  0.00  0.00    +0.117 A 
ATOM     34  C   UNL     1      51.149  21.503  17.032  0.00  0.00    +0.015 A 
ATOM     35  C   UNL     1      50.539  20.758  18.020  0.00  0.00    +0.098 A 
ATOM     36  C   UNL     1      50.725  19.379  18.058  0.00  0.00    -0.151 A 
ATOM     37  C   UNL     1      50.224  18.314  18.954  0.00  0.00    +0.205 A 
ENDROOT
BRANCH   9  10
ATOM     10  C   UNL     1      51.026  14.623  18.654  0.00  0.00    +0.023 A 
ATOM     11  C   UNL     1      52.310  14.123  19.157  0.00  0.00    -0.102 A 
ATOM     12  C   UNL     1      53.044  14.855  20.097  0.00  0.00    +0.058 A 
ATOM     13  C   UNL     1      54.237  14.371  20.553  0.00  0.00    +0.007 A 
ATOM     14  C   UNL     1      54.729  13.157  20.090  0.00  0.00    +0.095 A 
ATOM     15  C   UNL     1      54.026  12.419  19.165  0.00  0.00    -0.014 A 
ATOM     16  C   UNL     1      52.805  12.892  18.686  0.00  0.00    +0.191 A 
ATOM     17  N   UNL     1      52.091  12.165  17.763  0.00  0.00    -0.438 N 
ATOM     18  C   UNL     1      52.629  10.889  17.285  0.00  0.00    +0.329 C 
ATOM     19  C   UNL     1      50.881  12.611  17.277  0.00  0.00    +0.132 A 
ATOM     20  C   UNL     1      49.977  12.096  16.372  0.00  0.00    -0.266 A 
ATOM     21  C   UNL     1      48.920  13.006  16.281  0.00  0.00    +0.212 A 
ATOM     22  C   UNL     1      47.730  12.781  15.382  0.00  0.00    +0.177 C 
ATOM     23  C   UNL     1      47.708  11.352  14.923  0.00  0.00    -0.036 C 
ATOM     24  C   UNL     1      48.686  10.515  15.011  0.00  0.00    -0.034 C 
ATOM     25  N   UNL     1      49.154  14.021  17.079  0.00  0.00    -0.527 NA
ATOM     26  C   UNL     1      50.039  10.813  15.591  0.00  0.00    +0.141 C 
ATOM     27  C   UNL     1      50.326  13.844  17.717  0.00  0.00    +0.086 A 
ENDBRANCH   9  10
TORSDOF 1
ENDMDL
MODEL 7
REMARK VINA RESULT:      -7.2      4.033      7.925
REMARK  Name = ZINC95486333
REMARK  3 active torsions:
REMARK  status: ('A' for Active; 'I' for Inactive)
REMARK    1  A    between atoms: C1_1  and  N1_2
REMARK    2  A    between atoms: C8_9  and  C17_19
REMARK    3  A    between atoms: N3_26  and  C32_36
REMARK                            x       y       z     vdW  Elec       q    Type
REMARK                         _______ _______ _______ _____ _____    ______ ____
ROOT
ATOM      1  C   UNL     1      54.290  16.652  19.918  0.00  0.00    +0.368 C 
ATOM      2  N   UNL     1      53.266  15.971  19.121  0.00  0.00    -0.333 N 
ATOM      3  C   UNL     1      53.227  14.638  19.136  0.00  0.00    +0.142 A 
ATOM      4  C   UNL     1      54.148  13.896  19.900  0.00  0.00    +0.015 A 
ATOM      5  C   UNL     1      54.086  12.537  19.898  0.00  0.00    +0.119 A 
ATOM      6  C   UNL     1      53.124  11.861  19.152  0.00  0.00    +0.057 A 
ATOM      7  C   UNL     1      52.216  12.546  18.399  0.00  0.00    +0.087 A 
ATOM      8  C   UNL     1      52.250  13.944  18.378  0.00  0.00    -0.045 A 
ATOM      9  C   UNL     1      51.295  14.718  17.586  0.00  0.00    +0.100 A 
ATOM     28  C   UNL     1      51.409  16.114  17.628  0.00  0.00    +0.124 A 
ATOM     29  N   UNL     1      50.691  17.117  17.017  0.00  0.00    -0.593 N 
ATOM     30  H   UNL     1      49.940  16.976  16.420  0.00  0.00    +0.438 HD
ATOM     31  C   UNL     1      51.194  18.356  17.377  0.00  0.00    +0.195 A 
ATOM     32  C   UNL     1      50.821  19.651  17.033  0.00  0.00    +0.007 A 
ATOM     33  C   UNL     1      51.511  20.728  17.549  0.00  0.00    +0.117 A 
ATOM     34  C   UNL     1      52.580  20.534  18.411  0.00  0.00    +0.015 A 
ATOM     35  C   UNL     1      52.964  19.257  18.763  0.00  0.00    +0.098 A 
ATOM     36  C   UNL     1      52.274  18.162  18.249  0.00  0.00    -0.151 A 
ATOM     37  C   UNL     1      52.418  16.701  18.424  0.00  0.00    +0.205 A 
ENDROOT
BRANCH   9  10
ATOM     10  C   UNL     1      50.259  14.059  16.777  0.00  0.00    +0.023 A 
ATOM     11  C   UNL     1      50.555  13.577  15.424  0.00  0.00    -0.102 A 
ATOM     12  C   UNL     1      51.833  13.733  14.873  0.00  0.00    +0.058 A 
ATOM     13  C   UNL     1      52.088  13.276  13.611  0.00  0.00    +0.007 A 
ATOM     14  C   UNL     1      51.088  12.658  12.869  0.00  0.00    +0.095 A 
ATOM     15  C   UNL     1      49.825  12.495  13.388  0.00  0.00    -0.014 A 
ATOM     16  C   UNL     1      49.540  12.951  14.675  0.00  0.00    +0.191 A 
ATOM     17  N   UNL     1      48.283  12.794  15.208  0.00  0.00    -0.438 N 
ATOM     18  C   UNL     1      47.242  12.143  14.408  0.00  0.00    +0.329 C 
ATOM     19  C   UNL     1      47.980  13.235  16.478  0.00  0.00    +0.132 A 
ATOM     20  C   UNL     1      46.832  13.204  17.242  0.00  0.00    -0.266 A 
ATOM     21  C   UNL     1      47.132  13.809  18.464  0.00  0.00    +0.212 A 
ATOM     22  C   UNL     1      46.116  13.959  19.568  0.00  0.00    +0.177 C 
ATOM     23  C   UNL     1      44.930  13.084  19.283  0.00  0.00    -0.036 C 
ATOM     24  C   UNL     1      44.657  12.526  18.152  0.00  0.00    -0.034 C 
ATOM     25  N   UNL     1      48.388  14.191  18.460  0.00  0.00    -0.527 NA
ATOM     26  C   UNL     1      45.478  12.647  16.901  0.00  0.00    +0.141 C 
ATOM     27  C   UNL     1      48.963  13.870  17.286  0.00  0.00    +0.086 A 
ENDBRANCH   9  10
TORSDOF 1
ENDMDL
MODEL 8
REMARK VINA RESULT:      -7.1      3.972      6.846
REMARK  Name = ZINC95486333
REMARK  3 active torsions:
REMARK  status: ('A' for Active; 'I' for Inactive)
REMARK    1  A    between atoms: C1_1  and  N1_2
REMARK    2  A    between atoms: C8_9  and  C17_19
REMARK    3  A    between atoms: N3_26  and  C32_36
REMARK                            x       y       z     vdW  Elec       q    Type
REMARK                         _______ _______ _______ _____ _____    ______ ____
ROOT
ATOM      1  C   UNL     1      47.144  12.071  14.627  0.00  0.00    +0.368 C 
ATOM      2  N   UNL     1      48.213  12.721  15.390  0.00  0.00    -0.333 N 
ATOM      3  C   UNL     1      49.397  12.900  14.805  0.00  0.00    +0.142 A 
ATOM      4  C   UNL     1      49.622  12.474  13.482  0.00  0.00    +0.015 A 
ATOM      5  C   UNL     1      50.840  12.667  12.908  0.00  0.00    +0.119 A 
ATOM      6  C   UNL     1      51.876  13.283  13.607  0.00  0.00    +0.057 A 
ATOM      7  C   UNL     1      51.696  13.707  14.891  0.00  0.00    +0.087 A 
ATOM      8  C   UNL     1      50.456  13.525  15.511  0.00  0.00    -0.045 A 
ATOM      9  C   UNL     1      50.219  13.966  16.886  0.00  0.00    +0.100 A 
ATOM     28  C   UNL     1      48.945  13.739  17.422  0.00  0.00    +0.124 A 
ATOM     29  N   UNL     1      48.399  14.021  18.654  0.00  0.00    -0.593 N 
ATOM     30  H   UNL     1      48.868  14.455  19.382  0.00  0.00    +0.438 HD
ATOM     31  C   UNL     1      47.082  13.595  18.704  0.00  0.00    +0.195 A 
ATOM     32  C   UNL     1      46.120  13.651  19.707  0.00  0.00    +0.007 A 
ATOM     33  C   UNL     1      44.859  13.140  19.484  0.00  0.00    +0.117 A 
ATOM     34  C   UNL     1      44.536  12.568  18.263  0.00  0.00    +0.015 A 
ATOM     35  C   UNL     1      45.476  12.504  17.257  0.00  0.00    +0.098 A 
ATOM     36  C   UNL     1      46.753  13.016  17.471  0.00  0.00    -0.151 A 
ATOM     37  C   UNL     1      47.962  13.111  16.624  0.00  0.00    +0.205 A 
ENDROOT
BRANCH   9  10
ATOM     10  C   UNL     1      51.275  14.620  17.673  0.00  0.00    +0.023 A 
ATOM     11  C   UNL     1      52.283  13.826  18.384  0.00  0.00    -0.102 A 
ATOM     12  C   UNL     1      52.262  12.428  18.328  0.00  0.00    +0.058 A 
ATOM     13  C   UNL     1      53.211  11.707  18.996  0.00  0.00    +0.007 A 
ATOM     14  C   UNL     1      54.196  12.352  19.734  0.00  0.00    +0.095 A 
ATOM     15  C   UNL     1      54.237  13.726  19.806  0.00  0.00    -0.014 A 
ATOM     16  C   UNL     1      53.280  14.483  19.130  0.00  0.00    +0.191 A 
ATOM     17  N   UNL     1      53.308  15.856  19.191  0.00  0.00    -0.438 N 
ATOM     18  C   UNL     1      54.354  16.516  19.978  0.00  0.00    +0.329 C 
ATOM     19  C   UNL     1      52.375  16.624  18.530  0.00  0.00    +0.132 A 
ATOM     20  C   UNL     1      52.176  17.985  18.420  0.00  0.00    -0.266 A 
ATOM     21  C   UNL     1      51.057  18.174  17.607  0.00  0.00    +0.212 A 
ATOM     22  C   UNL     1      50.529  19.543  17.255  0.00  0.00    +0.177 C 
ATOM     23  C   UNL     1      51.555  20.582  17.602  0.00  0.00    -0.036 C 
ATOM     24  C   UNL     1      52.589  20.402  18.353  0.00  0.00    -0.034 C 
ATOM     25  N   UNL     1      50.590  17.004  17.234  0.00  0.00    -0.527 NA
ATOM     26  C   UNL     1      52.963  19.113  19.027  0.00  0.00    +0.141 C 
ATOM     27  C   UNL     1      51.346  16.020  17.756  0.00  0.00    +0.086 A 
ENDBRANCH   9  10
TORSDOF 1
ENDMDL
MODEL 9
REMARK VINA RESULT:      -7.0      4.454      7.960
REMARK  Name = ZINC95486333
REMARK  3 active torsions:
REMARK  status: ('A' for Active; 'I' for Inactive)
REMARK    1  A    between atoms: C1_1  and  N1_2
REMARK    2  A    between atoms: C8_9  and  C17_19
REMARK    3  A    between atoms: N3_26  and  C32_36
REMARK                            x       y       z     vdW  Elec       q    Type
REMARK                         _______ _______ _______ _____ _____    ______ ____
ROOT
ATOM      1  C   UNL     1      47.095  12.278  14.993  0.00  0.00    +0.368 C 
ATOM      2  N   UNL     1      48.240  12.827  15.725  0.00  0.00    -0.333 N 
ATOM      3  C   UNL     1      49.407  12.944  15.091  0.00  0.00    +0.142 A 
ATOM      4  C   UNL     1      49.542  12.549  13.746  0.00  0.00    +0.015 A 
ATOM      5  C   UNL     1      50.744  12.678  13.122  0.00  0.00    +0.119 A 
ATOM      6  C   UNL     1      51.850  13.198  13.790  0.00  0.00    +0.057 A 
ATOM      7  C   UNL     1      51.757  13.590  15.093  0.00  0.00    +0.087 A 
ATOM      8  C   UNL     1      50.537  13.472  15.765  0.00  0.00    -0.045 A 
ATOM      9  C   UNL     1      50.393  13.882  17.162  0.00  0.00    +0.100 A 
ATOM     28  C   UNL     1      49.132  13.724  17.750  0.00  0.00    +0.124 A 
ATOM     29  N   UNL     1      48.662  14.001  19.014  0.00  0.00    -0.593 N 
ATOM     30  H   UNL     1      49.192  14.377  19.733  0.00  0.00    +0.438 HD
ATOM     31  C   UNL     1      47.322  13.664  19.113  0.00  0.00    +0.195 A 
ATOM     32  C   UNL     1      46.412  13.752  20.162  0.00  0.00    +0.007 A 
ATOM     33  C   UNL     1      45.109  13.336  19.982  0.00  0.00    +0.117 A 
ATOM     34  C   UNL     1      44.693  12.828  18.761  0.00  0.00    +0.015 A 
ATOM     35  C   UNL     1      45.581  12.734  17.710  0.00  0.00    +0.098 A 
ATOM     36  C   UNL     1      46.899  13.151  17.879  0.00  0.00    -0.151 A 
ATOM     37  C   UNL     1      48.072  13.192  16.980  0.00  0.00    +0.205 A 
ENDROOT
BRANCH   9  10
ATOM     10  C   UNL     1      51.526  14.435  17.918  0.00  0.00    +0.023 A 
ATOM     11  C   UNL     1      51.707  15.885  18.046  0.00  0.00    -0.102 A 
ATOM     12  C   UNL     1      50.803  16.774  17.453  0.00  0.00    +0.058 A 
ATOM     13  C   UNL     1      50.989  18.121  17.585  0.00  0.00    +0.007 A 
ATOM     14  C   UNL     1      52.071  18.616  18.303  0.00  0.00    +0.095 A 
ATOM     15  C   UNL     1      52.974  17.762  18.894  0.00  0.00    -0.014 A 
ATOM     16  C   UNL     1      52.804  16.383  18.775  0.00  0.00    +0.191 A 
ATOM     17  N   UNL     1      53.697  15.518  19.361  0.00  0.00    -0.438 N 
ATOM     18  C   UNL     1      54.833  16.060  20.111  0.00  0.00    +0.329 C 
ATOM     19  C   UNL     1      53.548  14.152  19.258  0.00  0.00    +0.132 A 
ATOM     20  C   UNL     1      54.274  13.082  19.737  0.00  0.00    -0.266 A 
ATOM     21  C   UNL     1      53.629  11.920  19.308  0.00  0.00    +0.212 A 
ATOM     22  C   UNL     1      54.136  10.539  19.642  0.00  0.00    +0.177 C 
ATOM     23  C   UNL     1      55.158  10.628  20.737  0.00  0.00    -0.036 C 
ATOM     24  C   UNL     1      55.749  11.705  21.132  0.00  0.00    -0.034 C 
ATOM     25  N   UNL     1      52.569  12.247  18.606  0.00  0.00    -0.527 NA
ATOM     26  C   UNL     1      55.527  13.079  20.567  0.00  0.00    +0.141 C 
ATOM     27  C   UNL     1      52.458  13.588  18.540  0.00  0.00    +0.086 A 
ENDBRANCH   9  10
TORSDOF 1
ENDMDL
