MODEL 1
REMARK VINA RESULT:      -6.6      0.000      0.000
REMARK  Name = ZINC15122269
REMARK  14 active torsions:
REMARK  status: ('A' for Active; 'I' for Inactive)
REMARK    1  A    between atoms: C1_1  and  O1_2
REMARK    2  A    between atoms: O1_2  and  C2_3
REMARK    3  A    between atoms: C3_4  and  C24_29
REMARK    4  A    between atoms: C4_5  and  O5_28
REMARK    5  A    between atoms: C5_6  and  C17_20
REMARK    6  A    between atoms: C6_7  and  O3_19
REMARK    7  A    between atoms: C7_8  and  C8_9
REMARK    8  A    between atoms: C8_9  and  C9_11
REMARK    9  A    between atoms: C9_11  and  C10_12
REMARK   10  A    between atoms: C10_12  and  C11_13
REMARK   11  A    between atoms: C17_20  and  C18_21
REMARK   12  A    between atoms: C23_26  and  O4_27
REMARK   13  A    between atoms: C24_29  and  C25_30
REMARK   14  A    between atoms: C30_35  and  O6_36
REMARK                            x       y       z     vdW  Elec       q    Type
REMARK                         _______ _______ _______ _____ _____    ______ ____
ROOT
ATOM      3  C   UNL     1      48.550  18.464  19.851  0.00  0.00    +0.200 A 
ATOM      4  C   UNL     1      49.255  17.806  18.862  0.00  0.00    -0.153 A 
ATOM     14  C   UNL     1      48.585  17.038  17.918  0.00  0.00    +0.192 A 
ATOM     17  C   UNL     1      47.201  16.922  17.959  0.00  0.00    -0.154 A 
ATOM     27  C   UNL     1      46.478  17.571  18.941  0.00  0.00    +0.188 A 
ATOM     30  C   UNL     1      47.148  18.348  19.905  0.00  0.00    -0.235 A 
ENDROOT
BRANCH   3   2
ATOM      1  C   UNL     1      49.650  18.547  21.955  0.00  0.00    +0.227 C 
ATOM      2  O   UNL     1      49.206  19.213  20.772  0.00  0.00    -0.295 OA
ENDBRANCH   3   2
BRANCH  14  15
ATOM     15  O   UNL     1      49.287  16.397  16.949  0.00  0.00    -0.463 OA
ATOM     16  H   UNL     1      48.734  15.939  16.301  0.00  0.00    +0.386 HD
ENDBRANCH  14  15
BRANCH  27  28
ATOM     28  O   UNL     1      45.127  17.458  18.979  0.00  0.00    -0.481 OA
ATOM     29  H   UNL     1      44.658  18.281  18.782  0.00  0.00    +0.394 HD
ENDBRANCH  27  28
BRANCH  30  31
ATOM     31  C   UNL     1      46.393  19.033  20.951  0.00  0.00    +0.396 C 
ATOM     40  O   UNL     1      46.093  18.443  21.970  0.00  0.00    -0.438 OA
BRANCH  31  32
ATOM     32  C   UNL     1      45.986  20.473  20.768  0.00  0.00    +0.058 C 
BRANCH  32  33
ATOM     33  C   UNL     1      44.705  20.747  21.558  0.00  0.00    +0.077 C 
BRANCH  33  34
ATOM     34  C   UNL     1      43.510  20.349  20.730  0.00  0.00    -0.079 A 
ATOM     35  C   UNL     1      42.681  19.329  21.159  0.00  0.00    +0.005 A 
ATOM     36  C   UNL     1      41.586  18.964  20.399  0.00  0.00    +0.004 A 
ATOM     37  C   UNL     1      41.320  19.619  19.210  0.00  0.00    -0.005 A 
ATOM     38  C   UNL     1      42.148  20.638  18.783  0.00  0.00    +0.003 A 
ATOM     39  C   UNL     1      43.241  21.006  19.545  0.00  0.00    +0.001 A 
ENDBRANCH  33  34
ENDBRANCH  32  33
ENDBRANCH  31  32
ENDBRANCH  30  31
BRANCH   4   5
ATOM      5  C   UNL     1      50.757  17.923  18.806  0.00  0.00    +0.144 C 
BRANCH   5   6
ATOM      6  C   UNL     1      51.141  18.994  17.817  0.00  0.00    -0.108 A 
ATOM      7  C   UNL     1      50.878  20.321  18.098  0.00  0.00    +0.049 A 
ATOM      8  C   UNL     1      51.229  21.304  17.191  0.00  0.00    -0.011 A 
ATOM      9  C   UNL     1      51.845  20.961  16.002  0.00  0.00    +0.017 A 
ATOM     10  C   UNL     1      52.111  19.636  15.717  0.00  0.00    -0.028 A 
ATOM     11  C   UNL     1      51.765  18.649  16.627  0.00  0.00    +0.116 A 
BRANCH  11  12
ATOM     12  O   UNL     1      52.029  17.344  16.351  0.00  0.00    -0.476 OA
ATOM     13  H   UNL     1      52.730  16.961  16.895  0.00  0.00    +0.381 HD
ENDBRANCH  11  12
ENDBRANCH   5   6
ENDBRANCH   4   5
BRANCH  17  18
ATOM     18  C   UNL     1      46.487  16.086  16.929  0.00  0.00    +0.147 C 
BRANCH  18  19
ATOM     19  C   UNL     1      46.601  14.628  17.299  0.00  0.00    -0.107 A 
ATOM     20  C   UNL     1      46.315  14.218  18.587  0.00  0.00    +0.041 A 
ATOM     21  C   UNL     1      46.419  12.882  18.926  0.00  0.00    -0.011 A 
ATOM     22  C   UNL     1      46.808  11.954  17.978  0.00  0.00    +0.018 A 
ATOM     23  C   UNL     1      47.093  12.359  16.689  0.00  0.00    -0.026 A 
ATOM     24  C   UNL     1      46.984  13.699  16.344  0.00  0.00    +0.118 A 
BRANCH  24  25
ATOM     25  O   UNL     1      47.259  14.099  15.075  0.00  0.00    -0.475 OA
ATOM     26  H   UNL     1      48.182  13.981  14.817  0.00  0.00    +0.380 HD
ENDBRANCH  24  25
ENDBRANCH  18  19
ENDBRANCH  17  18
TORSDOF 13
ENDMDL
MODEL 2
REMARK VINA RESULT:      -6.6      2.682      6.817
REMARK  Name = ZINC15122269
REMARK  14 active torsions:
REMARK  status: ('A' for Active; 'I' for Inactive)
REMARK    1  A    between atoms: C1_1  and  O1_2
REMARK    2  A    between atoms: O1_2  and  C2_3
REMARK    3  A    between atoms: C3_4  and  C24_29
REMARK    4  A    between atoms: C4_5  and  O5_28
REMARK    5  A    between atoms: C5_6  and  C17_20
REMARK    6  A    between atoms: C6_7  and  O3_19
REMARK    7  A    between atoms: C7_8  and  C8_9
REMARK    8  A    between atoms: C8_9  and  C9_11
REMARK    9  A    between atoms: C9_11  and  C10_12
REMARK   10  A    between atoms: C10_12  and  C11_13
REMARK   11  A    between atoms: C17_20  and  C18_21
REMARK   12  A    between atoms: C23_26  and  O4_27
REMARK   13  A    between atoms: C24_29  and  C25_30
REMARK   14  A    between atoms: C30_35  and  O6_36
REMARK                            x       y       z     vdW  Elec       q    Type
REMARK                         _______ _______ _______ _____ _____    ______ ____
ROOT
ATOM      3  C   UNL     1      50.050  14.306  17.417  0.00  0.00    +0.200 A 
ATOM      4  C   UNL     1      48.972  13.954  16.629  0.00  0.00    -0.153 A 
ATOM     14  C   UNL     1      47.882  14.806  16.513  0.00  0.00    +0.192 A 
ATOM     17  C   UNL     1      47.863  16.021  17.187  0.00  0.00    -0.154 A 
ATOM     27  C   UNL     1      48.932  16.392  17.980  0.00  0.00    +0.188 A 
ATOM     30  C   UNL     1      50.039  15.532  18.109  0.00  0.00    -0.235 A 
ENDROOT
BRANCH   3   2
ATOM      1  C   UNL     1      51.069  12.501  18.576  0.00  0.00    +0.227 C 
ATOM      2  O   UNL     1      51.113  13.472  17.529  0.00  0.00    -0.295 OA
ENDBRANCH   3   2
BRANCH  14  15
ATOM     15  O   UNL     1      46.827  14.451  15.735  0.00  0.00    -0.463 OA
ATOM     16  H   UNL     1      46.996  13.685  15.170  0.00  0.00    +0.386 HD
ENDBRANCH  14  15
BRANCH  27  28
ATOM     28  O   UNL     1      48.913  17.579  18.637  0.00  0.00    -0.481 OA
ATOM     29  H   UNL     1      48.332  18.240  18.236  0.00  0.00    +0.394 HD
ENDBRANCH  27  28
BRANCH  30  31
ATOM     31  C   UNL     1      51.171  15.912  18.951  0.00  0.00    +0.396 C 
ATOM     40  O   UNL     1      51.126  15.726  20.150  0.00  0.00    -0.438 OA
BRANCH  31  32
ATOM     32  C   UNL     1      52.395  16.536  18.332  0.00  0.00    +0.058 C 
BRANCH  32  33
ATOM     33  C   UNL     1      52.679  17.881  19.003  0.00  0.00    +0.077 C 
BRANCH  33  34
ATOM     34  C   UNL     1      52.214  18.998  18.105  0.00  0.00    -0.079 A 
ATOM     35  C   UNL     1      52.129  18.797  16.740  0.00  0.00    +0.005 A 
ATOM     36  C   UNL     1      51.704  19.822  15.917  0.00  0.00    +0.004 A 
ATOM     37  C   UNL     1      51.362  21.048  16.458  0.00  0.00    -0.005 A 
ATOM     38  C   UNL     1      51.446  21.248  17.823  0.00  0.00    +0.003 A 
ATOM     39  C   UNL     1      51.869  20.222  18.647  0.00  0.00    +0.001 A 
ENDBRANCH  33  34
ENDBRANCH  32  33
ENDBRANCH  31  32
ENDBRANCH  30  31
BRANCH   4   5
ATOM      5  C   UNL     1      48.978  12.638  15.893  0.00  0.00    +0.144 C 
BRANCH   5   6
ATOM      6  C   UNL     1      49.576  12.833  14.522  0.00  0.00    -0.108 A 
ATOM      7  C   UNL     1      50.942  12.976  14.378  0.00  0.00    +0.049 A 
ATOM      8  C   UNL     1      51.492  13.155  13.122  0.00  0.00    -0.011 A 
ATOM      9  C   UNL     1      50.675  13.190  12.008  0.00  0.00    +0.017 A 
ATOM     10  C   UNL     1      49.308  13.047  12.146  0.00  0.00    -0.028 A 
ATOM     11  C   UNL     1      48.755  12.861  13.404  0.00  0.00    +0.116 A 
BRANCH  11  12
ATOM     12  O   UNL     1      47.411  12.715  13.543  0.00  0.00    -0.476 OA
ATOM     13  H   UNL     1      46.909  13.525  13.384  0.00  0.00    +0.381 HD
ENDBRANCH  11  12
ENDBRANCH   5   6
ENDBRANCH   4   5
BRANCH  17  18
ATOM     18  C   UNL     1      46.674  16.937  17.051  0.00  0.00    +0.147 C 
BRANCH  18  19
ATOM     19  C   UNL     1      45.884  16.927  18.335  0.00  0.00    -0.107 A 
ATOM     20  C   UNL     1      45.810  15.774  19.093  0.00  0.00    +0.041 A 
ATOM     21  C   UNL     1      45.085  15.764  20.269  0.00  0.00    -0.011 A 
ATOM     22  C   UNL     1      44.433  16.909  20.692  0.00  0.00    +0.018 A 
ATOM     23  C   UNL     1      44.506  18.064  19.940  0.00  0.00    -0.026 A 
ATOM     24  C   UNL     1      45.237  18.078  18.760  0.00  0.00    +0.118 A 
BRANCH  24  25
ATOM     25  O   UNL     1      45.314  19.215  18.020  0.00  0.00    -0.475 OA
ATOM     26  H   UNL     1      45.960  19.174  17.302  0.00  0.00    +0.380 HD
ENDBRANCH  24  25
ENDBRANCH  18  19
ENDBRANCH  17  18
TORSDOF 13
ENDMDL
MODEL 3
REMARK VINA RESULT:      -6.6      1.695      2.220
REMARK  Name = ZINC15122269
REMARK  14 active torsions:
REMARK  status: ('A' for Active; 'I' for Inactive)
REMARK    1  A    between atoms: C1_1  and  O1_2
REMARK    2  A    between atoms: O1_2  and  C2_3
REMARK    3  A    between atoms: C3_4  and  C24_29
REMARK    4  A    between atoms: C4_5  and  O5_28
REMARK    5  A    between atoms: C5_6  and  C17_20
REMARK    6  A    between atoms: C6_7  and  O3_19
REMARK    7  A    between atoms: C7_8  and  C8_9
REMARK    8  A    between atoms: C8_9  and  C9_11
REMARK    9  A    between atoms: C9_11  and  C10_12
REMARK   10  A    between atoms: C10_12  and  C11_13
REMARK   11  A    between atoms: C17_20  and  C18_21
REMARK   12  A    between atoms: C23_26  and  O4_27
REMARK   13  A    between atoms: C24_29  and  C25_30
REMARK   14  A    between atoms: C30_35  and  O6_36
REMARK                            x       y       z     vdW  Elec       q    Type
REMARK                         _______ _______ _______ _____ _____    ______ ____
ROOT
ATOM      3  C   UNL     1      48.030  19.867  19.070  0.00  0.00    +0.200 A 
ATOM      4  C   UNL     1      48.795  18.754  18.781  0.00  0.00    -0.153 A 
ATOM     14  C   UNL     1      48.209  17.630  18.215  0.00  0.00    +0.192 A 
ATOM     17  C   UNL     1      46.848  17.612  17.934  0.00  0.00    -0.154 A 
ATOM     27  C   UNL     1      46.066  18.715  18.216  0.00  0.00    +0.188 A 
ATOM     30  C   UNL     1      46.650  19.857  18.795  0.00  0.00    -0.235 A 
ENDROOT
BRANCH   3   2
ATOM      1  C   UNL     1      48.600  21.051  21.049  0.00  0.00    +0.227 C 
ATOM      2  O   UNL     1      48.605  20.964  19.623  0.00  0.00    -0.295 OA
ENDBRANCH   3   2
BRANCH  14  15
ATOM     15  O   UNL     1      48.969  16.541  17.934  0.00  0.00    -0.463 OA
ATOM     16  H   UNL     1      48.503  15.700  18.032  0.00  0.00    +0.386 HD
ENDBRANCH  14  15
BRANCH  27  28
ATOM     28  O   UNL     1      44.737  18.696  17.941  0.00  0.00    -0.481 OA
ATOM     29  H   UNL     1      44.202  19.217  18.555  0.00  0.00    +0.394 HD
ENDBRANCH  27  28
BRANCH  30  31
ATOM     31  C   UNL     1      45.829  21.026  19.104  0.00  0.00    +0.396 C 
ATOM     40  O   UNL     1      45.878  22.008  18.389  0.00  0.00    -0.438 OA
BRANCH  31  32
ATOM     32  C   UNL     1      44.923  21.016  20.307  0.00  0.00    +0.058 C 
BRANCH  32  33
ATOM     33  C   UNL     1      43.858  22.104  20.154  0.00  0.00    +0.077 C 
BRANCH  33  34
ATOM     34  C   UNL     1      42.615  21.508  19.544  0.00  0.00    -0.079 A 
ATOM     35  C   UNL     1      42.362  20.155  19.675  0.00  0.00    +0.005 A 
ATOM     36  C   UNL     1      41.223  19.609  19.114  0.00  0.00    +0.004 A 
ATOM     37  C   UNL     1      40.337  20.415  18.423  0.00  0.00    -0.005 A 
ATOM     38  C   UNL     1      40.591  21.767  18.292  0.00  0.00    +0.003 A 
ATOM     39  C   UNL     1      41.728  22.314  18.856  0.00  0.00    +0.001 A 
ENDBRANCH  33  34
ENDBRANCH  32  33
ENDBRANCH  31  32
ENDBRANCH  30  31
BRANCH   4   5
ATOM      5  C   UNL     1      50.273  18.760  19.081  0.00  0.00    +0.144 C 
BRANCH   5   6
ATOM      6  C   UNL     1      51.032  19.212  17.859  0.00  0.00    -0.108 A 
ATOM      7  C   UNL     1      51.297  18.318  16.841  0.00  0.00    +0.049 A 
ATOM      8  C   UNL     1      51.994  18.732  15.720  0.00  0.00    -0.011 A 
ATOM      9  C   UNL     1      52.425  20.041  15.616  0.00  0.00    +0.017 A 
ATOM     10  C   UNL     1      52.161  20.939  16.632  0.00  0.00    -0.028 A 
ATOM     11  C   UNL     1      51.457  20.529  17.754  0.00  0.00    +0.116 A 
BRANCH  11  12
ATOM     12  O   UNL     1      51.192  21.411  18.753  0.00  0.00    -0.476 OA
ATOM     13  H   UNL     1      51.789  22.171  18.775  0.00  0.00    +0.381 HD
ENDBRANCH  11  12
ENDBRANCH   5   6
ENDBRANCH   4   5
BRANCH  17  18
ATOM     18  C   UNL     1      46.224  16.385  17.320  0.00  0.00    +0.147 C 
BRANCH  18  19
ATOM     19  C   UNL     1      45.914  15.383  18.402  0.00  0.00    -0.107 A 
ATOM     20  C   UNL     1      45.509  15.817  19.651  0.00  0.00    +0.041 A 
ATOM     21  C   UNL     1      45.224  14.899  20.643  0.00  0.00    -0.011 A 
ATOM     22  C   UNL     1      45.343  13.545  20.391  0.00  0.00    +0.018 A 
ATOM     23  C   UNL     1      45.746  13.106  19.145  0.00  0.00    -0.026 A 
ATOM     24  C   UNL     1      46.028  14.026  18.144  0.00  0.00    +0.118 A 
BRANCH  24  25
ATOM     25  O   UNL     1      46.419  13.597  16.916  0.00  0.00    -0.475 OA
ATOM     26  H   UNL     1      46.947  12.787  16.932  0.00  0.00    +0.380 HD
ENDBRANCH  24  25
ENDBRANCH  18  19
ENDBRANCH  17  18
TORSDOF 13
ENDMDL
MODEL 4
REMARK VINA RESULT:      -6.5      0.778      5.539
REMARK  Name = ZINC15122269
REMARK  14 active torsions:
REMARK  status: ('A' for Active; 'I' for Inactive)
REMARK    1  A    between atoms: C1_1  and  O1_2
REMARK    2  A    between atoms: O1_2  and  C2_3
REMARK    3  A    between atoms: C3_4  and  C24_29
REMARK    4  A    between atoms: C4_5  and  O5_28
REMARK    5  A    between atoms: C5_6  and  C17_20
REMARK    6  A    between atoms: C6_7  and  O3_19
REMARK    7  A    between atoms: C7_8  and  C8_9
REMARK    8  A    between atoms: C8_9  and  C9_11
REMARK    9  A    between atoms: C9_11  and  C10_12
REMARK   10  A    between atoms: C10_12  and  C11_13
REMARK   11  A    between atoms: C17_20  and  C18_21
REMARK   12  A    between atoms: C23_26  and  O4_27
REMARK   13  A    between atoms: C24_29  and  C25_30
REMARK   14  A    between atoms: C30_35  and  O6_36
REMARK                            x       y       z     vdW  Elec       q    Type
REMARK                         _______ _______ _______ _____ _____    ______ ____
ROOT
ATOM      3  C   UNL     1      46.770  17.106  19.311  0.00  0.00    +0.200 A 
ATOM      4  C   UNL     1      47.423  16.562  18.222  0.00  0.00    -0.153 A 
ATOM     14  C   UNL     1      48.789  16.752  18.059  0.00  0.00    +0.192 A 
ATOM     17  C   UNL     1      49.513  17.492  18.987  0.00  0.00    -0.154 A 
ATOM     27  C   UNL     1      48.877  18.045  20.082  0.00  0.00    +0.188 A 
ATOM     30  C   UNL     1      47.492  17.862  20.253  0.00  0.00    -0.235 A 
ENDROOT
BRANCH   3   2
ATOM      1  C   UNL     1      45.026  15.906  20.387  0.00  0.00    +0.227 C 
ATOM      2  O   UNL     1      45.436  16.919  19.468  0.00  0.00    -0.295 OA
ENDBRANCH   3   2
BRANCH  14  15
ATOM     15  O   UNL     1      49.423  16.212  16.987  0.00  0.00    -0.463 OA
ATOM     16  H   UNL     1      50.330  16.524  16.869  0.00  0.00    +0.386 HD
ENDBRANCH  14  15
BRANCH  27  28
ATOM     28  O   UNL     1      49.585  18.766  20.988  0.00  0.00    -0.481 OA
ATOM     29  H   UNL     1      49.088  18.989  21.787  0.00  0.00    +0.394 HD
ENDBRANCH  27  28
BRANCH  30  31
ATOM     31  C   UNL     1      46.810  18.449  21.405  0.00  0.00    +0.396 C 
ATOM     40  O   UNL     1      46.937  17.950  22.505  0.00  0.00    -0.438 OA
BRANCH  31  32
ATOM     32  C   UNL     1      45.948  19.672  21.228  0.00  0.00    +0.058 C 
BRANCH  32  33
ATOM     33  C   UNL     1      44.729  19.575  22.147  0.00  0.00    +0.077 C 
BRANCH  33  34
ATOM     34  C   UNL     1      43.473  19.551  21.314  0.00  0.00    -0.079 A 
ATOM     35  C   UNL     1      43.443  20.192  20.090  0.00  0.00    +0.005 A 
ATOM     36  C   UNL     1      42.292  20.169  19.327  0.00  0.00    +0.004 A 
ATOM     37  C   UNL     1      41.169  19.505  19.787  0.00  0.00    -0.005 A 
ATOM     38  C   UNL     1      41.199  18.865  21.011  0.00  0.00    +0.003 A 
ATOM     39  C   UNL     1      42.353  18.884  21.773  0.00  0.00    +0.001 A 
ENDBRANCH  33  34
ENDBRANCH  32  33
ENDBRANCH  31  32
ENDBRANCH  30  31
BRANCH   4   5
ATOM      5  C   UNL     1      46.651  15.758  17.208  0.00  0.00    +0.144 C 
BRANCH   5   6
ATOM      6  C   UNL     1      47.002  14.298  17.351  0.00  0.00    -0.108 A 
ATOM      7  C   UNL     1      47.101  13.731  18.606  0.00  0.00    +0.049 A 
ATOM      8  C   UNL     1      47.423  12.393  18.738  0.00  0.00    -0.011 A 
ATOM      9  C   UNL     1      47.646  11.620  17.614  0.00  0.00    +0.017 A 
ATOM     10  C   UNL     1      47.548  12.182  16.357  0.00  0.00    -0.028 A 
ATOM     11  C   UNL     1      47.219  13.523  16.221  0.00  0.00    +0.116 A 
BRANCH  11  12
ATOM     12  O   UNL     1      47.117  14.078  14.984  0.00  0.00    -0.476 OA
ATOM     13  H   UNL     1      47.623  14.894  14.877  0.00  0.00    +0.381 HD
ENDBRANCH  11  12
ENDBRANCH   5   6
ENDBRANCH   4   5
BRANCH  17  18
ATOM     18  C   UNL     1      50.994  17.690  18.798  0.00  0.00    +0.147 C 
BRANCH  18  19
ATOM     19  C   UNL     1      51.231  18.852  17.866  0.00  0.00    -0.107 A 
ATOM     20  C   UNL     1      50.940  20.139  18.278  0.00  0.00    +0.041 A 
ATOM     21  C   UNL     1      51.156  21.203  17.424  0.00  0.00    -0.011 A 
ATOM     22  C   UNL     1      51.665  20.984  16.156  0.00  0.00    +0.018 A 
ATOM     23  C   UNL     1      51.959  19.700  15.742  0.00  0.00    -0.026 A 
ATOM     24  C   UNL     1      51.748  18.629  16.599  0.00  0.00    +0.118 A 
BRANCH  24  25
ATOM     25  O   UNL     1      52.041  17.366  16.195  0.00  0.00    -0.475 OA
ATOM     26  H   UNL     1      51.600  16.677  16.710  0.00  0.00    +0.380 HD
ENDBRANCH  24  25
ENDBRANCH  18  19
ENDBRANCH  17  18
TORSDOF 13
ENDMDL
MODEL 5
REMARK VINA RESULT:      -6.5      2.608      6.795
REMARK  Name = ZINC15122269
REMARK  14 active torsions:
REMARK  status: ('A' for Active; 'I' for Inactive)
REMARK    1  A    between atoms: C1_1  and  O1_2
REMARK    2  A    between atoms: O1_2  and  C2_3
REMARK    3  A    between atoms: C3_4  and  C24_29
REMARK    4  A    between atoms: C4_5  and  O5_28
REMARK    5  A    between atoms: C5_6  and  C17_20
REMARK    6  A    between atoms: C6_7  and  O3_19
REMARK    7  A    between atoms: C7_8  and  C8_9
REMARK    8  A    between atoms: C8_9  and  C9_11
REMARK    9  A    between atoms: C9_11  and  C10_12
REMARK   10  A    between atoms: C10_12  and  C11_13
REMARK   11  A    between atoms: C17_20  and  C18_21
REMARK   12  A    between atoms: C23_26  and  O4_27
REMARK   13  A    between atoms: C24_29  and  C25_30
REMARK   14  A    between atoms: C30_35  and  O6_36
REMARK                            x       y       z     vdW  Elec       q    Type
REMARK                         _______ _______ _______ _____ _____    ______ ____
ROOT
ATOM      3  C   UNL     1      49.107  16.324  17.947  0.00  0.00    +0.200 A 
ATOM      4  C   UNL     1      48.003  15.979  17.193  0.00  0.00    -0.153 A 
ATOM     14  C   UNL     1      47.979  14.776  16.499  0.00  0.00    +0.192 A 
ATOM     17  C   UNL     1      49.063  13.908  16.555  0.00  0.00    -0.154 A 
ATOM     27  C   UNL     1      50.176  14.236  17.304  0.00  0.00    +0.188 A 
ATOM     30  C   UNL     1      50.213  15.455  18.006  0.00  0.00    -0.235 A 
ENDROOT
BRANCH   3   2
ATOM      1  C   UNL     1      48.895  17.443  20.032  0.00  0.00    +0.227 C 
ATOM      2  O   UNL     1      49.129  17.499  18.624  0.00  0.00    -0.295 OA
ENDBRANCH   3   2
BRANCH  14  15
ATOM     15  O   UNL     1      46.889  14.445  15.761  0.00  0.00    -0.463 OA
ATOM     16  H   UNL     1      46.301  15.189  15.572  0.00  0.00    +0.386 HD
ENDBRANCH  14  15
BRANCH  27  28
ATOM     28  O   UNL     1      51.234  13.388  17.359  0.00  0.00    -0.481 OA
ATOM     29  H   UNL     1      51.101  12.632  17.947  0.00  0.00    +0.394 HD
ENDBRANCH  27  28
BRANCH  30  31
ATOM     31  C   UNL     1      51.389  15.814  18.796  0.00  0.00    +0.396 C 
ATOM     40  O   UNL     1      51.496  15.421  19.940  0.00  0.00    -0.438 OA
BRANCH  31  32
ATOM     32  C   UNL     1      52.471  16.672  18.192  0.00  0.00    +0.058 C 
BRANCH  32  33
ATOM     33  C   UNL     1      52.584  17.980  18.977  0.00  0.00    +0.077 C 
BRANCH  33  34
ATOM     34  C   UNL     1      52.127  19.127  18.112  0.00  0.00    -0.079 A 
ATOM     35  C   UNL     1      52.227  19.036  16.736  0.00  0.00    +0.005 A 
ATOM     36  C   UNL     1      51.809  20.087  15.943  0.00  0.00    +0.004 A 
ATOM     37  C   UNL     1      51.290  21.229  16.525  0.00  0.00    -0.005 A 
ATOM     38  C   UNL     1      51.191  21.320  17.900  0.00  0.00    +0.003 A 
ATOM     39  C   UNL     1      51.606  20.266  18.693  0.00  0.00    +0.001 A 
ENDBRANCH  33  34
ENDBRANCH  32  33
ENDBRANCH  31  32
ENDBRANCH  30  31
BRANCH   4   5
ATOM      5  C   UNL     1      46.820  16.910  17.122  0.00  0.00    +0.144 C 
BRANCH   5   6
ATOM      6  C   UNL     1      46.003  16.781  18.383  0.00  0.00    -0.108 A 
ATOM      7  C   UNL     1      45.890  15.555  19.010  0.00  0.00    +0.049 A 
ATOM      8  C   UNL     1      45.140  15.435  20.166  0.00  0.00    -0.011 A 
ATOM      9  C   UNL     1      44.502  16.541  20.696  0.00  0.00    +0.017 A 
ATOM     10  C   UNL     1      44.612  17.769  20.072  0.00  0.00    -0.028 A 
ATOM     11  C   UNL     1      45.368  17.893  18.916  0.00  0.00    +0.116 A 
BRANCH  11  12
ATOM     12  O   UNL     1      45.482  19.101  18.303  0.00  0.00    -0.476 OA
ATOM     13  H   UNL     1      44.728  19.331  17.744  0.00  0.00    +0.381 HD
ENDBRANCH  11  12
ENDBRANCH   5   6
ENDBRANCH   4   5
BRANCH  17  18
ATOM     18  C   UNL     1      49.023  12.607  15.798  0.00  0.00    +0.147 C 
BRANCH  18  19
ATOM     19  C   UNL     1      49.565  12.818  14.407  0.00  0.00    -0.107 A 
ATOM     20  C   UNL     1      50.927  12.953  14.209  0.00  0.00    +0.041 A 
ATOM     21  C   UNL     1      51.424  13.147  12.934  0.00  0.00    -0.011 A 
ATOM     22  C   UNL     1      50.562  13.205  11.854  0.00  0.00    +0.018 A 
ATOM     23  C   UNL     1      49.201  13.069  12.047  0.00  0.00    -0.026 A 
ATOM     24  C   UNL     1      48.699  12.869  13.325  0.00  0.00    +0.118 A 
BRANCH  24  25
ATOM     25  O   UNL     1      47.361  12.730  13.517  0.00  0.00    -0.475 OA
ATOM     26  H   UNL     1      46.888  12.389  12.747  0.00  0.00    +0.380 HD
ENDBRANCH  24  25
ENDBRANCH  18  19
ENDBRANCH  17  18
TORSDOF 13
ENDMDL
MODEL 6
REMARK VINA RESULT:      -6.3      1.400      5.811
REMARK  Name = ZINC15122269
REMARK  14 active torsions:
REMARK  status: ('A' for Active; 'I' for Inactive)
REMARK    1  A    between atoms: C1_1  and  O1_2
REMARK    2  A    between atoms: O1_2  and  C2_3
REMARK    3  A    between atoms: C3_4  and  C24_29
REMARK    4  A    between atoms: C4_5  and  O5_28
REMARK    5  A    between atoms: C5_6  and  C17_20
REMARK    6  A    between atoms: C6_7  and  O3_19
REMARK    7  A    between atoms: C7_8  and  C8_9
REMARK    8  A    between atoms: C8_9  and  C9_11
REMARK    9  A    between atoms: C9_11  and  C10_12
REMARK   10  A    between atoms: C10_12  and  C11_13
REMARK   11  A    between atoms: C17_20  and  C18_21
REMARK   12  A    between atoms: C23_26  and  O4_27
REMARK   13  A    between atoms: C24_29  and  C25_30
REMARK   14  A    between atoms: C30_35  and  O6_36
REMARK                            x       y       z     vdW  Elec       q    Type
REMARK                         _______ _______ _______ _____ _____    ______ ____
ROOT
ATOM      3  C   UNL     1      48.786  16.827  18.295  0.00  0.00    +0.200 A 
ATOM      4  C   UNL     1      49.288  17.658  19.278  0.00  0.00    -0.153 A 
ATOM     14  C   UNL     1      48.439  18.207  20.230  0.00  0.00    +0.192 A 
ATOM     17  C   UNL     1      47.078  17.928  20.205  0.00  0.00    -0.154 A 
ATOM     27  C   UNL     1      46.557  17.100  19.231  0.00  0.00    +0.188 A 
ATOM     30  C   UNL     1      47.407  16.543  18.257  0.00  0.00    -0.235 A 
ENDROOT
BRANCH   3   2
ATOM      1  C   UNL     1      50.273  15.071  17.708  0.00  0.00    +0.227 C 
ATOM      2  O   UNL     1      49.616  16.292  17.366  0.00  0.00    -0.295 OA
ENDBRANCH   3   2
BRANCH  14  15
ATOM     15  O   UNL     1      48.943  19.022  21.192  0.00  0.00    -0.463 OA
ATOM     16  H   UNL     1      48.478  19.865  21.276  0.00  0.00    +0.386 HD
ENDBRANCH  14  15
BRANCH  27  28
ATOM     28  O   UNL     1      45.228  16.828  19.208  0.00  0.00    -0.481 OA
ATOM     29  H   UNL     1      44.741  17.185  19.963  0.00  0.00    +0.394 HD
ENDBRANCH  27  28
BRANCH  30  31
ATOM     31  C   UNL     1      46.864  15.671  17.218  0.00  0.00    +0.396 C 
ATOM     40  O   UNL     1      46.306  16.151  16.252  0.00  0.00    -0.438 OA
BRANCH  31  32
ATOM     32  C   UNL     1      46.996  14.175  17.344  0.00  0.00    +0.058 C 
BRANCH  32  33
ATOM     33  C   UNL     1      45.797  13.619  18.115  0.00  0.00    +0.077 C 
BRANCH  33  34
ATOM     34  C   UNL     1      46.172  13.438  19.563  0.00  0.00    -0.079 A 
ATOM     35  C   UNL     1      45.209  13.570  20.547  0.00  0.00    +0.005 A 
ATOM     36  C   UNL     1      45.553  13.405  21.875  0.00  0.00    +0.004 A 
ATOM     37  C   UNL     1      46.858  13.108  22.220  0.00  0.00    -0.005 A 
ATOM     38  C   UNL     1      47.820  12.976  21.237  0.00  0.00    +0.003 A 
ATOM     39  C   UNL     1      47.475  13.137  19.908  0.00  0.00    +0.001 A 
ENDBRANCH  33  34
ENDBRANCH  32  33
ENDBRANCH  31  32
ENDBRANCH  30  31
BRANCH   4   5
ATOM      5  C   UNL     1      50.762  17.969  19.316  0.00  0.00    +0.144 C 
BRANCH   5   6
ATOM      6  C   UNL     1      51.075  19.049  18.312  0.00  0.00    -0.108 A 
ATOM      7  C   UNL     1      50.565  20.321  18.484  0.00  0.00    +0.049 A 
ATOM      8  C   UNL     1      50.850  21.313  17.563  0.00  0.00    -0.011 A 
ATOM      9  C   UNL     1      51.647  21.032  16.469  0.00  0.00    +0.017 A 
ATOM     10  C   UNL     1      52.160  19.762  16.293  0.00  0.00    -0.028 A 
ATOM     11  C   UNL     1      51.880  18.768  17.218  0.00  0.00    +0.116 A 
BRANCH  11  12
ATOM     12  O   UNL     1      52.387  17.518  17.049  0.00  0.00    -0.476 OA
ATOM     13  H   UNL     1      53.305  17.504  16.750  0.00  0.00    +0.381 HD
ENDBRANCH  11  12
ENDBRANCH   5   6
ENDBRANCH   4   5
BRANCH  17  18
ATOM     18  C   UNL     1      46.169  18.531  21.245  0.00  0.00    +0.147 C 
BRANCH  18  19
ATOM     19  C   UNL     1      45.494  19.752  20.674  0.00  0.00    -0.107 A 
ATOM     20  C   UNL     1      46.228  20.898  20.430  0.00  0.00    +0.041 A 
ATOM     21  C   UNL     1      45.609  22.017  19.908  0.00  0.00    -0.011 A 
ATOM     22  C   UNL     1      44.254  21.994  19.628  0.00  0.00    +0.018 A 
ATOM     23  C   UNL     1      43.517  20.852  19.868  0.00  0.00    -0.026 A 
ATOM     24  C   UNL     1      44.137  19.724  20.388  0.00  0.00    +0.118 A 
BRANCH  24  25
ATOM     25  O   UNL     1      43.415  18.597  20.621  0.00  0.00    -0.475 OA
ATOM     26  H   UNL     1      43.278  18.049  19.837  0.00  0.00    +0.380 HD
ENDBRANCH  24  25
ENDBRANCH  18  19
ENDBRANCH  17  18
TORSDOF 13
ENDMDL
MODEL 7
REMARK VINA RESULT:      -6.3      1.750      5.644
REMARK  Name = ZINC15122269
REMARK  14 active torsions:
REMARK  status: ('A' for Active; 'I' for Inactive)
REMARK    1  A    between atoms: C1_1  and  O1_2
REMARK    2  A    between atoms: O1_2  and  C2_3
REMARK    3  A    between atoms: C3_4  and  C24_29
REMARK    4  A    between atoms: C4_5  and  O5_28
REMARK    5  A    between atoms: C5_6  and  C17_20
REMARK    6  A    between atoms: C6_7  and  O3_19
REMARK    7  A    between atoms: C7_8  and  C8_9
REMARK    8  A    between atoms: C8_9  and  C9_11
REMARK    9  A    between atoms: C9_11  and  C10_12
REMARK   10  A    between atoms: C10_12  and  C11_13
REMARK   11  A    between atoms: C17_20  and  C18_21
REMARK   12  A    between atoms: C23_26  and  O4_27
REMARK   13  A    between atoms: C24_29  and  C25_30
REMARK   14  A    between atoms: C30_35  and  O6_36
REMARK                            x       y       z     vdW  Elec       q    Type
REMARK                         _______ _______ _______ _____ _____    ______ ____
ROOT
ATOM      3  C   UNL     1      47.236  15.601  18.357  0.00  0.00    +0.200 A 
ATOM      4  C   UNL     1      48.457  14.954  18.375  0.00  0.00    -0.153 A 
ATOM     14  C   UNL     1      49.621  15.663  18.638  0.00  0.00    +0.192 A 
ATOM     17  C   UNL     1      49.572  17.030  18.885  0.00  0.00    -0.154 A 
ATOM     27  C   UNL     1      48.361  17.695  18.870  0.00  0.00    +0.188 A 
ATOM     30  C   UNL     1      47.176  16.986  18.599  0.00  0.00    -0.235 A 
ENDROOT
BRANCH   3   2
ATOM      1  C   UNL     1      45.515  14.191  19.189  0.00  0.00    +0.227 C 
ATOM      2  O   UNL     1      46.101  14.905  18.099  0.00  0.00    -0.295 OA
ENDBRANCH   3   2
BRANCH  14  15
ATOM     15  O   UNL     1      50.815  15.019  18.656  0.00  0.00    -0.463 OA
ATOM     16  H   UNL     1      50.852  14.245  18.077  0.00  0.00    +0.386 HD
ENDBRANCH  14  15
BRANCH  27  28
ATOM     28  O   UNL     1      48.314  19.030  19.112  0.00  0.00    -0.481 OA
ATOM     29  H   UNL     1      47.419  19.374  19.240  0.00  0.00    +0.394 HD
ENDBRANCH  27  28
BRANCH  30  31
ATOM     31  C   UNL     1      45.891  17.682  18.575  0.00  0.00    +0.396 C 
ATOM     40  O   UNL     1      45.571  18.333  17.600  0.00  0.00    -0.438 OA
BRANCH  31  32
ATOM     32  C   UNL     1      44.962  17.592  19.758  0.00  0.00    +0.058 C 
BRANCH  32  33
ATOM     33  C   UNL     1      44.749  18.988  20.347  0.00  0.00    +0.077 C 
BRANCH  33  34
ATOM     34  C   UNL     1      43.346  19.450  20.047  0.00  0.00    -0.079 A 
ATOM     35  C   UNL     1      43.125  20.380  19.048  0.00  0.00    +0.005 A 
ATOM     36  C   UNL     1      41.838  20.804  18.773  0.00  0.00    +0.004 A 
ATOM     37  C   UNL     1      40.774  20.299  19.496  0.00  0.00    -0.005 A 
ATOM     38  C   UNL     1      40.996  19.369  20.494  0.00  0.00    +0.003 A 
ATOM     39  C   UNL     1      42.282  18.942  20.766  0.00  0.00    +0.001 A 
ENDBRANCH  33  34
ENDBRANCH  32  33
ENDBRANCH  31  32
ENDBRANCH  30  31
BRANCH   4   5
ATOM      5  C   UNL     1      48.525  13.471  18.109  0.00  0.00    +0.144 C 
BRANCH   5   6
ATOM      6  C   UNL     1      48.797  13.235  16.645  0.00  0.00    -0.108 A 
ATOM      7  C   UNL     1      50.091  13.288  16.166  0.00  0.00    +0.049 A 
ATOM      8  C   UNL     1      50.342  13.072  14.823  0.00  0.00    -0.011 A 
ATOM      9  C   UNL     1      49.297  12.802  13.958  0.00  0.00    +0.017 A 
ATOM     10  C   UNL     1      48.002  12.748  14.433  0.00  0.00    -0.028 A 
ATOM     11  C   UNL     1      47.748  12.958  15.780  0.00  0.00    +0.116 A 
BRANCH  11  12
ATOM     12  O   UNL     1      46.475  12.900  16.251  0.00  0.00    -0.476 OA
ATOM     13  H   UNL     1      46.362  12.313  17.010  0.00  0.00    +0.381 HD
ENDBRANCH  11  12
ENDBRANCH   5   6
ENDBRANCH   4   5
BRANCH  17  18
ATOM     18  C   UNL     1      50.842  17.788  19.169  0.00  0.00    +0.147 C 
BRANCH  18  19
ATOM     19  C   UNL     1      51.222  18.604  17.959  0.00  0.00    -0.107 A 
ATOM     20  C   UNL     1      51.563  17.971  16.778  0.00  0.00    +0.041 A 
ATOM     21  C   UNL     1      51.912  18.718  15.670  0.00  0.00    -0.011 A 
ATOM     22  C   UNL     1      51.920  20.100  15.738  0.00  0.00    +0.018 A 
ATOM     23  C   UNL     1      51.580  20.736  16.915  0.00  0.00    -0.026 A 
ATOM     24  C   UNL     1      51.224  19.989  18.030  0.00  0.00    +0.118 A 
BRANCH  24  25
ATOM     25  O   UNL     1      50.883  20.613  19.187  0.00  0.00    -0.475 OA
ATOM     26  H   UNL     1      51.544  20.529  19.887  0.00  0.00    +0.380 HD
ENDBRANCH  24  25
ENDBRANCH  18  19
ENDBRANCH  17  18
TORSDOF 13
ENDMDL
MODEL 8
REMARK VINA RESULT:      -6.2      2.197      7.237
REMARK  Name = ZINC15122269
REMARK  14 active torsions:
REMARK  status: ('A' for Active; 'I' for Inactive)
REMARK    1  A    between atoms: C1_1  and  O1_2
REMARK    2  A    between atoms: O1_2  and  C2_3
REMARK    3  A    between atoms: C3_4  and  C24_29
REMARK    4  A    between atoms: C4_5  and  O5_28
REMARK    5  A    between atoms: C5_6  and  C17_20
REMARK    6  A    between atoms: C6_7  and  O3_19
REMARK    7  A    between atoms: C7_8  and  C8_9
REMARK    8  A    between atoms: C8_9  and  C9_11
REMARK    9  A    between atoms: C9_11  and  C10_12
REMARK   10  A    between atoms: C10_12  and  C11_13
REMARK   11  A    between atoms: C17_20  and  C18_21
REMARK   12  A    between atoms: C23_26  and  O4_27
REMARK   13  A    between atoms: C24_29  and  C25_30
REMARK   14  A    between atoms: C30_35  and  O6_36
REMARK                            x       y       z     vdW  Elec       q    Type
REMARK                         _______ _______ _______ _____ _____    ______ ____
ROOT
ATOM      3  C   UNL     1      48.114  18.257  21.233  0.00  0.00    +0.200 A 
ATOM      4  C   UNL     1      47.123  17.406  21.684  0.00  0.00    -0.153 A 
ATOM     14  C   UNL     1      45.887  17.911  22.065  0.00  0.00    +0.192 A 
ATOM     17  C   UNL     1      45.633  19.276  21.997  0.00  0.00    -0.154 A 
ATOM     27  C   UNL     1      46.610  20.143  21.549  0.00  0.00    +0.188 A 
ATOM     30  C   UNL     1      47.868  19.641  21.167  0.00  0.00    -0.235 A 
ENDROOT
BRANCH   3   2
ATOM      1  C   UNL     1      50.335  17.703  21.866  0.00  0.00    +0.227 C 
ATOM      2  O   UNL     1      49.320  17.762  20.863  0.00  0.00    -0.295 OA
ENDBRANCH   3   2
BRANCH  14  15
ATOM     15  O   UNL     1      44.920  17.067  22.505  0.00  0.00    -0.463 OA
ATOM     16  H   UNL     1      45.025  16.796  23.428  0.00  0.00    +0.386 HD
ENDBRANCH  14  15
BRANCH  27  28
ATOM     28  O   UNL     1      46.360  21.475  21.482  0.00  0.00    -0.481 OA
ATOM     29  H   UNL     1      45.437  21.710  21.649  0.00  0.00    +0.394 HD
ENDBRANCH  27  28
BRANCH  30  31
ATOM     31  C   UNL     1      48.911  20.551  20.698  0.00  0.00    +0.396 C 
ATOM     40  O   UNL     1      49.604  21.146  21.499  0.00  0.00    -0.438 OA
BRANCH  31  32
ATOM     32  C   UNL     1      49.128  20.753  19.220  0.00  0.00    +0.058 C 
BRANCH  32  33
ATOM     33  C   UNL     1      50.613  21.007  18.951  0.00  0.00    +0.077 C 
BRANCH  33  34
ATOM     34  C   UNL     1      51.065  20.161  17.788  0.00  0.00    -0.079 A 
ATOM     35  C   UNL     1      50.768  18.811  17.760  0.00  0.00    +0.005 A 
ATOM     36  C   UNL     1      51.183  18.036  16.693  0.00  0.00    +0.004 A 
ATOM     37  C   UNL     1      51.893  18.611  15.655  0.00  0.00    -0.005 A 
ATOM     38  C   UNL     1      52.189  19.960  15.685  0.00  0.00    +0.003 A 
ATOM     39  C   UNL     1      51.771  20.736  16.749  0.00  0.00    +0.001 A 
ENDBRANCH  33  34
ENDBRANCH  32  33
ENDBRANCH  31  32
ENDBRANCH  30  31
BRANCH   4   5
ATOM      5  C   UNL     1      47.386  15.924  21.763  0.00  0.00    +0.144 C 
BRANCH   5   6
ATOM      6  C   UNL     1      46.829  15.249  20.536  0.00  0.00    -0.108 A 
ATOM      7  C   UNL     1      47.396  15.487  19.299  0.00  0.00    +0.049 A 
ATOM      8  C   UNL     1      46.885  14.869  18.172  0.00  0.00    -0.011 A 
ATOM      9  C   UNL     1      45.807  14.010  18.281  0.00  0.00    +0.017 A 
ATOM     10  C   UNL     1      45.237  13.768  19.516  0.00  0.00    -0.028 A 
ATOM     11  C   UNL     1      45.751  14.382  20.648  0.00  0.00    +0.116 A 
BRANCH  11  12
ATOM     12  O   UNL     1      45.195  14.142  21.865  0.00  0.00    -0.476 OA
ATOM     13  H   UNL     1      44.230  14.193  21.874  0.00  0.00    +0.381 HD
ENDBRANCH  11  12
ENDBRANCH   5   6
ENDBRANCH   4   5
BRANCH  17  18
ATOM     18  C   UNL     1      44.287  19.810  22.412  0.00  0.00    +0.147 C 
BRANCH  18  19
ATOM     19  C   UNL     1      43.361  19.821  21.222  0.00  0.00    -0.107 A 
ATOM     20  C   UNL     1      43.572  20.716  20.190  0.00  0.00    +0.041 A 
ATOM     21  C   UNL     1      42.723  20.726  19.100  0.00  0.00    -0.011 A 
ATOM     22  C   UNL     1      41.662  19.840  19.038  0.00  0.00    +0.018 A 
ATOM     23  C   UNL     1      41.449  18.943  20.065  0.00  0.00    -0.026 A 
ATOM     24  C   UNL     1      42.302  18.927  21.160  0.00  0.00    +0.118 A 
BRANCH  24  25
ATOM     25  O   UNL     1      42.097  18.042  22.170  0.00  0.00    -0.475 OA
ATOM     26  H   UNL     1      41.795  18.448  22.993  0.00  0.00    +0.380 HD
ENDBRANCH  24  25
ENDBRANCH  18  19
ENDBRANCH  17  18
TORSDOF 13
ENDMDL
MODEL 9
REMARK VINA RESULT:      -6.2      1.783      5.400
REMARK  Name = ZINC15122269
REMARK  14 active torsions:
REMARK  status: ('A' for Active; 'I' for Inactive)
REMARK    1  A    between atoms: C1_1  and  O1_2
REMARK    2  A    between atoms: O1_2  and  C2_3
REMARK    3  A    between atoms: C3_4  and  C24_29
REMARK    4  A    between atoms: C4_5  and  O5_28
REMARK    5  A    between atoms: C5_6  and  C17_20
REMARK    6  A    between atoms: C6_7  and  O3_19
REMARK    7  A    between atoms: C7_8  and  C8_9
REMARK    8  A    between atoms: C8_9  and  C9_11
REMARK    9  A    between atoms: C9_11  and  C10_12
REMARK   10  A    between atoms: C10_12  and  C11_13
REMARK   11  A    between atoms: C17_20  and  C18_21
REMARK   12  A    between atoms: C23_26  and  O4_27
REMARK   13  A    between atoms: C24_29  and  C25_30
REMARK   14  A    between atoms: C30_35  and  O6_36
REMARK                            x       y       z     vdW  Elec       q    Type
REMARK                         _______ _______ _______ _____ _____    ______ ____
ROOT
ATOM      3  C   UNL     1      47.071  18.026  20.277  0.00  0.00    +0.200 A 
ATOM      4  C   UNL     1      48.022  17.032  20.158  0.00  0.00    -0.153 A 
ATOM     14  C   UNL     1      49.359  17.360  19.975  0.00  0.00    +0.192 A 
ATOM     17  C   UNL     1      49.754  18.691  19.910  0.00  0.00    -0.154 A 
ATOM     27  C   UNL     1      48.818  19.700  20.027  0.00  0.00    +0.188 A 
ATOM     30  C   UNL     1      47.460  19.377  20.206  0.00  0.00    -0.235 A 
ENDROOT
BRANCH   3   2
ATOM      1  C   UNL     1      45.296  17.615  21.801  0.00  0.00    +0.227 C 
ATOM      2  O   UNL     1      45.766  17.703  20.455  0.00  0.00    -0.295 OA
ENDBRANCH   3   2
BRANCH  14  15
ATOM     15  O   UNL     1      50.286  16.376  19.860  0.00  0.00    -0.463 OA
ATOM     16  H   UNL     1      49.997  15.624  19.325  0.00  0.00    +0.386 HD
ENDBRANCH  14  15
BRANCH  27  28
ATOM     28  O   UNL     1      49.205  20.999  19.963  0.00  0.00    -0.481 OA
ATOM     29  H   UNL     1      49.058  21.493  20.781  0.00  0.00    +0.394 HD
ENDBRANCH  27  28
BRANCH  30  31
ATOM     31  C   UNL     1      46.461  20.437  20.324  0.00  0.00    +0.396 C 
ATOM     40  O   UNL     1      46.378  21.082  21.350  0.00  0.00    -0.438 OA
BRANCH  31  32
ATOM     32  C   UNL     1      45.534  20.732  19.173  0.00  0.00    +0.058 C 
BRANCH  32  33
ATOM     33  C   UNL     1      44.564  21.846  19.570  0.00  0.00    +0.077 C 
BRANCH  33  34
ATOM     34  C   UNL     1      43.147  21.354  19.421  0.00  0.00    -0.079 A 
ATOM     35  C   UNL     1      42.174  22.195  18.913  0.00  0.00    +0.005 A 
ATOM     36  C   UNL     1      40.875  21.744  18.776  0.00  0.00    +0.004 A 
ATOM     37  C   UNL     1      40.548  20.453  19.147  0.00  0.00    -0.005 A 
ATOM     38  C   UNL     1      41.521  19.613  19.654  0.00  0.00    +0.003 A 
ATOM     39  C   UNL     1      42.821  20.062  19.787  0.00  0.00    +0.001 A 
ENDBRANCH  33  34
ENDBRANCH  32  33
ENDBRANCH  31  32
ENDBRANCH  30  31
BRANCH   4   5
ATOM      5  C   UNL     1      47.608  15.584  20.227  0.00  0.00    +0.144 C 
BRANCH   5   6
ATOM      6  C   UNL     1      47.615  14.992  18.840  0.00  0.00    -0.108 A 
ATOM      7  C   UNL     1      46.755  15.480  17.876  0.00  0.00    +0.049 A 
ATOM      8  C   UNL     1      46.761  14.938  16.604  0.00  0.00    -0.011 A 
ATOM      9  C   UNL     1      47.628  13.907  16.295  0.00  0.00    +0.017 A 
ATOM     10  C   UNL     1      48.491  13.416  17.255  0.00  0.00    -0.028 A 
ATOM     11  C   UNL     1      48.491  13.962  18.530  0.00  0.00    +0.116 A 
BRANCH  11  12
ATOM     12  O   UNL     1      49.342  13.484  19.476  0.00  0.00    -0.476 OA
ATOM     13  H   UNL     1      49.525  12.538  19.399  0.00  0.00    +0.381 HD
ENDBRANCH  11  12
ENDBRANCH   5   6
ENDBRANCH   4   5
BRANCH  17  18
ATOM     18  C   UNL     1      51.208  19.034  19.712  0.00  0.00    +0.147 C 
BRANCH  18  19
ATOM     19  C   UNL     1      51.463  19.317  18.253  0.00  0.00    -0.107 A 
ATOM     20  C   UNL     1      51.409  18.290  17.329  0.00  0.00    +0.041 A 
ATOM     21  C   UNL     1      51.643  18.550  15.993  0.00  0.00    -0.011 A 
ATOM     22  C   UNL     1      51.931  19.837  15.576  0.00  0.00    +0.018 A 
ATOM     23  C   UNL     1      51.985  20.866  16.494  0.00  0.00    -0.026 A 
ATOM     24  C   UNL     1      51.745  20.610  17.837  0.00  0.00    +0.118 A 
BRANCH  24  25
ATOM     25  O   UNL     1      51.792  21.622  18.743  0.00  0.00    -0.475 OA
ATOM     26  H   UNL     1      51.165  21.526  19.471  0.00  0.00    +0.380 HD
ENDBRANCH  24  25
ENDBRANCH  18  19
ENDBRANCH  17  18
TORSDOF 13
ENDMDL
