MODEL 1
REMARK VINA RESULT:      -7.3      0.000      0.000
REMARK  Name = ZINC95486198
REMARK  5 active torsions:
REMARK  status: ('A' for Active; 'I' for Inactive)
REMARK    1  A    between atoms: C1_1  and  O1_2
REMARK    2  A    between atoms: O1_2  and  C2_3
REMARK    3  A    between atoms: C7_8  and  O2_9
REMARK    4  A    between atoms: O2_9  and  C8_10
REMARK    5  A    between atoms: C28_34  and  O6_35
REMARK                            x       y       z     vdW  Elec       q    Type
REMARK                         _______ _______ _______ _____ _____    ______ ____
ROOT
ATOM      3  C   UNL     1      52.872  16.738  18.993  0.00  0.00    +0.175 A 
ATOM      4  C   UNL     1      53.175  18.089  19.001  0.00  0.00    -0.072 A 
ATOM      5  C   UNL     1      52.158  19.032  18.990  0.00  0.00    -0.002 A 
ATOM      6  C   UNL     1      50.853  18.599  18.935  0.00  0.00    -0.195 A 
ATOM      7  C   UNL     1      50.533  17.255  18.807  0.00  0.00    +0.154 A 
ATOM      8  O   UNL     1      49.276  16.906  18.471  0.00  0.00    -0.139 OA
ATOM      9  O   UNL     1      48.813  15.546  18.610  0.00  0.00    -0.078 OA
ATOM     10  C   UNL     1      49.008  14.655  17.619  0.00  0.00    +0.074 A 
ATOM     11  C   UNL     1      50.110  14.736  16.782  0.00  0.00    -0.005 A 
ATOM     12  C   UNL     1      50.364  13.743  15.858  0.00  0.00    +0.040 A 
ATOM     13  C   UNL     1      49.501  12.670  15.747  0.00  0.00    +0.012 A 
ATOM     14  C   UNL     1      48.348  12.635  16.511  0.00  0.00    -0.042 A 
ATOM     15  C   UNL     1      47.432  11.442  16.382  0.00  0.00    +0.097 C 
ATOM     16  C   UNL     1      46.413  11.466  17.524  0.00  0.00    +0.153 C 
ATOM     17  N   UNL     1      45.753  12.804  17.459  0.00  0.00    -0.602 NA
ATOM     18  H   UNL     1      45.033  12.729  18.242  0.00  0.00    +0.324 HD
ATOM     19  C   UNL     1      46.702  13.794  18.019  0.00  0.00    +0.189 C 
ATOM     20  C   UNL     1      46.737  13.689  19.535  0.00  0.00    +0.072 C 
ATOM     21  C   UNL     1      46.216  14.977  20.126  0.00  0.00    -0.059 A 
ATOM     22  C   UNL     1      45.274  15.722  19.438  0.00  0.00    +0.031 A 
ATOM     23  C   UNL     1      44.827  16.926  19.946  0.00  0.00    +0.026 A 
ATOM     24  C   UNL     1      45.313  17.382  21.162  0.00  0.00    +0.065 A 
ATOM     25  O   UNL     1      44.940  18.609  21.627  0.00  0.00    -0.239 OA
ATOM     26  C   UNL     1      45.863  19.598  21.428  0.00  0.00    +0.102 A 
ATOM     27  C   UNL     1      47.151  19.248  21.060  0.00  0.00    -0.023 A 
ATOM     28  C   UNL     1      48.112  20.229  20.881  0.00  0.00    -0.094 A 
ATOM     29  C   UNL     1      49.525  19.830  20.566  0.00  0.00    +0.115 C 
ATOM     30  C   UNL     1      47.778  21.563  21.030  0.00  0.00    -0.010 A 
ATOM     31  C   UNL     1      46.487  21.916  21.381  0.00  0.00    +0.040 A 
ATOM     32  C   UNL     1      45.528  20.935  21.588  0.00  0.00    +0.103 A 
ATOM     35  C   UNL     1      46.207  16.604  21.885  0.00  0.00    +0.003 A 
ATOM     36  C   UNL     1      46.664  15.408  21.361  0.00  0.00    +0.026 A 
ATOM     37  C   UNL     1      48.054  13.656  17.390  0.00  0.00    -0.081 A 
ATOM     38  C   UNL     1      49.738  19.605  19.067  0.00  0.00    +0.253 C 
ATOM     39  N   UNL     1      50.115  20.885  18.444  0.00  0.00    -0.501 N 
ATOM     40  H   UNL     1      49.349  21.548  18.537  0.00  0.00    +0.437 HD
ATOM     41  H   UNL     1      50.289  20.747  17.452  0.00  0.00    +0.435 HD
ATOM     42  C   UNL     1      51.310  21.426  19.086  0.00  0.00    +0.265 C 
ATOM     43  C   UNL     1      52.502  20.491  19.003  0.00  0.00    +0.134 C 
ATOM     44  C   UNL     1      51.552  16.304  18.926  0.00  0.00    +0.008 A 
ENDROOT
BRANCH   3   2
ATOM      1  C   UNL     1      54.799  15.935  20.137  0.00  0.00    +0.257 C 
ATOM      2  O   UNL     1      53.879  15.822  19.050  0.00  0.00    -0.291 OA
ENDBRANCH   3   2
BRANCH  32  33
ATOM     33  O   UNL     1      44.264  21.284  21.949  0.00  0.00    -0.484 OA
ATOM     34  H   UNL     1      44.221  22.032  22.560  0.00  0.00    +0.398 HD
ENDBRANCH  32  33
BRANCH  44  45
ATOM     45  O   UNL     1      51.292  14.974  19.044  0.00  0.00    -0.298 OA
ATOM     46  C   UNL     1      51.347  14.415  20.358  0.00  0.00    +0.228 C 
ENDBRANCH  44  45
TORSDOF 3
ENDMDL
MODEL 2
REMARK VINA RESULT:      -6.7      1.868      2.114
REMARK  Name = ZINC95486198
REMARK  5 active torsions:
REMARK  status: ('A' for Active; 'I' for Inactive)
REMARK    1  A    between atoms: C1_1  and  O1_2
REMARK    2  A    between atoms: O1_2  and  C2_3
REMARK    3  A    between atoms: C7_8  and  O2_9
REMARK    4  A    between atoms: O2_9  and  C8_10
REMARK    5  A    between atoms: C28_34  and  O6_35
REMARK                            x       y       z     vdW  Elec       q    Type
REMARK                         _______ _______ _______ _____ _____    ______ ____
ROOT
ATOM      3  C   UNL     1      52.351  16.739  21.791  0.00  0.00    +0.175 A 
ATOM      4  C   UNL     1      52.776  17.968  22.267  0.00  0.00    -0.072 A 
ATOM      5  C   UNL     1      52.067  19.119  21.958  0.00  0.00    -0.002 A 
ATOM      6  C   UNL     1      50.962  19.019  21.145  0.00  0.00    -0.195 A 
ATOM      7  C   UNL     1      50.589  17.815  20.563  0.00  0.00    +0.154 A 
ATOM      8  O   UNL     1      49.688  17.820  19.561  0.00  0.00    -0.139 OA
ATOM      9  O   UNL     1      49.048  16.602  19.123  0.00  0.00    -0.078 OA
ATOM     10  C   UNL     1      49.634  15.821  18.194  0.00  0.00    +0.074 A 
ATOM     11  C   UNL     1      51.013  15.741  18.084  0.00  0.00    -0.005 A 
ATOM     12  C   UNL     1      51.597  14.839  17.217  0.00  0.00    +0.040 A 
ATOM     13  C   UNL     1      50.802  14.025  16.436  0.00  0.00    +0.012 A 
ATOM     14  C   UNL     1      49.426  14.169  16.471  0.00  0.00    -0.042 A 
ATOM     15  C   UNL     1      48.582  13.254  15.618  0.00  0.00    +0.097 C 
ATOM     16  C   UNL     1      47.118  13.377  16.047  0.00  0.00    +0.153 C 
ATOM     17  N   UNL     1      46.786  14.830  15.968  0.00  0.00    -0.602 NA
ATOM     18  H   UNL     1      45.753  14.833  16.231  0.00  0.00    +0.324 HD
ATOM     19  C   UNL     1      47.396  15.489  17.147  0.00  0.00    +0.189 C 
ATOM     20  C   UNL     1      46.580  15.191  18.395  0.00  0.00    +0.072 C 
ATOM     21  C   UNL     1      45.997  16.483  18.917  0.00  0.00    -0.059 A 
ATOM     22  C   UNL     1      45.695  17.509  18.040  0.00  0.00    +0.031 A 
ATOM     23  C   UNL     1      45.207  18.713  18.513  0.00  0.00    +0.026 A 
ATOM     24  C   UNL     1      45.004  18.885  19.873  0.00  0.00    +0.065 A 
ATOM     25  O   UNL     1      44.604  20.097  20.353  0.00  0.00    -0.239 OA
ATOM     26  C   UNL     1      45.607  20.857  20.891  0.00  0.00    +0.102 A 
ATOM     27  C   UNL     1      46.827  20.258  21.162  0.00  0.00    -0.023 A 
ATOM     28  C   UNL     1      47.849  20.998  21.734  0.00  0.00    -0.094 A 
ATOM     29  C   UNL     1      49.136  20.317  22.103  0.00  0.00    +0.115 C 
ATOM     30  C   UNL     1      47.668  22.344  21.997  0.00  0.00    -0.010 A 
ATOM     31  C   UNL     1      46.457  22.946  21.711  0.00  0.00    +0.040 A 
ATOM     32  C   UNL     1      45.420  22.204  21.163  0.00  0.00    +0.103 A 
ATOM     35  C   UNL     1      45.244  17.833  20.747  0.00  0.00    +0.003 A 
ATOM     36  C   UNL     1      45.749  16.637  20.269  0.00  0.00    +0.026 A 
ATOM     37  C   UNL     1      48.838  15.114  17.285  0.00  0.00    -0.081 A 
ATOM     38  C   UNL     1      50.103  20.236  20.919  0.00  0.00    +0.253 C 
ATOM     39  N   UNL     1      50.925  21.457  20.893  0.00  0.00    -0.501 N 
ATOM     40  H   UNL     1      50.330  22.266  20.734  0.00  0.00    +0.437 HD
ATOM     41  H   UNL     1      51.594  21.407  20.129  0.00  0.00    +0.435 HD
ATOM     42  C   UNL     1      51.633  21.614  22.161  0.00  0.00    +0.265 C 
ATOM     43  C   UNL     1      52.539  20.441  22.484  0.00  0.00    +0.134 C 
ATOM     44  C   UNL     1      51.239  16.642  20.960  0.00  0.00    +0.008 A 
ENDROOT
BRANCH   3   2
ATOM      1  C   UNL     1      54.264  15.360  21.463  0.00  0.00    +0.257 C 
ATOM      2  O   UNL     1      53.030  15.610  22.139  0.00  0.00    -0.291 OA
ENDBRANCH   3   2
BRANCH  32  33
ATOM     33  O   UNL     1      44.225  22.795  20.897  0.00  0.00    -0.484 OA
ATOM     34  H   UNL     1      43.554  22.189  20.555  0.00  0.00    +0.398 HD
ENDBRANCH  32  33
BRANCH  44  45
ATOM     45  O   UNL     1      50.783  15.409  20.615  0.00  0.00    -0.298 OA
ATOM     46  C   UNL     1      50.067  14.678  21.614  0.00  0.00    +0.228 C 
ENDBRANCH  44  45
TORSDOF 3
ENDMDL
MODEL 3
REMARK VINA RESULT:      -6.5      1.327      1.935
REMARK  Name = ZINC95486198
REMARK  5 active torsions:
REMARK  status: ('A' for Active; 'I' for Inactive)
REMARK    1  A    between atoms: C1_1  and  O1_2
REMARK    2  A    between atoms: O1_2  and  C2_3
REMARK    3  A    between atoms: C7_8  and  O2_9
REMARK    4  A    between atoms: O2_9  and  C8_10
REMARK    5  A    between atoms: C28_34  and  O6_35
REMARK                            x       y       z     vdW  Elec       q    Type
REMARK                         _______ _______ _______ _____ _____    ______ ____
ROOT
ATOM      3  C   UNL     1      52.966  16.592  18.940  0.00  0.00    +0.175 A 
ATOM      4  C   UNL     1      52.895  17.942  19.238  0.00  0.00    -0.072 A 
ATOM      5  C   UNL     1      51.663  18.574  19.324  0.00  0.00    -0.002 A 
ATOM      6  C   UNL     1      50.524  17.845  19.073  0.00  0.00    -0.195 A 
ATOM      7  C   UNL     1      50.581  16.521  18.658  0.00  0.00    +0.154 A 
ATOM      8  O   UNL     1      49.473  15.942  18.154  0.00  0.00    -0.139 OA
ATOM      9  O   UNL     1      49.388  14.511  17.985  0.00  0.00    -0.078 OA
ATOM     10  C   UNL     1      49.845  13.929  16.859  0.00  0.00    +0.074 A 
ATOM     11  C   UNL     1      50.912  14.463  16.153  0.00  0.00    -0.005 A 
ATOM     12  C   UNL     1      51.451  13.785  15.078  0.00  0.00    +0.040 A 
ATOM     13  C   UNL     1      50.910  12.576  14.687  0.00  0.00    +0.012 A 
ATOM     14  C   UNL     1      49.786  12.087  15.327  0.00  0.00    -0.042 A 
ATOM     15  C   UNL     1      49.227  10.755  14.889  0.00  0.00    +0.097 C 
ATOM     16  C   UNL     1      48.203  10.277  15.921  0.00  0.00    +0.153 C 
ATOM     17  N   UNL     1      47.211  11.384  16.062  0.00  0.00    -0.602 NA
ATOM     18  H   UNL     1      46.513  10.965  16.750  0.00  0.00    +0.324 HD
ATOM     19  C   UNL     1      47.843  12.443  16.884  0.00  0.00    +0.189 C 
ATOM     20  C   UNL     1      47.857  12.034  18.348  0.00  0.00    +0.072 C 
ATOM     21  C   UNL     1      46.991  12.991  19.130  0.00  0.00    -0.059 A 
ATOM     22  C   UNL     1      45.907  13.598  18.522  0.00  0.00    +0.031 A 
ATOM     23  C   UNL     1      45.137  14.514  19.215  0.00  0.00    +0.026 A 
ATOM     24  C   UNL     1      45.446  14.812  20.533  0.00  0.00    +0.065 A 
ATOM     25  O   UNL     1      44.743  15.776  21.195  0.00  0.00    -0.239 OA
ATOM     26  C   UNL     1      45.373  16.987  21.273  0.00  0.00    +0.102 A 
ATOM     27  C   UNL     1      46.719  17.063  20.956  0.00  0.00    -0.023 A 
ATOM     28  C   UNL     1      47.388  18.272  21.055  0.00  0.00    -0.094 A 
ATOM     29  C   UNL     1      48.865  18.323  20.792  0.00  0.00    +0.115 C 
ATOM     30  C   UNL     1      46.703  19.414  21.432  0.00  0.00    -0.010 A 
ATOM     31  C   UNL     1      45.355  19.343  21.733  0.00  0.00    +0.040 A 
ATOM     32  C   UNL     1      44.687  18.129  21.661  0.00  0.00    +0.103 A 
ATOM     35  C   UNL     1      46.492  14.154  21.165  0.00  0.00    +0.003 A 
ATOM     36  C   UNL     1      47.268  13.252  20.460  0.00  0.00    +0.026 A 
ATOM     37  C   UNL     1      49.201  12.791  16.358  0.00  0.00    -0.081 A 
ATOM     38  C   UNL     1      49.178  18.481  19.302  0.00  0.00    +0.253 C 
ATOM     39  N   UNL     1      49.217  19.916  18.975  0.00  0.00    -0.501 N 
ATOM     40  H   UNL     1      48.300  20.326  19.129  0.00  0.00    +0.437 HD
ATOM     41  H   UNL     1      49.453  20.040  17.993  0.00  0.00    +0.435 HD
ATOM     42  C   UNL     1      50.204  20.596  19.810  0.00  0.00    +0.265 C 
ATOM     43  C   UNL     1      51.604  20.036  19.650  0.00  0.00    +0.134 C 
ATOM     44  C   UNL     1      51.813  15.859  18.677  0.00  0.00    +0.008 A 
ENDROOT
BRANCH   3   2
ATOM      1  C   UNL     1      54.904  15.893  20.133  0.00  0.00    +0.257 C 
ATOM      2  O   UNL     1      54.178  15.973  18.904  0.00  0.00    -0.291 OA
ENDBRANCH   3   2
BRANCH  32  33
ATOM     33  O   UNL     1      43.365  18.059  21.973  0.00  0.00    -0.484 OA
ATOM     34  H   UNL     1      42.924  18.919  22.011  0.00  0.00    +0.398 HD
ENDBRANCH  32  33
BRANCH  44  45
ATOM     45  O   UNL     1      51.914  14.513  18.511  0.00  0.00    -0.298 OA
ATOM     46  C   UNL     1      52.000  13.717  19.695  0.00  0.00    +0.228 C 
ENDBRANCH  44  45
TORSDOF 3
ENDMDL
MODEL 4
REMARK VINA RESULT:      -6.5      2.078      8.540
REMARK  Name = ZINC95486198
REMARK  5 active torsions:
REMARK  status: ('A' for Active; 'I' for Inactive)
REMARK    1  A    between atoms: C1_1  and  O1_2
REMARK    2  A    between atoms: O1_2  and  C2_3
REMARK    3  A    between atoms: C7_8  and  O2_9
REMARK    4  A    between atoms: O2_9  and  C8_10
REMARK    5  A    between atoms: C28_34  and  O6_35
REMARK                            x       y       z     vdW  Elec       q    Type
REMARK                         _______ _______ _______ _____ _____    ______ ____
ROOT
ATOM      3  C   UNL     1      46.026  15.709  21.218  0.00  0.00    +0.175 A 
ATOM      4  C   UNL     1      45.107  14.758  20.810  0.00  0.00    -0.072 A 
ATOM      5  C   UNL     1      45.284  14.088  19.609  0.00  0.00    -0.002 A 
ATOM      6  C   UNL     1      46.364  14.412  18.821  0.00  0.00    -0.195 A 
ATOM      7  C   UNL     1      47.230  15.443  19.156  0.00  0.00    +0.154 A 
ATOM      8  O   UNL     1      48.090  15.908  18.228  0.00  0.00    -0.139 OA
ATOM      9  O   UNL     1      49.197  16.759  18.593  0.00  0.00    -0.078 OA
ATOM     10  C   UNL     1      49.032  18.093  18.680  0.00  0.00    +0.074 A 
ATOM     11  C   UNL     1      47.819  18.648  19.055  0.00  0.00    -0.005 A 
ATOM     12  C   UNL     1      47.703  20.007  19.266  0.00  0.00    +0.040 A 
ATOM     13  C   UNL     1      48.799  20.827  19.079  0.00  0.00    +0.012 A 
ATOM     14  C   UNL     1      49.985  20.291  18.611  0.00  0.00    -0.042 A 
ATOM     15  C   UNL     1      51.171  21.208  18.433  0.00  0.00    +0.097 C 
ATOM     16  C   UNL     1      52.430  20.365  18.217  0.00  0.00    +0.153 C 
ATOM     17  N   UNL     1      52.128  19.460  17.068  0.00  0.00    -0.602 NA
ATOM     18  H   UNL     1      53.053  18.946  16.947  0.00  0.00    +0.324 HD
ATOM     19  C   UNL     1      51.248  18.380  17.573  0.00  0.00    +0.189 C 
ATOM     20  C   UNL     1      52.058  17.376  18.378  0.00  0.00    +0.072 C 
ATOM     21  C   UNL     1      52.026  16.043  17.669  0.00  0.00    -0.059 A 
ATOM     22  C   UNL     1      51.910  15.995  16.291  0.00  0.00    +0.031 A 
ATOM     23  C   UNL     1      51.829  14.780  15.638  0.00  0.00    +0.026 A 
ATOM     24  C   UNL     1      51.883  13.603  16.368  0.00  0.00    +0.065 A 
ATOM     25  O   UNL     1      51.719  12.404  15.738  0.00  0.00    -0.239 OA
ATOM     26  C   UNL     1      50.468  11.863  15.858  0.00  0.00    +0.102 A 
ATOM     27  C   UNL     1      49.599  12.391  16.799  0.00  0.00    -0.023 A 
ATOM     28  C   UNL     1      48.338  11.842  16.962  0.00  0.00    -0.094 A 
ATOM     29  C   UNL     1      47.438  12.367  18.044  0.00  0.00    +0.115 C 
ATOM     30  C   UNL     1      47.928  10.793  16.158  0.00  0.00    -0.010 A 
ATOM     31  C   UNL     1      48.789  10.277  15.207  0.00  0.00    +0.040 A 
ATOM     32  C   UNL     1      50.064  10.805  15.058  0.00  0.00    +0.103 A 
ATOM     35  C   UNL     1      52.067  13.649  17.743  0.00  0.00    +0.003 A 
ATOM     36  C   UNL     1      52.128  14.869  18.392  0.00  0.00    +0.026 A 
ATOM     37  C   UNL     1      50.089  18.944  18.335  0.00  0.00    -0.081 A 
ATOM     38  C   UNL     1      46.646  13.594  17.586  0.00  0.00    +0.253 C 
ATOM     39  N   UNL     1      45.391  13.143  16.962  0.00  0.00    -0.501 N 
ATOM     40  H   UNL     1      45.600  12.600  16.129  0.00  0.00    +0.437 HD
ATOM     41  H   UNL     1      44.838  13.948  16.678  0.00  0.00    +0.435 HD
ATOM     42  C   UNL     1      44.627  12.324  17.901  0.00  0.00    +0.265 C 
ATOM     43  C   UNL     1      44.281  13.058  19.182  0.00  0.00    +0.134 C 
ATOM     44  C   UNL     1      47.113  16.042  20.414  0.00  0.00    +0.008 A 
ENDROOT
BRANCH   3   2
ATOM      1  C   UNL     1      44.855  17.333  22.505  0.00  0.00    +0.257 C 
ATOM      2  O   UNL     1      45.867  16.328  22.422  0.00  0.00    -0.291 OA
ENDBRANCH   3   2
BRANCH  32  33
ATOM     33  O   UNL     1      50.913  10.284  14.133  0.00  0.00    -0.484 OA
ATOM     34  H   UNL     1      51.251   9.407  14.358  0.00  0.00    +0.398 HD
ENDBRANCH  32  33
BRANCH  44  45
ATOM     45  O   UNL     1      48.056  16.889  20.905  0.00  0.00    -0.298 OA
ATOM     46  C   UNL     1      48.971  16.357  21.866  0.00  0.00    +0.228 C 
ENDBRANCH  44  45
TORSDOF 3
ENDMDL
MODEL 5
REMARK VINA RESULT:      -6.5      2.316      6.389
REMARK  Name = ZINC95486198
REMARK  5 active torsions:
REMARK  status: ('A' for Active; 'I' for Inactive)
REMARK    1  A    between atoms: C1_1  and  O1_2
REMARK    2  A    between atoms: O1_2  and  C2_3
REMARK    3  A    between atoms: C7_8  and  O2_9
REMARK    4  A    between atoms: O2_9  and  C8_10
REMARK    5  A    between atoms: C28_34  and  O6_35
REMARK                            x       y       z     vdW  Elec       q    Type
REMARK                         _______ _______ _______ _____ _____    ______ ____
ROOT
ATOM      3  C   UNL     1      49.381  12.125  15.708  0.00  0.00    +0.175 A 
ATOM      4  C   UNL     1      48.032  11.848  15.850  0.00  0.00    -0.072 A 
ATOM      5  C   UNL     1      47.302  12.438  16.871  0.00  0.00    -0.002 A 
ATOM      6  C   UNL     1      47.950  13.269  17.755  0.00  0.00    -0.195 A 
ATOM      7  C   UNL     1      49.323  13.467  17.700  0.00  0.00    +0.154 A 
ATOM      8  O   UNL     1      49.946  14.050  18.744  0.00  0.00    -0.139 OA
ATOM      9  O   UNL     1      51.298  14.543  18.628  0.00  0.00    -0.078 OA
ATOM     10  C   UNL     1      52.344  13.722  18.844  0.00  0.00    +0.074 A 
ATOM     11  C   UNL     1      52.269  12.368  18.558  0.00  0.00    -0.005 A 
ATOM     12  C   UNL     1      53.389  11.566  18.661  0.00  0.00    +0.040 A 
ATOM     13  C   UNL     1      54.588  12.112  19.074  0.00  0.00    +0.012 A 
ATOM     14  C   UNL     1      54.644  13.441  19.454  0.00  0.00    -0.042 A 
ATOM     15  C   UNL     1      55.972  14.014  19.885  0.00  0.00    +0.097 C 
ATOM     16  C   UNL     1      55.864  15.539  19.952  0.00  0.00    +0.153 C 
ATOM     17  N   UNL     1      54.706  15.831  20.849  0.00  0.00    -0.602 NA
ATOM     18  H   UNL     1      54.722  16.896  20.886  0.00  0.00    +0.324 HD
ATOM     19  C   UNL     1      53.469  15.576  20.075  0.00  0.00    +0.189 C 
ATOM     20  C   UNL     1      53.220  16.711  19.094  0.00  0.00    +0.072 C 
ATOM     21  C   UNL     1      51.939  17.413  19.475  0.00  0.00    -0.059 A 
ATOM     22  C   UNL     1      51.540  17.453  20.800  0.00  0.00    +0.031 A 
ATOM     23  C   UNL     1      50.345  18.050  21.153  0.00  0.00    +0.026 A 
ATOM     24  C   UNL     1      49.551  18.628  20.175  0.00  0.00    +0.065 A 
ATOM     25  O   UNL     1      48.332  19.143  20.505  0.00  0.00    -0.239 OA
ATOM     26  C   UNL     1      47.271  18.330  20.214  0.00  0.00    +0.102 A 
ATOM     27  C   UNL     1      47.473  17.238  19.385  0.00  0.00    -0.023 A 
ATOM     28  C   UNL     1      46.410  16.416  19.051  0.00  0.00    -0.094 A 
ATOM     29  C   UNL     1      46.625  15.288  18.084  0.00  0.00    +0.115 C 
ATOM     30  C   UNL     1      45.153  16.660  19.575  0.00  0.00    -0.010 A 
ATOM     31  C   UNL     1      44.954  17.740  20.416  0.00  0.00    +0.040 A 
ATOM     32  C   UNL     1      46.010  18.582  20.733  0.00  0.00    +0.103 A 
ATOM     35  C   UNL     1      49.982  18.648  18.855  0.00  0.00    +0.003 A 
ATOM     36  C   UNL     1      51.171  18.032  18.507  0.00  0.00    +0.026 A 
ATOM     37  C   UNL     1      53.515  14.231  19.417  0.00  0.00    -0.081 A 
ATOM     38  C   UNL     1      47.144  14.027  18.779  0.00  0.00    +0.253 C 
ATOM     39  N   UNL     1      45.994  13.227  19.232  0.00  0.00    -0.501 N 
ATOM     40  H   UNL     1      45.467  13.751  19.926  0.00  0.00    +0.437 HD
ATOM     41  H   UNL     1      46.321  12.370  19.671  0.00  0.00    +0.435 HD
ATOM     42  C   UNL     1      45.128  12.904  18.101  0.00  0.00    +0.265 C 
ATOM     43  C   UNL     1      45.841  12.130  17.009  0.00  0.00    +0.134 C 
ATOM     44  C   UNL     1      50.036  12.959  16.610  0.00  0.00    +0.008 A 
ENDROOT
BRANCH   3   2
ATOM      1  C   UNL     1      50.633  10.277  14.883  0.00  0.00    +0.257 C 
ATOM      2  O   UNL     1      50.077  11.576  14.674  0.00  0.00    -0.291 OA
ENDBRANCH   3   2
BRANCH  32  33
ATOM     33  O   UNL     1      45.807  19.652  21.547  0.00  0.00    -0.484 OA
ATOM     34  H   UNL     1      46.622  20.077  21.848  0.00  0.00    +0.398 HD
ENDBRANCH  32  33
BRANCH  44  45
ATOM     45  O   UNL     1      51.329  13.303  16.365  0.00  0.00    -0.298 OA
ATOM     46  C   UNL     1      51.567  14.206  15.283  0.00  0.00    +0.228 C 
ENDBRANCH  44  45
TORSDOF 3
ENDMDL
MODEL 6
REMARK VINA RESULT:      -6.1      2.783      6.837
REMARK  Name = ZINC95486198
REMARK  5 active torsions:
REMARK  status: ('A' for Active; 'I' for Inactive)
REMARK    1  A    between atoms: C1_1  and  O1_2
REMARK    2  A    between atoms: O1_2  and  C2_3
REMARK    3  A    between atoms: C7_8  and  O2_9
REMARK    4  A    between atoms: O2_9  and  C8_10
REMARK    5  A    between atoms: C28_34  and  O6_35
REMARK                            x       y       z     vdW  Elec       q    Type
REMARK                         _______ _______ _______ _____ _____    ______ ____
ROOT
ATOM      3  C   UNL     1      52.042  19.849  20.884  0.00  0.00    +0.175 A 
ATOM      4  C   UNL     1      52.912  18.909  21.411  0.00  0.00    -0.072 A 
ATOM      5  C   UNL     1      52.499  17.597  21.587  0.00  0.00    -0.002 A 
ATOM      6  C   UNL     1      51.205  17.259  21.263  0.00  0.00    -0.195 A 
ATOM      7  C   UNL     1      50.285  18.210  20.845  0.00  0.00    +0.154 A 
ATOM      8  O   UNL     1      48.976  17.891  20.816  0.00  0.00    -0.139 OA
ATOM      9  O   UNL     1      48.018  18.719  20.124  0.00  0.00    -0.078 OA
ATOM     10  C   UNL     1      47.444  19.767  20.748  0.00  0.00    +0.074 A 
ATOM     11  C   UNL     1      48.116  20.477  21.731  0.00  0.00    -0.005 A 
ATOM     12  C   UNL     1      47.566  21.624  22.267  0.00  0.00    +0.040 A 
ATOM     13  C   UNL     1      46.327  22.057  21.838  0.00  0.00    +0.012 A 
ATOM     14  C   UNL     1      45.611  21.299  20.929  0.00  0.00    -0.042 A 
ATOM     15  C   UNL     1      44.267  21.805  20.466  0.00  0.00    +0.097 C 
ATOM     16  C   UNL     1      43.812  20.988  19.255  0.00  0.00    +0.153 C 
ATOM     17  N   UNL     1      43.857  19.558  19.682  0.00  0.00    -0.602 NA
ATOM     18  H   UNL     1      43.487  19.060  18.815  0.00  0.00    +0.324 HD
ATOM     19  C   UNL     1      45.279  19.140  19.683  0.00  0.00    +0.189 C 
ATOM     20  C   UNL     1      45.760  18.912  18.259  0.00  0.00    +0.072 C 
ATOM     21  C   UNL     1      46.113  17.454  18.090  0.00  0.00    -0.059 A 
ATOM     22  C   UNL     1      45.448  16.492  18.830  0.00  0.00    +0.031 A 
ATOM     23  C   UNL     1      45.796  15.159  18.719  0.00  0.00    +0.026 A 
ATOM     24  C   UNL     1      46.808  14.784  17.848  0.00  0.00    +0.065 A 
ATOM     25  O   UNL     1      47.213  13.483  17.797  0.00  0.00    -0.239 OA
ATOM     26  C   UNL     1      48.362  13.217  18.490  0.00  0.00    +0.102 A 
ATOM     27  C   UNL     1      49.145  14.276  18.920  0.00  0.00    -0.023 A 
ATOM     28  C   UNL     1      50.328  14.033  19.598  0.00  0.00    -0.094 A 
ATOM     29  C   UNL     1      51.209  15.186  19.982  0.00  0.00    +0.115 C 
ATOM     30  C   UNL     1      50.711  12.734  19.882  0.00  0.00    -0.010 A 
ATOM     31  C   UNL     1      49.922  11.676  19.468  0.00  0.00    +0.040 A 
ATOM     32  C   UNL     1      48.749  11.913  18.765  0.00  0.00    +0.103 A 
ATOM     35  C   UNL     1      47.429  15.740  17.056  0.00  0.00    +0.003 A 
ATOM     36  C   UNL     1      47.087  17.074  17.186  0.00  0.00    +0.026 A 
ATOM     37  C   UNL     1      46.124  20.117  20.439  0.00  0.00    -0.081 A 
ATOM     38  C   UNL     1      50.788  15.812  21.314  0.00  0.00    +0.253 C 
ATOM     39  N   UNL     1      51.478  15.109  22.408  0.00  0.00    -0.501 N 
ATOM     40  H   UNL     1      51.179  14.137  22.431  0.00  0.00    +0.437 HD
ATOM     41  H   UNL     1      51.231  15.532  23.300  0.00  0.00    +0.435 HD
ATOM     42  C   UNL     1      52.924  15.171  22.214  0.00  0.00    +0.265 C 
ATOM     43  C   UNL     1      53.455  16.591  22.156  0.00  0.00    +0.134 C 
ATOM     44  C   UNL     1      50.731  19.506  20.567  0.00  0.00    +0.008 A 
ENDROOT
BRANCH   3   2
ATOM      1  C   UNL     1      52.465  22.006  21.798  0.00  0.00    +0.257 C 
ATOM      2  O   UNL     1      52.473  21.123  20.674  0.00  0.00    -0.291 OA
ENDBRANCH   3   2
BRANCH  32  33
ATOM     33  O   UNL     1      47.984  10.870  18.346  0.00  0.00    -0.484 OA
ATOM     34  H   UNL     1      48.391  10.340  17.648  0.00  0.00    +0.398 HD
ENDBRANCH  32  33
BRANCH  44  45
ATOM     45  O   UNL     1      49.947  20.423  19.939  0.00  0.00    -0.298 OA
ATOM     46  C   UNL     1      50.241  20.698  18.567  0.00  0.00    +0.228 C 
ENDBRANCH  44  45
TORSDOF 3
ENDMDL
MODEL 7
REMARK VINA RESULT:      -5.8      2.591      6.308
REMARK  Name = ZINC95486198
REMARK  5 active torsions:
REMARK  status: ('A' for Active; 'I' for Inactive)
REMARK    1  A    between atoms: C1_1  and  O1_2
REMARK    2  A    between atoms: O1_2  and  C2_3
REMARK    3  A    between atoms: C7_8  and  O2_9
REMARK    4  A    between atoms: O2_9  and  C8_10
REMARK    5  A    between atoms: C28_34  and  O6_35
REMARK                            x       y       z     vdW  Elec       q    Type
REMARK                         _______ _______ _______ _____ _____    ______ ____
ROOT
ATOM      3  C   UNL     1      48.274  12.770  17.224  0.00  0.00    +0.175 A 
ATOM      4  C   UNL     1      46.985  12.977  17.687  0.00  0.00    -0.072 A 
ATOM      5  C   UNL     1      46.754  13.850  18.740  0.00  0.00    -0.002 A 
ATOM      6  C   UNL     1      47.828  14.472  19.334  0.00  0.00    -0.195 A 
ATOM      7  C   UNL     1      49.135  14.188  18.962  0.00  0.00    +0.154 A 
ATOM      8  O   UNL     1      50.147  14.597  19.752  0.00  0.00    -0.139 OA
ATOM      9  O   UNL     1      51.512  14.593  19.282  0.00  0.00    -0.078 OA
ATOM     10  C   UNL     1      52.268  13.483  19.392  0.00  0.00    +0.074 A 
ATOM     11  C   UNL     1      51.705  12.218  19.333  0.00  0.00    -0.005 A 
ATOM     12  C   UNL     1      52.506  11.093  19.315  0.00  0.00    +0.040 A 
ATOM     13  C   UNL     1      53.879  11.227  19.381  0.00  0.00    +0.012 A 
ATOM     14  C   UNL     1      54.440  12.482  19.538  0.00  0.00    -0.042 A 
ATOM     15  C   UNL     1      55.944  12.599  19.589  0.00  0.00    +0.097 C 
ATOM     16  C   UNL     1      56.338  14.071  19.450  0.00  0.00    +0.153 C 
ATOM     17  N   UNL     1      55.591  14.801  20.518  0.00  0.00    -0.602 NA
ATOM     18  H   UNL     1      55.948  15.797  20.391  0.00  0.00    +0.324 HD
ATOM     19  C   UNL     1      54.185  14.926  20.068  0.00  0.00    +0.189 C 
ATOM     20  C   UNL     1      54.069  16.007  19.005  0.00  0.00    +0.072 C 
ATOM     21  C   UNL     1      53.209  17.127  19.539  0.00  0.00    -0.059 A 
ATOM     22  C   UNL     1      53.184  17.393  20.896  0.00  0.00    +0.031 A 
ATOM     23  C   UNL     1      52.363  18.383  21.401  0.00  0.00    +0.026 A 
ATOM     24  C   UNL     1      51.572  19.126  20.538  0.00  0.00    +0.065 A 
ATOM     25  O   UNL     1      50.699  20.046  21.038  0.00  0.00    -0.239 OA
ATOM     26  C   UNL     1      49.399  19.623  21.100  0.00  0.00    +0.102 A 
ATOM     27  C   UNL     1      49.037  18.472  20.420  0.00  0.00    -0.023 A 
ATOM     28  C   UNL     1      47.722  18.037  20.443  0.00  0.00    -0.094 A 
ATOM     29  C   UNL     1      47.326  16.838  19.631  0.00  0.00    +0.115 C 
ATOM     30  C   UNL     1      46.776  18.729  21.178  0.00  0.00    -0.010 A 
ATOM     31  C   UNL     1      47.140  19.869  21.872  0.00  0.00    +0.040 A 
ATOM     32  C   UNL     1      48.450  20.323  21.830  0.00  0.00    +0.103 A 
ATOM     35  C   UNL     1      51.647  18.906  19.169  0.00  0.00    +0.003 A 
ATOM     36  C   UNL     1      52.457  17.900  18.673  0.00  0.00    +0.026 A 
ATOM     37  C   UNL     1      53.644  13.604  19.623  0.00  0.00    -0.081 A 
ATOM     38  C   UNL     1      47.580  15.528  20.380  0.00  0.00    +0.253 C 
ATOM     39  N   UNL     1      46.388  15.199  21.180  0.00  0.00    -0.501 N 
ATOM     40  H   UNL     1      46.241  15.918  21.883  0.00  0.00    +0.437 HD
ATOM     41  H   UNL     1      46.529  14.315  21.662  0.00  0.00    +0.435 HD
ATOM     42  C   UNL     1      45.212  15.111  20.317  0.00  0.00    +0.265 C 
ATOM     43  C   UNL     1      45.353  14.066  19.227  0.00  0.00    +0.134 C 
ATOM     44  C   UNL     1      49.359  13.393  17.834  0.00  0.00    +0.008 A 
ENDROOT
BRANCH   3   2
ATOM      1  C   UNL     1      47.809  12.273  14.943  0.00  0.00    +0.257 C 
ATOM      2  O   UNL     1      48.483  11.946  16.160  0.00  0.00    -0.291 OA
ENDBRANCH   3   2
BRANCH  32  33
ATOM     33  O   UNL     1      48.802  21.453  22.501  0.00  0.00    -0.484 OA
ATOM     34  H   UNL     1      49.170  22.147  21.937  0.00  0.00    +0.398 HD
ENDBRANCH  32  33
BRANCH  44  45
ATOM     45  O   UNL     1      50.591  13.260  17.274  0.00  0.00    -0.298 OA
ATOM     46  C   UNL     1      50.871  14.060  16.123  0.00  0.00    +0.228 C 
ENDBRANCH  44  45
TORSDOF 3
ENDMDL
MODEL 8
REMARK VINA RESULT:      -5.8      2.696      8.151
REMARK  Name = ZINC95486198
REMARK  5 active torsions:
REMARK  status: ('A' for Active; 'I' for Inactive)
REMARK    1  A    between atoms: C1_1  and  O1_2
REMARK    2  A    between atoms: O1_2  and  C2_3
REMARK    3  A    between atoms: C7_8  and  O2_9
REMARK    4  A    between atoms: O2_9  and  C8_10
REMARK    5  A    between atoms: C28_34  and  O6_35
REMARK                            x       y       z     vdW  Elec       q    Type
REMARK                         _______ _______ _______ _____ _____    ______ ____
ROOT
ATOM      3  C   UNL     1      47.437  12.306  17.896  0.00  0.00    +0.175 A 
ATOM      4  C   UNL     1      48.168  11.313  17.266  0.00  0.00    -0.072 A 
ATOM      5  C   UNL     1      49.543  11.437  17.132  0.00  0.00    -0.002 A 
ATOM      6  C   UNL     1      50.155  12.575  17.603  0.00  0.00    -0.195 A 
ATOM      7  C   UNL     1      49.427  13.632  18.132  0.00  0.00    +0.154 A 
ATOM      8  O   UNL     1      50.031  14.823  18.312  0.00  0.00    -0.139 OA
ATOM      9  O   UNL     1      49.424  15.857  19.117  0.00  0.00    -0.078 OA
ATOM     10  C   UNL     1      48.546  16.719  18.570  0.00  0.00    +0.074 A 
ATOM     11  C   UNL     1      47.724  16.343  17.519  0.00  0.00    -0.005 A 
ATOM     12  C   UNL     1      46.741  17.195  17.057  0.00  0.00    +0.040 A 
ATOM     13  C   UNL     1      46.589  18.442  17.631  0.00  0.00    +0.012 A 
ATOM     14  C   UNL     1      47.469  18.860  18.613  0.00  0.00    -0.042 A 
ATOM     15  C   UNL     1      47.267  20.220  19.233  0.00  0.00    +0.097 C 
ATOM     16  C   UNL     1      48.140  20.336  20.485  0.00  0.00    +0.153 C 
ATOM     17  N   UNL     1      49.532  20.019  20.048  0.00  0.00    -0.602 NA
ATOM     18  H   UNL     1      50.082  20.166  20.949  0.00  0.00    +0.324 HD
ATOM     19  C   UNL     1      49.620  18.550  19.878  0.00  0.00    +0.189 C 
ATOM     20  C   UNL     1      49.704  17.869  21.234  0.00  0.00    +0.072 C 
ATOM     21  C   UNL     1      51.042  17.180  21.352  0.00  0.00    -0.059 A 
ATOM     22  C   UNL     1      52.144  17.691  20.691  0.00  0.00    +0.031 A 
ATOM     23  C   UNL     1      53.362  17.041  20.752  0.00  0.00    +0.026 A 
ATOM     24  C   UNL     1      53.482  15.877  21.497  0.00  0.00    +0.065 A 
ATOM     25  O   UNL     1      54.658  15.186  21.493  0.00  0.00    -0.239 OA
ATOM     26  C   UNL     1      54.674  14.094  20.668  0.00  0.00    +0.102 A 
ATOM     27  C   UNL     1      53.475  13.626  20.155  0.00  0.00    -0.023 A 
ATOM     28  C   UNL     1      53.460  12.504  19.342  0.00  0.00    -0.094 A 
ATOM     29  C   UNL     1      52.147  11.956  18.864  0.00  0.00    +0.115 C 
ATOM     30  C   UNL     1      54.646  11.874  19.008  0.00  0.00    -0.010 A 
ATOM     31  C   UNL     1      55.845  12.351  19.506  0.00  0.00    +0.040 A 
ATOM     32  C   UNL     1      55.863  13.458  20.342  0.00  0.00    +0.103 A 
ATOM     35  C   UNL     1      52.395  15.400  22.215  0.00  0.00    +0.003 A 
ATOM     36  C   UNL     1      51.175  16.047  22.134  0.00  0.00    +0.026 A 
ATOM     37  C   UNL     1      48.495  18.039  19.033  0.00  0.00    -0.081 A 
ATOM     38  C   UNL     1      51.660  12.658  17.594  0.00  0.00    +0.253 C 
ATOM     39  N   UNL     1      52.213  11.959  16.422  0.00  0.00    -0.501 N 
ATOM     40  H   UNL     1      53.227  12.031  16.430  0.00  0.00    +0.437 HD
ATOM     41  H   UNL     1      51.875  12.396  15.569  0.00  0.00    +0.435 HD
ATOM     42  C   UNL     1      51.824  10.551  16.446  0.00  0.00    +0.265 C 
ATOM     43  C   UNL     1      50.320  10.352  16.449  0.00  0.00    +0.134 C 
ATOM     44  C   UNL     1      48.058  13.460  18.363  0.00  0.00    +0.008 A 
ENDROOT
BRANCH   3   2
ATOM      1  C   UNL     1      45.290  12.151  16.880  0.00  0.00    +0.257 C 
ATOM      2  O   UNL     1      46.094  12.151  18.062  0.00  0.00    -0.291 OA
ENDBRANCH   3   2
BRANCH  32  33
ATOM     33  O   UNL     1      57.042  13.915  20.843  0.00  0.00    -0.484 OA
ATOM     34  H   UNL     1      57.093  13.894  21.808  0.00  0.00    +0.398 HD
ENDBRANCH  32  33
BRANCH  44  45
ATOM     45  O   UNL     1      47.328  14.353  19.084  0.00  0.00    -0.298 OA
ATOM     46  C   UNL     1      47.015  13.997  20.432  0.00  0.00    +0.228 C 
ENDBRANCH  44  45
TORSDOF 3
ENDMDL
MODEL 9
REMARK VINA RESULT:      -5.7      2.170      3.577
REMARK  Name = ZINC95486198
REMARK  5 active torsions:
REMARK  status: ('A' for Active; 'I' for Inactive)
REMARK    1  A    between atoms: C1_1  and  O1_2
REMARK    2  A    between atoms: O1_2  and  C2_3
REMARK    3  A    between atoms: C7_8  and  O2_9
REMARK    4  A    between atoms: O2_9  and  C8_10
REMARK    5  A    between atoms: C28_34  and  O6_35
REMARK                            x       y       z     vdW  Elec       q    Type
REMARK                         _______ _______ _______ _____ _____    ______ ____
ROOT
ATOM      3  C   UNL     1      51.311  20.019  21.139  0.00  0.00    +0.175 A 
ATOM      4  C   UNL     1      50.618  21.151  21.532  0.00  0.00    -0.072 A 
ATOM      5  C   UNL     1      49.238  21.205  21.403  0.00  0.00    -0.002 A 
ATOM      6  C   UNL     1      48.582  20.132  20.847  0.00  0.00    -0.195 A 
ATOM      7  C   UNL     1      49.269  19.038  20.340  0.00  0.00    +0.154 A 
ATOM      8  O   UNL     1      48.616  18.156  19.557  0.00  0.00    -0.139 OA
ATOM      9  O   UNL     1      49.185  16.865  19.248  0.00  0.00    -0.078 OA
ATOM     10  C   UNL     1      50.022  16.722  18.202  0.00  0.00    +0.074 A 
ATOM     11  C   UNL     1      50.851  17.755  17.795  0.00  0.00    -0.005 A 
ATOM     12  C   UNL     1      51.794  17.550  16.807  0.00  0.00    +0.040 A 
ATOM     13  C   UNL     1      51.898  16.313  16.203  0.00  0.00    +0.012 A 
ATOM     14  C   UNL     1      51.008  15.308  16.537  0.00  0.00    -0.042 A 
ATOM     15  C   UNL     1      51.156  13.961  15.873  0.00  0.00    +0.097 C 
ATOM     16  C   UNL     1      50.289  12.939  16.611  0.00  0.00    +0.153 C 
ATOM     17  N   UNL     1      48.908  13.507  16.630  0.00  0.00    -0.602 NA
ATOM     18  H   UNL     1      48.359  12.729  17.109  0.00  0.00    +0.324 HD
ATOM     19  C   UNL     1      48.881  14.572  17.659  0.00  0.00    +0.189 C 
ATOM     20  C   UNL     1      48.836  13.958  19.049  0.00  0.00    +0.072 C 
ATOM     21  C   UNL     1      47.529  14.332  19.706  0.00  0.00    -0.059 A 
ATOM     22  C   UNL     1      46.401  14.542  18.932  0.00  0.00    +0.031 A 
ATOM     23  C   UNL     1      45.213  14.933  19.519  0.00  0.00    +0.026 A 
ATOM     24  C   UNL     1      45.147  15.099  20.894  0.00  0.00    +0.065 A 
ATOM     25  O   UNL     1      44.002  15.566  21.469  0.00  0.00    -0.239 OA
ATOM     26  C   UNL     1      44.026  16.895  21.789  0.00  0.00    +0.102 A 
ATOM     27  C   UNL     1      45.239  17.563  21.780  0.00  0.00    -0.023 A 
ATOM     28  C   UNL     1      45.296  18.903  22.129  0.00  0.00    -0.094 A 
ATOM     29  C   UNL     1      46.627  19.593  22.199  0.00  0.00    +0.115 C 
ATOM     30  C   UNL     1      44.135  19.586  22.447  0.00  0.00    -0.010 A 
ATOM     31  C   UNL     1      42.921  18.924  22.439  0.00  0.00    +0.040 A 
ATOM     32  C   UNL     1      42.863  17.576  22.117  0.00  0.00    +0.103 A 
ATOM     35  C   UNL     1      46.259  14.823  21.678  0.00  0.00    +0.003 A 
ATOM     36  C   UNL     1      47.450  14.450  21.081  0.00  0.00    +0.026 A 
ATOM     37  C   UNL     1      50.021  15.525  17.475  0.00  0.00    -0.081 A 
ATOM     38  C   UNL     1      47.075  20.118  20.833  0.00  0.00    +0.253 C 
ATOM     39  N   UNL     1      46.543  21.479  20.650  0.00  0.00    -0.501 N 
ATOM     40  H   UNL     1      45.527  21.448  20.636  0.00  0.00    +0.437 HD
ATOM     41  H   UNL     1      46.856  21.854  19.758  0.00  0.00    +0.435 HD
ATOM     42  C   UNL     1      46.992  22.345  21.737  0.00  0.00    +0.265 C 
ATOM     43  C   UNL     1      48.503  22.438  21.837  0.00  0.00    +0.134 C 
ATOM     44  C   UNL     1      50.645  18.939  20.568  0.00  0.00    +0.008 A 
ENDROOT
BRANCH   3   2
ATOM      1  C   UNL     1      53.188  20.548  22.505  0.00  0.00    +0.257 C 
ATOM      2  O   UNL     1      52.661  19.960  21.314  0.00  0.00    -0.291 OA
ENDBRANCH   3   2
BRANCH  32  33
ATOM     33  O   UNL     1      41.669  16.924  22.126  0.00  0.00    -0.484 OA
ATOM     34  H   UNL     1      40.998  17.325  21.558  0.00  0.00    +0.398 HD
ENDBRANCH  32  33
BRANCH  44  45
ATOM     45  O   UNL     1      51.343  17.800  20.309  0.00  0.00    -0.298 OA
ATOM     46  C   UNL     1      51.588  16.925  21.412  0.00  0.00    +0.228 C 
ENDBRANCH  44  45
TORSDOF 3
ENDMDL
