MODEL 1
REMARK VINA RESULT:      -7.0      0.000      0.000
REMARK  Name = ZINC35570685
REMARK  11 active torsions:
REMARK  status: ('A' for Active; 'I' for Inactive)
REMARK    1  A    between atoms: C1_1  and  C2_2
REMARK    2  A    between atoms: C6_7  and  C30_40
REMARK    3  A    between atoms: C11_13  and  C23_28
REMARK    4  A    between atoms: C14_16  and  C22_25
REMARK    5  A    between atoms: C17_20  and  C20_23
REMARK    6  A    between atoms: C17_20  and  C21_24
REMARK    7  A    between atoms: C25_30  and  O5_39
REMARK    8  A    between atoms: C26_32  and  O4_38
REMARK    9  A    between atoms: C27_34  and  C28_35
REMARK   10  A    between atoms: C27_34  and  C29_36
REMARK   11  A    between atoms: C29_36  and  O3_37
REMARK                            x       y       z     vdW  Elec       q    Type
REMARK                         _______ _______ _______ _____ _____    ______ ____
ROOT
ATOM      1  C   UNL     1      47.241  19.574  21.712  0.00  0.00    +0.008 C 
ATOM      2  C   UNL     1      48.129  19.191  20.487  0.00  0.00    -0.024 C 
ATOM      3  C   UNL     1      48.080  20.413  19.573  0.00  0.00    +0.014 C 
ATOM      4  C   UNL     1      49.190  20.503  18.553  0.00  0.00    -0.001 C 
ATOM      5  C   UNL     1      50.590  20.220  19.083  0.00  0.00    +0.019 C 
ATOM      6  C   UNL     1      50.685  19.072  20.056  0.00  0.00    -0.017 C 
ATOM      7  C   UNL     1      51.937  19.334  20.952  0.00  0.00    +0.011 C 
ATOM      8  C   UNL     1      50.865  17.691  19.450  0.00  0.00    +0.062 C 
ATOM      9  C   UNL     1      51.773  17.629  18.239  0.00  0.00    +0.125 C 
ATOM     12  C   UNL     1      51.483  18.742  17.248  0.00  0.00    +0.147 C 
ATOM     15  C   UNL     1      51.551  20.118  17.898  0.00  0.00    -0.028 C 
ATOM     19  C   UNL     1      52.986  20.468  18.293  0.00  0.00    +0.044 C 
ATOM     20  C   UNL     1      47.526  17.954  19.862  0.00  0.00    +0.011 C 
ATOM     21  C   UNL     1      47.742  18.001  18.346  0.00  0.00    +0.013 C 
ATOM     22  C   UNL     1      45.999  17.893  20.030  0.00  0.00    +0.018 C 
ATOM     23  C   UNL     1      45.457  16.657  19.301  0.00  0.00    +0.007 C 
ATOM     24  C   UNL     1      46.011  15.366  19.889  0.00  0.00    -0.110 C 
ATOM     28  C   UNL     1      47.527  15.332  19.910  0.00  0.00    +0.057 C 
ATOM     29  C   UNL     1      48.194  14.911  18.621  0.00  0.00    +0.007 C 
ATOM     30  C   UNL     1      47.564  13.656  18.014  0.00  0.00    -0.063 C 
ATOM     31  C   UNL     1      48.205  13.400  16.643  0.00  0.00    +0.008 C 
ATOM     32  C   UNL     1      47.813  12.449  18.912  0.00  0.00    +0.019 C 
ATOM     33  C   UNL     1      46.067  13.901  17.826  0.00  0.00    +0.002 C 
ATOM     34  C   UNL     1      45.400  14.168  19.165  0.00  0.00    +0.018 C 
ATOM     35  C   UNL     1      48.073  16.662  20.399  0.00  0.00    -0.064 C 
ATOM     36  C   UNL     1      48.992  16.608  21.317  0.00  0.00    -0.062 C 
ATOM     37  C   UNL     1      49.617  17.808  21.957  0.00  0.00    +0.049 C 
ATOM     38  C   UNL     1      49.524  19.031  21.051  0.00  0.00    -0.001 C 
ENDROOT
BRANCH  24  25
ATOM     25  C   UNL     1      45.529  15.273  21.334  0.00  0.00    +0.502 C 
ATOM     26  O   UNL     1      44.471  15.784  21.657  0.00  0.00    -0.686 OA
ATOM     27  O   UNL     1      46.202  14.686  22.165  0.00  0.00    -0.705 OA
ENDBRANCH  24  25
BRANCH   9  10
ATOM     10  O   UNL     1      53.144  17.602  18.622  0.00  0.00    -0.552 OA
ATOM     11  H   UNL     1      53.517  16.712  18.686  0.00  0.00    +0.373 HD
ENDBRANCH   9  10
BRANCH  12  13
ATOM     13  O   UNL     1      52.425  18.682  16.169  0.00  0.00    -0.540 OA
ATOM     14  H   UNL     1      52.613  19.539  15.763  0.00  0.00    +0.363 HD
ENDBRANCH  12  13
BRANCH  15  16
ATOM     16  C   UNL     1      51.149  21.157  16.825  0.00  0.00    +0.158 C 
BRANCH  16  17
ATOM     17  O   UNL     1      52.288  21.478  16.024  0.00  0.00    -0.546 OA
ATOM     18  H   UNL     1      52.348  22.412  15.781  0.00  0.00    +0.364 HD
ENDBRANCH  16  17
ENDBRANCH  15  16
TORSDOF 5
ENDMDL
MODEL 2
REMARK VINA RESULT:      -6.7      2.617      6.197
REMARK  Name = ZINC35570685
REMARK  11 active torsions:
REMARK  status: ('A' for Active; 'I' for Inactive)
REMARK    1  A    between atoms: C1_1  and  C2_2
REMARK    2  A    between atoms: C6_7  and  C30_40
REMARK    3  A    between atoms: C11_13  and  C23_28
REMARK    4  A    between atoms: C14_16  and  C22_25
REMARK    5  A    between atoms: C17_20  and  C20_23
REMARK    6  A    between atoms: C17_20  and  C21_24
REMARK    7  A    between atoms: C25_30  and  O5_39
REMARK    8  A    between atoms: C26_32  and  O4_38
REMARK    9  A    between atoms: C27_34  and  C28_35
REMARK   10  A    between atoms: C27_34  and  C29_36
REMARK   11  A    between atoms: C29_36  and  O3_37
REMARK                            x       y       z     vdW  Elec       q    Type
REMARK                         _______ _______ _______ _____ _____    ______ ____
ROOT
ATOM      1  C   UNL     1      47.281  15.309  20.459  0.00  0.00    +0.008 C 
ATOM      2  C   UNL     1      47.022  16.757  19.940  0.00  0.00    -0.024 C 
ATOM      3  C   UNL     1      45.675  16.679  19.225  0.00  0.00    +0.014 C 
ATOM      4  C   UNL     1      44.971  18.000  19.024  0.00  0.00    -0.001 C 
ATOM      5  C   UNL     1      44.939  18.915  20.242  0.00  0.00    +0.019 C 
ATOM      6  C   UNL     1      46.220  18.969  21.037  0.00  0.00    -0.017 C 
ATOM      7  C   UNL     1      45.837  19.364  22.498  0.00  0.00    +0.011 C 
ATOM      8  C   UNL     1      47.257  19.976  20.571  0.00  0.00    +0.062 C 
ATOM      9  C   UNL     1      46.702  21.301  20.091  0.00  0.00    +0.125 C 
ATOM     12  C   UNL     1      45.509  21.124  19.170  0.00  0.00    +0.147 C 
ATOM     15  C   UNL     1      44.411  20.285  19.813  0.00  0.00    -0.028 C 
ATOM     19  C   UNL     1      43.755  21.035  20.972  0.00  0.00    +0.044 C 
ATOM     20  C   UNL     1      48.165  17.120  19.020  0.00  0.00    +0.011 C 
ATOM     21  C   UNL     1      47.643  18.027  17.902  0.00  0.00    +0.013 C 
ATOM     22  C   UNL     1      48.740  15.897  18.285  0.00  0.00    +0.018 C 
ATOM     23  C   UNL     1      49.835  16.357  17.315  0.00  0.00    +0.007 C 
ATOM     24  C   UNL     1      51.000  17.012  18.047  0.00  0.00    -0.110 C 
ATOM     28  C   UNL     1      50.567  18.169  18.926  0.00  0.00    +0.057 C 
ATOM     29  C   UNL     1      50.392  19.498  18.227  0.00  0.00    +0.007 C 
ATOM     30  C   UNL     1      51.565  19.838  17.306  0.00  0.00    -0.063 C 
ATOM     31  C   UNL     1      51.227  21.120  16.533  0.00  0.00    +0.008 C 
ATOM     32  C   UNL     1      52.832  20.069  18.123  0.00  0.00    +0.019 C 
ATOM     33  C   UNL     1      51.755  18.693  16.312  0.00  0.00    +0.002 C 
ATOM     34  C   UNL     1      52.084  17.402  17.044  0.00  0.00    +0.018 C 
ATOM     35  C   UNL     1      49.318  17.794  19.706  0.00  0.00    -0.064 C 
ATOM     36  C   UNL     1      49.333  18.055  20.980  0.00  0.00    -0.062 C 
ATOM     37  C   UNL     1      48.220  17.717  21.923  0.00  0.00    +0.049 C 
ATOM     38  C   UNL     1      46.889  17.602  21.189  0.00  0.00    -0.001 C 
ENDROOT
BRANCH  24  25
ATOM     25  C   UNL     1      51.627  15.957  18.953  0.00  0.00    +0.502 C 
ATOM     26  O   UNL     1      51.610  14.784  18.625  0.00  0.00    -0.686 OA
ATOM     27  O   UNL     1      52.147  16.288  20.006  0.00  0.00    -0.705 OA
ENDBRANCH  24  25
BRANCH   9  10
ATOM     10  O   UNL     1      46.406  22.164  21.185  0.00  0.00    -0.552 OA
ATOM     11  H   UNL     1      46.174  21.699  22.000  0.00  0.00    +0.373 HD
ENDBRANCH   9  10
BRANCH  12  13
ATOM     13  O   UNL     1      44.978  22.407  18.819  0.00  0.00    -0.540 OA
ATOM     14  H   UNL     1      44.797  22.513  17.875  0.00  0.00    +0.363 HD
ENDBRANCH  12  13
BRANCH  15  16
ATOM     16  C   UNL     1      43.298  20.093  18.757  0.00  0.00    +0.158 C 
BRANCH  16  17
ATOM     17  O   UNL     1      42.461  21.251  18.733  0.00  0.00    -0.546 OA
ATOM     18  H   UNL     1      42.890  22.041  18.376  0.00  0.00    +0.364 HD
ENDBRANCH  16  17
ENDBRANCH  15  16
TORSDOF 5
ENDMDL
MODEL 3
REMARK VINA RESULT:      -6.1      2.511      6.649
REMARK  Name = ZINC35570685
REMARK  11 active torsions:
REMARK  status: ('A' for Active; 'I' for Inactive)
REMARK    1  A    between atoms: C1_1  and  C2_2
REMARK    2  A    between atoms: C6_7  and  C30_40
REMARK    3  A    between atoms: C11_13  and  C23_28
REMARK    4  A    between atoms: C14_16  and  C22_25
REMARK    5  A    between atoms: C17_20  and  C20_23
REMARK    6  A    between atoms: C17_20  and  C21_24
REMARK    7  A    between atoms: C25_30  and  O5_39
REMARK    8  A    between atoms: C26_32  and  O4_38
REMARK    9  A    between atoms: C27_34  and  C28_35
REMARK   10  A    between atoms: C27_34  and  C29_36
REMARK   11  A    between atoms: C29_36  and  O3_37
REMARK                            x       y       z     vdW  Elec       q    Type
REMARK                         _______ _______ _______ _____ _____    ______ ____
ROOT
ATOM      1  C   UNL     1      48.721  16.695  22.505  0.00  0.00    +0.008 C 
ATOM      2  C   UNL     1      48.889  16.247  21.020  0.00  0.00    -0.024 C 
ATOM      3  C   UNL     1      49.351  14.794  21.102  0.00  0.00    +0.014 C 
ATOM      4  C   UNL     1      49.158  13.981  19.844  0.00  0.00    -0.001 C 
ATOM      5  C   UNL     1      47.798  14.129  19.173  0.00  0.00    +0.019 C 
ATOM      6  C   UNL     1      47.252  15.535  19.136  0.00  0.00    -0.017 C 
ATOM      7  C   UNL     1      45.697  15.421  19.053  0.00  0.00    +0.011 C 
ATOM      8  C   UNL     1      47.689  16.394  17.962  0.00  0.00    +0.062 C 
ATOM      9  C   UNL     1      47.790  15.672  16.634  0.00  0.00    +0.125 C 
ATOM     12  C   UNL     1      48.498  14.336  16.761  0.00  0.00    +0.147 C 
ATOM     15  C   UNL     1      47.847  13.441  17.808  0.00  0.00    -0.028 C 
ATOM     19  C   UNL     1      46.464  12.978  17.350  0.00  0.00    +0.044 C 
ATOM     20  C   UNL     1      49.909  17.162  20.384  0.00  0.00    +0.011 C 
ATOM     21  C   UNL     1      50.714  16.375  19.346  0.00  0.00    +0.013 C 
ATOM     22  C   UNL     1      50.962  17.660  21.389  0.00  0.00    +0.018 C 
ATOM     23  C   UNL     1      52.003  18.513  20.653  0.00  0.00    +0.007 C 
ATOM     24  C   UNL     1      51.378  19.754  20.028  0.00  0.00    -0.110 C 
ATOM     28  C   UNL     1      50.225  19.427  19.099  0.00  0.00    +0.057 C 
ATOM     29  C   UNL     1      50.605  19.034  17.690  0.00  0.00    +0.007 C 
ATOM     30  C   UNL     1      51.637  19.980  17.073  0.00  0.00    -0.063 C 
ATOM     31  C   UNL     1      52.069  19.415  15.712  0.00  0.00    +0.008 C 
ATOM     32  C   UNL     1      51.032  21.365  16.867  0.00  0.00    +0.019 C 
ATOM     33  C   UNL     1      52.855  20.045  17.994  0.00  0.00    +0.002 C 
ATOM     34  C   UNL     1      52.462  20.593  19.356  0.00  0.00    +0.018 C 
ATOM     35  C   UNL     1      49.322  18.382  19.732  0.00  0.00    -0.064 C 
ATOM     36  C   UNL     1      48.046  18.629  19.707  0.00  0.00    -0.062 C 
ATOM     37  C   UNL     1      47.004  17.746  20.320  0.00  0.00    +0.049 C 
ATOM     38  C   UNL     1      47.495  16.307  20.434  0.00  0.00    -0.001 C 
ENDROOT
BRANCH  24  25
ATOM     25  C   UNL     1      50.825  20.612  21.162  0.00  0.00    +0.502 C 
ATOM     26  O   UNL     1      51.466  20.752  22.189  0.00  0.00    -0.686 OA
ATOM     27  O   UNL     1      49.742  21.160  21.039  0.00  0.00    -0.705 OA
ENDBRANCH  24  25
BRANCH   9  10
ATOM     10  O   UNL     1      46.513  15.541  16.018  0.00  0.00    -0.552 OA
ATOM     11  H   UNL     1      46.549  15.258  15.094  0.00  0.00    +0.373 HD
ENDBRANCH   9  10
BRANCH  12  13
ATOM     13  O   UNL     1      48.489  13.665  15.495  0.00  0.00    -0.540 OA
ATOM     14  H   UNL     1      47.614  13.607  15.086  0.00  0.00    +0.363 HD
ENDBRANCH  12  13
BRANCH  15  16
ATOM     16  C   UNL     1      48.703  12.157  17.916  0.00  0.00    +0.158 C 
BRANCH  16  17
ATOM     17  O   UNL     1      48.234  11.193  16.971  0.00  0.00    -0.546 OA
ATOM     18  H   UNL     1      48.244  10.283  17.299  0.00  0.00    +0.364 HD
ENDBRANCH  16  17
ENDBRANCH  15  16
TORSDOF 5
ENDMDL
MODEL 4
REMARK VINA RESULT:      -6.0      2.613      6.376
REMARK  Name = ZINC35570685
REMARK  11 active torsions:
REMARK  status: ('A' for Active; 'I' for Inactive)
REMARK    1  A    between atoms: C1_1  and  C2_2
REMARK    2  A    between atoms: C6_7  and  C30_40
REMARK    3  A    between atoms: C11_13  and  C23_28
REMARK    4  A    between atoms: C14_16  and  C22_25
REMARK    5  A    between atoms: C17_20  and  C20_23
REMARK    6  A    between atoms: C17_20  and  C21_24
REMARK    7  A    between atoms: C25_30  and  O5_39
REMARK    8  A    between atoms: C26_32  and  O4_38
REMARK    9  A    between atoms: C27_34  and  C28_35
REMARK   10  A    between atoms: C27_34  and  C29_36
REMARK   11  A    between atoms: C29_36  and  O3_37
REMARK                            x       y       z     vdW  Elec       q    Type
REMARK                         _______ _______ _______ _____ _____    ______ ____
ROOT
ATOM      1  C   UNL     1      45.464  15.861  19.642  0.00  0.00    +0.008 C 
ATOM      2  C   UNL     1      46.934  15.471  19.293  0.00  0.00    -0.024 C 
ATOM      3  C   UNL     1      47.248  14.286  20.204  0.00  0.00    +0.014 C 
ATOM      4  C   UNL     1      48.415  13.430  19.774  0.00  0.00    -0.001 C 
ATOM      5  C   UNL     1      48.444  13.060  18.296  0.00  0.00    +0.019 C 
ATOM      6  C   UNL     1      48.061  14.171  17.350  0.00  0.00    -0.017 C 
ATOM      7  C   UNL     1      47.516  13.499  16.050  0.00  0.00    +0.011 C 
ATOM      8  C   UNL     1      49.181  15.103  16.921  0.00  0.00    +0.062 C 
ATOM      9  C   UNL     1      50.520  14.437  16.677  0.00  0.00    +0.125 C 
ATOM     12  C   UNL     1      50.878  13.451  17.774  0.00  0.00    +0.147 C 
ATOM     15  C   UNL     1      49.789  12.405  17.981  0.00  0.00    -0.028 C 
ATOM     19  C   UNL     1      49.700  11.462  16.781  0.00  0.00    +0.044 C 
ATOM     20  C   UNL     1      47.799  16.679  19.566  0.00  0.00    +0.011 C 
ATOM     21  C   UNL     1      49.173  16.213  20.058  0.00  0.00    +0.013 C 
ATOM     22  C   UNL     1      47.255  17.547  20.713  0.00  0.00    +0.018 C 
ATOM     23  C   UNL     1      48.228  18.702  20.982  0.00  0.00    +0.007 C 
ATOM     24  C   UNL     1      48.366  19.617  19.772  0.00  0.00    -0.110 C 
ATOM     28  C   UNL     1      48.778  18.874  18.515  0.00  0.00    +0.057 C 
ATOM     29  C   UNL     1      50.258  18.614  18.359  0.00  0.00    +0.007 C 
ATOM     30  C   UNL     1      51.107  19.855  18.639  0.00  0.00    -0.063 C 
ATOM     31  C   UNL     1      52.589  19.454  18.605  0.00  0.00    +0.008 C 
ATOM     32  C   UNL     1      50.856  20.921  17.578  0.00  0.00    +0.019 C 
ATOM     33  C   UNL     1      50.766  20.378  20.034  0.00  0.00    +0.002 C 
ATOM     34  C   UNL     1      49.301  20.776  20.108  0.00  0.00    +0.018 C 
ATOM     35  C   UNL     1      47.980  17.588  18.384  0.00  0.00    -0.064 C 
ATOM     36  C   UNL     1      47.447  17.355  17.221  0.00  0.00    -0.062 C 
ATOM     37  C   UNL     1      46.588  16.168  16.909  0.00  0.00    +0.049 C 
ATOM     38  C   UNL     1      46.884  15.008  17.853  0.00  0.00    -0.001 C 
ENDROOT
BRANCH  24  25
ATOM     25  C   UNL     1      47.000  20.243  19.508  0.00  0.00    +0.502 C 
ATOM     26  O   UNL     1      46.211  20.392  20.425  0.00  0.00    -0.686 OA
ATOM     27  O   UNL     1      46.697  20.594  18.381  0.00  0.00    -0.705 OA
ENDBRANCH  24  25
BRANCH   9  10
ATOM     10  O   UNL     1      50.570  13.838  15.386  0.00  0.00    -0.552 OA
ATOM     11  H   UNL     1      49.899  14.166  14.773  0.00  0.00    +0.373 HD
ENDBRANCH   9  10
BRANCH  12  13
ATOM     13  O   UNL     1      52.108  12.794  17.446  0.00  0.00    -0.540 OA
ATOM     14  H   UNL     1      52.072  12.276  16.630  0.00  0.00    +0.363 HD
ENDBRANCH  12  13
BRANCH  15  16
ATOM     16  C   UNL     1      50.218  11.521  19.175  0.00  0.00    +0.158 C 
BRANCH  16  17
ATOM     17  O   UNL     1      50.969  10.405  18.695  0.00  0.00    -0.546 OA
ATOM     18  H   UNL     1      51.024   9.669  19.320  0.00  0.00    +0.364 HD
ENDBRANCH  16  17
ENDBRANCH  15  16
TORSDOF 5
ENDMDL
MODEL 5
REMARK VINA RESULT:      -5.9      2.097      3.361
REMARK  Name = ZINC35570685
REMARK  11 active torsions:
REMARK  status: ('A' for Active; 'I' for Inactive)
REMARK    1  A    between atoms: C1_1  and  C2_2
REMARK    2  A    between atoms: C6_7  and  C30_40
REMARK    3  A    between atoms: C11_13  and  C23_28
REMARK    4  A    between atoms: C14_16  and  C22_25
REMARK    5  A    between atoms: C17_20  and  C20_23
REMARK    6  A    between atoms: C17_20  and  C21_24
REMARK    7  A    between atoms: C25_30  and  O5_39
REMARK    8  A    between atoms: C26_32  and  O4_38
REMARK    9  A    between atoms: C27_34  and  C28_35
REMARK   10  A    between atoms: C27_34  and  C29_36
REMARK   11  A    between atoms: C29_36  and  O3_37
REMARK                            x       y       z     vdW  Elec       q    Type
REMARK                         _______ _______ _______ _____ _____    ______ ____
ROOT
ATOM      1  C   UNL     1      46.380  15.999  19.920  0.00  0.00    +0.008 C 
ATOM      2  C   UNL     1      47.696  16.475  19.228  0.00  0.00    -0.024 C 
ATOM      3  C   UNL     1      47.441  17.939  18.875  0.00  0.00    +0.014 C 
ATOM      4  C   UNL     1      48.677  18.766  18.614  0.00  0.00    -0.001 C 
ATOM      5  C   UNL     1      49.805  18.592  19.624  0.00  0.00    +0.019 C 
ATOM      6  C   UNL     1      50.048  17.173  20.073  0.00  0.00    -0.017 C 
ATOM      7  C   UNL     1      50.701  17.246  21.490  0.00  0.00    +0.011 C 
ATOM      8  C   UNL     1      50.981  16.345  19.206  0.00  0.00    +0.062 C 
ATOM      9  C   UNL     1      52.174  17.090  18.644  0.00  0.00    +0.125 C 
ATOM     12  C   UNL     1      51.787  18.444  18.075  0.00  0.00    +0.147 C 
ATOM     15  C   UNL     1      51.051  19.304  19.095  0.00  0.00    -0.028 C 
ATOM     19  C   UNL     1      51.986  19.736  20.224  0.00  0.00    +0.044 C 
ATOM     20  C   UNL     1      47.913  15.599  18.017  0.00  0.00    +0.011 C 
ATOM     21  C   UNL     1      48.575  16.424  16.911  0.00  0.00    +0.013 C 
ATOM     22  C   UNL     1      46.592  15.114  17.396  0.00  0.00    +0.018 C 
ATOM     23  C   UNL     1      46.894  14.301  16.130  0.00  0.00    +0.007 C 
ATOM     24  C   UNL     1      47.712  13.054  16.441  0.00  0.00    -0.110 C 
ATOM     28  C   UNL     1      49.001  13.364  17.178  0.00  0.00    +0.057 C 
ATOM     29  C   UNL     1      50.167  13.790  16.316  0.00  0.00    +0.007 C 
ATOM     30  C   UNL     1      50.362  12.883  15.100  0.00  0.00    -0.063 C 
ATOM     31  C   UNL     1      51.463  13.481  14.213  0.00  0.00    +0.008 C 
ATOM     32  C   UNL     1      50.784  11.485  15.542  0.00  0.00    +0.019 C 
ATOM     33  C   UNL     1      49.056  12.836  14.308  0.00  0.00    +0.002 C 
ATOM     34  C   UNL     1      47.939  12.256  15.159  0.00  0.00    +0.018 C 
ATOM     35  C   UNL     1      48.741  14.374  18.283  0.00  0.00    -0.064 C 
ATOM     36  C   UNL     1      49.239  14.093  19.451  0.00  0.00    -0.062 C 
ATOM     37  C   UNL     1      49.051  14.937  20.673  0.00  0.00    +0.049 C 
ATOM     38  C   UNL     1      48.757  16.387  20.304  0.00  0.00    -0.001 C 
ENDROOT
BRANCH  24  25
ATOM     25  C   UNL     1      46.868  12.163  17.347  0.00  0.00    +0.502 C 
ATOM     26  O   UNL     1      45.652  12.208  17.284  0.00  0.00    -0.686 OA
ATOM     27  O   UNL     1      47.410  11.404  18.133  0.00  0.00    -0.705 OA
ENDBRANCH  24  25
BRANCH   9  10
ATOM     10  O   UNL     1      53.218  17.197  19.606  0.00  0.00    -0.552 OA
ATOM     11  H   UNL     1      54.107  17.175  19.226  0.00  0.00    +0.373 HD
ENDBRANCH   9  10
BRANCH  12  13
ATOM     13  O   UNL     1      52.963  19.134  17.636  0.00  0.00    -0.540 OA
ATOM     14  H   UNL     1      53.220  19.874  18.204  0.00  0.00    +0.363 HD
ENDBRANCH  12  13
BRANCH  15  16
ATOM     16  C   UNL     1      50.628  20.608  18.381  0.00  0.00    +0.158 C 
BRANCH  16  17
ATOM     17  O   UNL     1      51.723  21.527  18.380  0.00  0.00    -0.546 OA
ATOM     18  H   UNL     1      51.479  22.430  18.134  0.00  0.00    +0.364 HD
ENDBRANCH  16  17
ENDBRANCH  15  16
TORSDOF 5
ENDMDL
MODEL 6
REMARK VINA RESULT:      -5.7      2.856      6.282
REMARK  Name = ZINC35570685
REMARK  11 active torsions:
REMARK  status: ('A' for Active; 'I' for Inactive)
REMARK    1  A    between atoms: C1_1  and  C2_2
REMARK    2  A    between atoms: C6_7  and  C30_40
REMARK    3  A    between atoms: C11_13  and  C23_28
REMARK    4  A    between atoms: C14_16  and  C22_25
REMARK    5  A    between atoms: C17_20  and  C20_23
REMARK    6  A    between atoms: C17_20  and  C21_24
REMARK    7  A    between atoms: C25_30  and  O5_39
REMARK    8  A    between atoms: C26_32  and  O4_38
REMARK    9  A    between atoms: C27_34  and  C28_35
REMARK   10  A    between atoms: C27_34  and  C29_36
REMARK   11  A    between atoms: C29_36  and  O3_37
REMARK                            x       y       z     vdW  Elec       q    Type
REMARK                         _______ _______ _______ _____ _____    ______ ____
ROOT
ATOM      1  C   UNL     1      49.814  18.893  19.089  0.00  0.00    +0.008 C 
ATOM      2  C   UNL     1      48.625  17.902  18.893  0.00  0.00    -0.024 C 
ATOM      3  C   UNL     1      48.752  17.423  17.449  0.00  0.00    +0.014 C 
ATOM      4  C   UNL     1      48.024  16.140  17.126  0.00  0.00    -0.001 C 
ATOM      5  C   UNL     1      48.204  15.014  18.138  0.00  0.00    +0.019 C 
ATOM      6  C   UNL     1      48.171  15.442  19.584  0.00  0.00    -0.017 C 
ATOM      7  C   UNL     1      48.989  14.387  20.393  0.00  0.00    +0.011 C 
ATOM      8  C   UNL     1      46.798  15.517  20.229  0.00  0.00    +0.062 C 
ATOM      9  C   UNL     1      45.831  14.423  19.824  0.00  0.00    +0.125 C 
ATOM     12  C   UNL     1      45.833  14.184  18.326  0.00  0.00    +0.147 C 
ATOM     15  C   UNL     1      47.230  13.886  17.795  0.00  0.00    -0.028 C 
ATOM     19  C   UNL     1      47.728  12.530  18.292  0.00  0.00    +0.044 C 
ATOM     20  C   UNL     1      47.350  18.668  19.157  0.00  0.00    +0.011 C 
ATOM     21  C   UNL     1      46.242  18.130  18.248  0.00  0.00    +0.013 C 
ATOM     22  C   UNL     1      47.467  20.155  18.781  0.00  0.00    +0.018 C 
ATOM     23  C   UNL     1      46.114  20.843  19.001  0.00  0.00    +0.007 C 
ATOM     24  C   UNL     1      45.687  20.797  20.462  0.00  0.00    -0.110 C 
ATOM     28  C   UNL     1      45.648  19.387  21.020  0.00  0.00    +0.057 C 
ATOM     29  C   UNL     1      44.391  18.599  20.734  0.00  0.00    +0.007 C 
ATOM     30  C   UNL     1      43.118  19.400  21.013  0.00  0.00    -0.063 C 
ATOM     31  C   UNL     1      41.908  18.576  20.551  0.00  0.00    +0.008 C 
ATOM     32  C   UNL     1      42.985  19.685  22.506  0.00  0.00    +0.019 C 
ATOM     33  C   UNL     1      43.170  20.700  20.210  0.00  0.00    +0.002 C 
ATOM     34  C   UNL     1      44.364  21.539  20.635  0.00  0.00    +0.018 C 
ATOM     35  C   UNL     1      46.885  18.619  20.585  0.00  0.00    -0.064 C 
ATOM     36  C   UNL     1      47.517  17.966  21.515  0.00  0.00    -0.062 C 
ATOM     37  C   UNL     1      48.778  17.192  21.293  0.00  0.00    +0.049 C 
ATOM     38  C   UNL     1      48.912  16.755  19.838  0.00  0.00    -0.001 C 
ENDROOT
BRANCH  24  25
ATOM     25  C   UNL     1      46.717  21.582  21.269  0.00  0.00    +0.502 C 
ATOM     26  O   UNL     1      46.952  22.744  20.989  0.00  0.00    -0.686 OA
ATOM     27  O   UNL     1      47.304  21.046  22.194  0.00  0.00    -0.705 OA
ENDBRANCH  24  25
BRANCH   9  10
ATOM     10  O   UNL     1      46.072  13.224  20.555  0.00  0.00    -0.552 OA
ATOM     11  H   UNL     1      47.008  13.041  20.712  0.00  0.00    +0.373 HD
ENDBRANCH   9  10
BRANCH  12  13
ATOM     13  O   UNL     1      44.966  13.086  18.014  0.00  0.00    -0.540 OA
ATOM     14  H   UNL     1      44.272  13.301  17.375  0.00  0.00    +0.363 HD
ENDBRANCH  12  13
BRANCH  15  16
ATOM     16  C   UNL     1      47.123  13.755  16.258  0.00  0.00    +0.158 C 
BRANCH  16  17
ATOM     17  O   UNL     1      46.580  12.475  15.927  0.00  0.00    -0.546 OA
ATOM     18  H   UNL     1      46.415  12.350  14.983  0.00  0.00    +0.364 HD
ENDBRANCH  16  17
ENDBRANCH  15  16
TORSDOF 5
ENDMDL
MODEL 7
REMARK VINA RESULT:      -5.6      2.452      6.669
REMARK  Name = ZINC35570685
REMARK  11 active torsions:
REMARK  status: ('A' for Active; 'I' for Inactive)
REMARK    1  A    between atoms: C1_1  and  C2_2
REMARK    2  A    between atoms: C6_7  and  C30_40
REMARK    3  A    between atoms: C11_13  and  C23_28
REMARK    4  A    between atoms: C14_16  and  C22_25
REMARK    5  A    between atoms: C17_20  and  C20_23
REMARK    6  A    between atoms: C17_20  and  C21_24
REMARK    7  A    between atoms: C25_30  and  O5_39
REMARK    8  A    between atoms: C26_32  and  O4_38
REMARK    9  A    between atoms: C27_34  and  C28_35
REMARK   10  A    between atoms: C27_34  and  C29_36
REMARK   11  A    between atoms: C29_36  and  O3_37
REMARK                            x       y       z     vdW  Elec       q    Type
REMARK                         _______ _______ _______ _____ _____    ______ ____
ROOT
ATOM      1  C   UNL     1      52.472  15.496  18.761  0.00  0.00    +0.008 C 
ATOM      2  C   UNL     1      51.000  15.277  18.292  0.00  0.00    -0.024 C 
ATOM      3  C   UNL     1      51.122  14.709  16.880  0.00  0.00    +0.014 C 
ATOM      4  C   UNL     1      49.898  13.989  16.364  0.00  0.00    -0.001 C 
ATOM      5  C   UNL     1      49.258  13.009  17.339  0.00  0.00    +0.019 C 
ATOM      6  C   UNL     1      49.185  13.483  18.769  0.00  0.00    -0.017 C 
ATOM      7  C   UNL     1      49.146  12.211  19.672  0.00  0.00    +0.011 C 
ATOM      8  C   UNL     1      47.970  14.317  19.138  0.00  0.00    +0.062 C 
ATOM      9  C   UNL     1      46.667  13.879  18.504  0.00  0.00    +0.125 C 
ATOM     12  C   UNL     1      46.822  13.577  17.024  0.00  0.00    +0.147 C 
ATOM     15  C   UNL     1      47.918  12.550  16.762  0.00  0.00    -0.028 C 
ATOM     19  C   UNL     1      47.512  11.172  17.284  0.00  0.00    +0.044 C 
ATOM     20  C   UNL     1      50.306  16.618  18.339  0.00  0.00    +0.011 C 
ATOM     21  C   UNL     1      49.276  16.691  17.208  0.00  0.00    +0.013 C 
ATOM     22  C   UNL     1      51.265  17.788  18.061  0.00  0.00    +0.018 C 
ATOM     23  C   UNL     1      50.473  19.101  18.045  0.00  0.00    +0.007 C 
ATOM     24  C   UNL     1      49.821  19.384  19.392  0.00  0.00    -0.110 C 
ATOM     28  C   UNL     1      48.933  18.250  19.867  0.00  0.00    +0.057 C 
ATOM     29  C   UNL     1      47.530  18.232  19.306  0.00  0.00    +0.007 C 
ATOM     30  C   UNL     1      46.854  19.603  19.369  0.00  0.00    -0.063 C 
ATOM     31  C   UNL     1      45.503  19.517  18.644  0.00  0.00    +0.008 C 
ATOM     32  C   UNL     1      46.614  20.011  20.819  0.00  0.00    +0.019 C 
ATOM     33  C   UNL     1      47.740  20.620  18.651  0.00  0.00    +0.002 C 
ATOM     34  C   UNL     1      49.092  20.725  19.338  0.00  0.00    +0.018 C 
ATOM     35  C   UNL     1      49.627  16.916  19.645  0.00  0.00    -0.064 C 
ATOM     36  C   UNL     1      49.626  16.091  20.650  0.00  0.00    -0.062 C 
ATOM     37  C   UNL     1      50.296  14.752  20.641  0.00  0.00    +0.049 C 
ATOM     38  C   UNL     1      50.448  14.217  19.222  0.00  0.00    -0.001 C 
ENDROOT
BRANCH  24  25
ATOM     25  C   UNL     1      50.937  19.554  20.418  0.00  0.00    +0.502 C 
ATOM     26  O   UNL     1      52.022  19.987  20.071  0.00  0.00    -0.686 OA
ATOM     27  O   UNL     1      50.743  19.259  21.585  0.00  0.00    -0.705 OA
ENDBRANCH  24  25
BRANCH   9  10
ATOM     10  O   UNL     1      46.089  12.786  19.211  0.00  0.00    -0.552 OA
ATOM     11  H   UNL     1      45.987  11.984  18.681  0.00  0.00    +0.373 HD
ENDBRANCH   9  10
BRANCH  12  13
ATOM     13  O   UNL     1      45.582  13.089  16.500  0.00  0.00    -0.540 OA
ATOM     14  H   UNL     1      45.424  12.150  16.672  0.00  0.00    +0.363 HD
ENDBRANCH  12  13
BRANCH  15  16
ATOM     16  C   UNL     1      48.049  12.395  15.229  0.00  0.00    +0.158 C 
BRANCH  16  17
ATOM     17  O   UNL     1      47.419  13.503  14.584  0.00  0.00    -0.546 OA
ATOM     18  H   UNL     1      48.037  14.113  14.157  0.00  0.00    +0.364 HD
ENDBRANCH  16  17
ENDBRANCH  15  16
TORSDOF 5
ENDMDL
MODEL 8
REMARK VINA RESULT:      -5.5      2.115      5.900
REMARK  Name = ZINC35570685
REMARK  11 active torsions:
REMARK  status: ('A' for Active; 'I' for Inactive)
REMARK    1  A    between atoms: C1_1  and  C2_2
REMARK    2  A    between atoms: C6_7  and  C30_40
REMARK    3  A    between atoms: C11_13  and  C23_28
REMARK    4  A    between atoms: C14_16  and  C22_25
REMARK    5  A    between atoms: C17_20  and  C20_23
REMARK    6  A    between atoms: C17_20  and  C21_24
REMARK    7  A    between atoms: C25_30  and  O5_39
REMARK    8  A    between atoms: C26_32  and  O4_38
REMARK    9  A    between atoms: C27_34  and  C28_35
REMARK   10  A    between atoms: C27_34  and  C29_36
REMARK   11  A    between atoms: C29_36  and  O3_37
REMARK                            x       y       z     vdW  Elec       q    Type
REMARK                         _______ _______ _______ _____ _____    ______ ____
ROOT
ATOM      1  C   UNL     1      50.669  20.777  21.001  0.00  0.00    +0.008 C 
ATOM      2  C   UNL     1      49.333  19.984  20.846  0.00  0.00    -0.024 C 
ATOM      3  C   UNL     1      48.610  20.177  22.178  0.00  0.00    +0.014 C 
ATOM      4  C   UNL     1      47.124  19.910  22.152  0.00  0.00    -0.001 C 
ATOM      5  C   UNL     1      46.370  20.523  20.978  0.00  0.00    +0.019 C 
ATOM      6  C   UNL     1      47.076  20.435  19.648  0.00  0.00    -0.017 C 
ATOM      7  C   UNL     1      46.545  21.611  18.768  0.00  0.00    +0.011 C 
ATOM      8  C   UNL     1      46.852  19.160  18.853  0.00  0.00    +0.062 C 
ATOM      9  C   UNL     1      45.446  18.599  18.912  0.00  0.00    +0.125 C 
ATOM     12  C   UNL     1      44.891  18.590  20.325  0.00  0.00    +0.147 C 
ATOM     15  C   UNL     1      44.945  19.970  20.969  0.00  0.00    -0.028 C 
ATOM     19  C   UNL     1      43.964  20.929  20.294  0.00  0.00    +0.044 C 
ATOM     20  C   UNL     1      49.692  18.543  20.566  0.00  0.00    +0.011 C 
ATOM     21  C   UNL     1      48.641  17.630  21.203  0.00  0.00    +0.013 C 
ATOM     22  C   UNL     1      51.016  18.126  21.230  0.00  0.00    +0.018 C 
ATOM     23  C   UNL     1      51.267  16.636  20.968  0.00  0.00    +0.007 C 
ATOM     24  C   UNL     1      51.414  16.340  19.481  0.00  0.00    -0.110 C 
ATOM     28  C   UNL     1      50.227  16.817  18.666  0.00  0.00    +0.057 C 
ATOM     29  C   UNL     1      49.037  15.886  18.629  0.00  0.00    +0.007 C 
ATOM     30  C   UNL     1      49.432  14.436  18.341  0.00  0.00    -0.063 C 
ATOM     31  C   UNL     1      48.184  13.552  18.474  0.00  0.00    +0.008 C 
ATOM     32  C   UNL     1      49.984  14.307  16.925  0.00  0.00    +0.019 C 
ATOM     33  C   UNL     1      50.467  13.995  19.376  0.00  0.00    +0.002 C 
ATOM     34  C   UNL     1      51.715  14.857  19.279  0.00  0.00    +0.018 C 
ATOM     35  C   UNL     1      49.816  18.211  19.107  0.00  0.00    -0.064 C 
ATOM     36  C   UNL     1      49.624  19.083  18.161  0.00  0.00    -0.062 C 
ATOM     37  C   UNL     1      49.262  20.516  18.397  0.00  0.00    +0.049 C 
ATOM     38  C   UNL     1      48.579  20.700  19.747  0.00  0.00    -0.001 C 
ENDROOT
BRANCH  24  25
ATOM     25  C   UNL     1      52.645  17.090  18.981  0.00  0.00    +0.502 C 
ATOM     26  O   UNL     1      53.712  16.961  19.556  0.00  0.00    -0.686 OA
ATOM     27  O   UNL     1      52.562  17.817  18.006  0.00  0.00    -0.705 OA
ENDBRANCH  24  25
BRANCH   9  10
ATOM     10  O   UNL     1      44.581  19.277  18.005  0.00  0.00    -0.552 OA
ATOM     11  H   UNL     1      45.039  19.858  17.384  0.00  0.00    +0.373 HD
ENDBRANCH   9  10
BRANCH  12  13
ATOM     13  O   UNL     1      43.535  18.130  20.306  0.00  0.00    -0.540 OA
ATOM     14  H   UNL     1      43.236  17.750  21.143  0.00  0.00    +0.363 HD
ENDBRANCH  12  13
BRANCH  15  16
ATOM     16  C   UNL     1      44.447  19.820  22.425  0.00  0.00    +0.158 C 
BRANCH  16  17
ATOM     17  O   UNL     1      43.033  20.026  22.468  0.00  0.00    -0.546 OA
ATOM     18  H   UNL     1      42.514  19.219  22.347  0.00  0.00    +0.364 HD
ENDBRANCH  16  17
ENDBRANCH  15  16
TORSDOF 5
ENDMDL
MODEL 9
REMARK VINA RESULT:      -5.4      2.485      5.507
REMARK  Name = ZINC35570685
REMARK  11 active torsions:
REMARK  status: ('A' for Active; 'I' for Inactive)
REMARK    1  A    between atoms: C1_1  and  C2_2
REMARK    2  A    between atoms: C6_7  and  C30_40
REMARK    3  A    between atoms: C11_13  and  C23_28
REMARK    4  A    between atoms: C14_16  and  C22_25
REMARK    5  A    between atoms: C17_20  and  C20_23
REMARK    6  A    between atoms: C17_20  and  C21_24
REMARK    7  A    between atoms: C25_30  and  O5_39
REMARK    8  A    between atoms: C26_32  and  O4_38
REMARK    9  A    between atoms: C27_34  and  C28_35
REMARK   10  A    between atoms: C27_34  and  C29_36
REMARK   11  A    between atoms: C29_36  and  O3_37
REMARK                            x       y       z     vdW  Elec       q    Type
REMARK                         _______ _______ _______ _____ _____    ______ ____
ROOT
ATOM      1  C   UNL     1      50.681  18.026  20.947  0.00  0.00    +0.008 C 
ATOM      2  C   UNL     1      49.146  17.852  20.727  0.00  0.00    -0.024 C 
ATOM      3  C   UNL     1      48.524  18.116  22.097  0.00  0.00    +0.014 C 
ATOM      4  C   UNL     1      47.054  18.459  22.084  0.00  0.00    -0.001 C 
ATOM      5  C   UNL     1      46.630  19.483  21.038  0.00  0.00    +0.019 C 
ATOM      6  C   UNL     1      47.277  19.321  19.685  0.00  0.00    -0.017 C 
ATOM      7  C   UNL     1      47.272  20.726  19.003  0.00  0.00    +0.011 C 
ATOM      8  C   UNL     1      46.591  18.367  18.723  0.00  0.00    +0.062 C 
ATOM      9  C   UNL     1      45.076  18.400  18.749  0.00  0.00    +0.125 C 
ATOM     12  C   UNL     1      44.528  18.402  20.165  0.00  0.00    +0.147 C 
ATOM     15  C   UNL     1      45.103  19.541  20.999  0.00  0.00    -0.028 C 
ATOM     19  C   UNL     1      44.593  20.894  20.504  0.00  0.00    +0.044 C 
ATOM     20  C   UNL     1      48.917  16.443  20.230  0.00  0.00    +0.011 C 
ATOM     21  C   UNL     1      47.576  15.933  20.765  0.00  0.00    +0.013 C 
ATOM     22  C   UNL     1      49.954  15.449  20.780  0.00  0.00    +0.018 C 
ATOM     23  C   UNL     1      49.607  14.035  20.297  0.00  0.00    +0.007 C 
ATOM     24  C   UNL     1      49.663  13.926  18.779  0.00  0.00    -0.110 C 
ATOM     28  C   UNL     1      48.779  14.943  18.083  0.00  0.00    +0.057 C 
ATOM     29  C   UNL     1      47.320  14.569  17.953  0.00  0.00    +0.007 C 
ATOM     30  C   UNL     1      47.121  13.140  17.446  0.00  0.00    -0.063 C 
ATOM     31  C   UNL     1      45.624  12.806  17.494  0.00  0.00    +0.008 C 
ATOM     32  C   UNL     1      47.614  13.013  16.008  0.00  0.00    +0.019 C 
ATOM     33  C   UNL     1      47.874  12.183  18.370  0.00  0.00    +0.002 C 
ATOM     34  C   UNL     1      49.363  12.490  18.355  0.00  0.00    +0.018 C 
ATOM     35  C   UNL     1      48.937  16.306  18.734  0.00  0.00    -0.064 C 
ATOM     36  C   UNL     1      49.126  17.312  17.931  0.00  0.00    -0.062 C 
ATOM     37  C   UNL     1      49.350  18.721  18.384  0.00  0.00    +0.049 C 
ATOM     38  C   UNL     1      48.761  18.959  19.770  0.00  0.00    -0.001 C 
ENDROOT
BRANCH  24  25
ATOM     25  C   UNL     1      51.102  14.199  18.350  0.00  0.00    +0.502 C 
ATOM     26  O   UNL     1      52.027  13.807  19.039  0.00  0.00    -0.686 OA
ATOM     27  O   UNL     1      51.325  14.807  17.317  0.00  0.00    -0.705 OA
ENDBRANCH  24  25
BRANCH   9  10
ATOM     10  O   UNL     1      44.569  19.486  17.981  0.00  0.00    -0.552 OA
ATOM     11  H   UNL     1      45.166  20.245  17.931  0.00  0.00    +0.373 HD
ENDBRANCH   9  10
BRANCH  12  13
ATOM     13  O   UNL     1      43.100  18.518  20.127  0.00  0.00    -0.540 OA
ATOM     14  H   UNL     1      42.782  19.311  19.673  0.00  0.00    +0.363 HD
ENDBRANCH  12  13
BRANCH  15  16
ATOM     16  C   UNL     1      44.550  19.387  22.435  0.00  0.00    +0.158 C 
BRANCH  16  17
ATOM     17  O   UNL     1      43.243  19.962  22.505  0.00  0.00    -0.546 OA
ATOM     18  H   UNL     1      42.592  19.406  22.956  0.00  0.00    +0.364 HD
ENDBRANCH  16  17
ENDBRANCH  15  16
TORSDOF 5
ENDMDL
