MODEL 1
REMARK VINA RESULT:      -7.2      0.000      0.000
REMARK  Name = ZINC95485898
REMARK  8 active torsions:
REMARK  status: ('A' for Active; 'I' for Inactive)
REMARK    1  A    between atoms: C1_1  and  N1_2
REMARK    2  A    between atoms: C6_7  and  O6_45
REMARK    3  A    between atoms: C7_8  and  O5_43
REMARK    4  A    between atoms: C15_17  and  O4_42
REMARK    5  A    between atoms: C29_33  and  O3_37
REMARK    6  A    between atoms: O3_37  and  C32_38
REMARK    7  A    between atoms: O5_43  and  C35_44
REMARK    8  A    between atoms: O6_45  and  C36_46
REMARK                            x       y       z     vdW  Elec       q    Type
REMARK                         _______ _______ _______ _____ _____    ______ ____
ROOT
ATOM      1  C   UNL     1      46.862  15.859  20.249  0.00  0.00    +0.178 C 
ATOM      2  N   UNL     1      47.217  14.806  19.256  0.00  0.00    -0.478 NA
ATOM      3  C   UNL     1      45.997  14.504  18.472  0.00  0.00    +0.160 C 
ATOM      4  C   UNL     1      46.272  13.566  17.317  0.00  0.00    +0.091 C 
ATOM      5  C   UNL     1      47.698  13.453  16.879  0.00  0.00    -0.008 A 
ATOM      6  C   UNL     1      48.031  12.587  15.850  0.00  0.00    -0.069 A 
ATOM      7  C   UNL     1      49.345  12.498  15.420  0.00  0.00    +0.125 A 
ATOM     10  C   UNL     1      50.346  13.225  16.047  0.00  0.00    +0.018 A 
ATOM     13  C   UNL     1      50.030  14.032  17.159  0.00  0.00    +0.141 A 
ATOM     14  O   UNL     1      51.047  14.574  17.884  0.00  0.00    -0.248 OA
ATOM     15  C   UNL     1      52.044  13.809  18.414  0.00  0.00    +0.184 A 
ATOM     16  C   UNL     1      52.207  12.494  17.975  0.00  0.00    -0.118 A 
ATOM     17  C   UNL     1      53.321  11.758  18.339  0.00  0.00    +0.165 A 
ATOM     20  C   UNL     1      54.276  12.319  19.165  0.00  0.00    -0.050 A 
ATOM     21  C   UNL     1      54.092  13.593  19.672  0.00  0.00    +0.003 A 
ATOM     22  C   UNL     1      55.151  14.152  20.584  0.00  0.00    +0.091 C 
ATOM     23  C   UNL     1      54.864  15.563  21.060  0.00  0.00    +0.143 C 
ATOM     24  N   UNL     1      53.404  15.739  21.288  0.00  0.00    -0.595 NA
ATOM     25  H   UNL     1      53.352  16.793  21.487  0.00  0.00    +0.318 HD
ATOM     26  C   UNL     1      52.741  15.659  19.946  0.00  0.00    +0.195 C 
ATOM     27  C   UNL     1      53.260  16.809  19.087  0.00  0.00    +0.070 C 
ATOM     28  C   UNL     1      52.222  17.907  19.123  0.00  0.00    -0.073 A 
ATOM     29  C   UNL     1      51.416  18.035  20.243  0.00  0.00    +0.025 A 
ATOM     30  C   UNL     1      50.374  18.942  20.248  0.00  0.00    +0.011 A 
ATOM     31  C   UNL     1      50.141  19.723  19.124  0.00  0.00    +0.062 A 
ATOM     32  C   UNL     1      51.006  19.662  18.043  0.00  0.00    +0.012 A 
ATOM     33  O   UNL     1      49.045  20.551  19.101  0.00  0.00    -0.233 OA
ATOM     34  C   UNL     1      47.958  19.778  18.758  0.00  0.00    +0.085 A 
ATOM     35  C   UNL     1      48.236  18.512  18.261  0.00  0.00    -0.034 A 
ATOM     36  C   UNL     1      47.204  17.670  17.881  0.00  0.00    -0.048 A 
ATOM     37  C   UNL     1      45.895  18.100  17.994  0.00  0.00    -0.002 A 
ATOM     38  C   UNL     1      45.617  19.357  18.495  0.00  0.00    +0.032 A 
ATOM     39  C   UNL     1      47.549  16.320  17.325  0.00  0.00    +0.049 C 
ATOM     40  C   UNL     1      46.650  20.205  18.878  0.00  0.00    +0.086 A 
ATOM     43  C   UNL     1      52.044  18.746  18.040  0.00  0.00    +0.029 A 
ATOM     44  C   UNL     1      52.963  14.319  19.333  0.00  0.00    -0.126 A 
ATOM     45  C   UNL     1      48.699  14.219  17.454  0.00  0.00    -0.100 A 
ATOM     46  C   UNL     1      48.221  15.373  18.307  0.00  0.00    +0.228 C 
ENDROOT
BRANCH   7   8
ATOM      8  O   UNL     1      49.651  11.686  14.373  0.00  0.00    -0.303 OA
ATOM      9  C   UNL     1      49.712  10.282  14.636  0.00  0.00    +0.242 C 
ENDBRANCH   7   8
BRANCH  10  11
ATOM     11  O   UNL     1      51.608  13.198  15.539  0.00  0.00    -0.312 OA
ATOM     12  C   UNL     1      51.870  14.033  14.408  0.00  0.00    +0.222 C 
ENDBRANCH  10  11
BRANCH  17  18
ATOM     18  O   UNL     1      53.477  10.487  17.883  0.00  0.00    -0.313 OA
ATOM     19  C   UNL     1      53.308  10.277  16.480  0.00  0.00    +0.241 C 
ENDBRANCH  17  18
BRANCH  40  41
ATOM     41  O   UNL     1      46.378  21.446  19.363  0.00  0.00    -0.486 OA
ATOM     42  H   UNL     1      45.542  21.505  19.845  0.00  0.00    +0.389 HD
ENDBRANCH  40  41
TORSDOF 4
ENDMDL
MODEL 2
REMARK VINA RESULT:      -7.2      1.854      5.586
REMARK  Name = ZINC95485898
REMARK  8 active torsions:
REMARK  status: ('A' for Active; 'I' for Inactive)
REMARK    1  A    between atoms: C1_1  and  N1_2
REMARK    2  A    between atoms: C6_7  and  O6_45
REMARK    3  A    between atoms: C7_8  and  O5_43
REMARK    4  A    between atoms: C15_17  and  O4_42
REMARK    5  A    between atoms: C29_33  and  O3_37
REMARK    6  A    between atoms: O3_37  and  C32_38
REMARK    7  A    between atoms: O5_43  and  C35_44
REMARK    8  A    between atoms: O6_45  and  C36_46
REMARK                            x       y       z     vdW  Elec       q    Type
REMARK                         _______ _______ _______ _____ _____    ______ ____
ROOT
ATOM      1  C   UNL     1      50.631  18.819  16.745  0.00  0.00    +0.178 C 
ATOM      2  N   UNL     1      51.548  17.870  17.438  0.00  0.00    -0.478 NA
ATOM      3  C   UNL     1      52.440  18.669  18.310  0.00  0.00    +0.160 C 
ATOM      4  C   UNL     1      53.308  17.802  19.195  0.00  0.00    +0.091 C 
ATOM      5  C   UNL     1      52.854  16.390  19.390  0.00  0.00    -0.008 A 
ATOM      6  C   UNL     1      53.617  15.527  20.161  0.00  0.00    -0.069 A 
ATOM      7  C   UNL     1      53.188  14.226  20.370  0.00  0.00    +0.125 A 
ATOM     10  C   UNL     1      52.030  13.757  19.769  0.00  0.00    +0.018 A 
ATOM     13  C   UNL     1      51.302  14.599  18.904  0.00  0.00    +0.141 A 
ATOM     14  O   UNL     1      50.290  14.063  18.168  0.00  0.00    -0.248 OA
ATOM     15  C   UNL     1      50.480  12.985  17.354  0.00  0.00    +0.184 A 
ATOM     16  C   UNL     1      51.642  12.224  17.484  0.00  0.00    -0.118 A 
ATOM     17  C   UNL     1      51.778  11.018  16.820  0.00  0.00    +0.165 A 
ATOM     20  C   UNL     1      50.762  10.567  15.999  0.00  0.00    -0.050 A 
ATOM     21  C   UNL     1      49.636  11.346  15.797  0.00  0.00    +0.003 A 
ATOM     22  C   UNL     1      48.568  10.820  14.878  0.00  0.00    +0.091 C 
ATOM     23  C   UNL     1      47.367  11.738  14.749  0.00  0.00    +0.143 C 
ATOM     24  N   UNL     1      47.806  13.161  14.774  0.00  0.00    -0.595 NA
ATOM     25  H   UNL     1      46.860  13.667  14.806  0.00  0.00    +0.318 HD
ATOM     26  C   UNL     1      48.332  13.429  16.152  0.00  0.00    +0.195 C 
ATOM     27  C   UNL     1      47.190  13.235  17.145  0.00  0.00    +0.070 C 
ATOM     28  C   UNL     1      46.647  14.604  17.486  0.00  0.00    -0.073 A 
ATOM     29  C   UNL     1      46.735  15.617  16.545  0.00  0.00    +0.025 A 
ATOM     30  C   UNL     1      46.369  16.907  16.876  0.00  0.00    +0.011 A 
ATOM     31  C   UNL     1      45.913  17.180  18.159  0.00  0.00    +0.062 A 
ATOM     32  C   UNL     1      45.734  16.150  19.068  0.00  0.00    +0.012 A 
ATOM     33  O   UNL     1      45.644  18.482  18.508  0.00  0.00    -0.233 OA
ATOM     34  C   UNL     1      46.845  19.071  18.838  0.00  0.00    +0.085 A 
ATOM     35  C   UNL     1      47.922  18.213  19.018  0.00  0.00    -0.034 A 
ATOM     36  C   UNL     1      49.165  18.719  19.361  0.00  0.00    -0.048 A 
ATOM     37  C   UNL     1      49.326  20.081  19.528  0.00  0.00    -0.002 A 
ATOM     38  C   UNL     1      48.257  20.935  19.342  0.00  0.00    +0.032 A 
ATOM     39  C   UNL     1      50.296  17.756  19.571  0.00  0.00    +0.049 C 
ATOM     40  C   UNL     1      47.008  20.433  18.998  0.00  0.00    +0.086 A 
ATOM     43  C   UNL     1      46.111  14.861  18.733  0.00  0.00    +0.029 A 
ATOM     44  C   UNL     1      49.513  12.567  16.437  0.00  0.00    -0.126 A 
ATOM     45  C   UNL     1      51.667  15.924  18.848  0.00  0.00    -0.100 A 
ATOM     46  C   UNL     1      50.731  16.993  18.329  0.00  0.00    +0.228 C 
ENDROOT
BRANCH   7   8
ATOM      8  O   UNL     1      53.917  13.404  21.172  0.00  0.00    -0.303 OA
ATOM      9  C   UNL     1      55.172  12.947  20.664  0.00  0.00    +0.242 C 
ENDBRANCH   7   8
BRANCH  10  11
ATOM     11  O   UNL     1      51.578  12.510  20.074  0.00  0.00    -0.312 OA
ATOM     12  C   UNL     1      50.625  12.407  21.134  0.00  0.00    +0.222 C 
ENDBRANCH  10  11
BRANCH  17  18
ATOM     18  O   UNL     1      52.906  10.277  16.978  0.00  0.00    -0.313 OA
ATOM     19  C   UNL     1      53.696  10.536  18.140  0.00  0.00    +0.241 C 
ENDBRANCH  17  18
BRANCH  40  41
ATOM     41  O   UNL     1      45.952  21.273  18.823  0.00  0.00    -0.486 OA
ATOM     42  H   UNL     1      45.969  22.049  19.399  0.00  0.00    +0.389 HD
ENDBRANCH  40  41
TORSDOF 4
ENDMDL
MODEL 3
REMARK VINA RESULT:      -6.6      2.282      6.106
REMARK  Name = ZINC95485898
REMARK  8 active torsions:
REMARK  status: ('A' for Active; 'I' for Inactive)
REMARK    1  A    between atoms: C1_1  and  N1_2
REMARK    2  A    between atoms: C6_7  and  O6_45
REMARK    3  A    between atoms: C7_8  and  O5_43
REMARK    4  A    between atoms: C15_17  and  O4_42
REMARK    5  A    between atoms: C29_33  and  O3_37
REMARK    6  A    between atoms: O3_37  and  C32_38
REMARK    7  A    between atoms: O5_43  and  C35_44
REMARK    8  A    between atoms: O6_45  and  C36_46
REMARK                            x       y       z     vdW  Elec       q    Type
REMARK                         _______ _______ _______ _____ _____    ______ ____
ROOT
ATOM      1  C   UNL     1      49.290  20.786  18.748  0.00  0.00    +0.178 C 
ATOM      2  N   UNL     1      50.338  19.897  19.324  0.00  0.00    -0.478 NA
ATOM      3  C   UNL     1      51.129  20.703  20.282  0.00  0.00    +0.160 C 
ATOM      4  C   UNL     1      52.122  19.866  21.058  0.00  0.00    +0.091 C 
ATOM      5  C   UNL     1      51.866  18.392  21.088  0.00  0.00    -0.008 A 
ATOM      6  C   UNL     1      52.752  17.558  21.750  0.00  0.00    -0.069 A 
ATOM      7  C   UNL     1      52.507  16.195  21.806  0.00  0.00    +0.125 A 
ATOM     10  C   UNL     1      51.412  15.646  21.156  0.00  0.00    +0.018 A 
ATOM     13  C   UNL     1      50.562  16.476  20.397  0.00  0.00    +0.141 A 
ATOM     14  O   UNL     1      49.619  15.896  19.604  0.00  0.00    -0.248 OA
ATOM     15  C   UNL     1      49.939  14.956  18.669  0.00  0.00    +0.184 A 
ATOM     16  C   UNL     1      51.195  14.350  18.708  0.00  0.00    -0.118 A 
ATOM     17  C   UNL     1      51.481  13.258  17.907  0.00  0.00    +0.165 A 
ATOM     20  C   UNL     1      50.522  12.772  17.040  0.00  0.00    -0.050 A 
ATOM     21  C   UNL     1      49.297  13.409  16.933  0.00  0.00    +0.003 A 
ATOM     22  C   UNL     1      48.294  12.852  15.960  0.00  0.00    +0.091 C 
ATOM     23  C   UNL     1      46.978  13.607  15.941  0.00  0.00    +0.143 C 
ATOM     24  N   UNL     1      47.221  15.063  16.133  0.00  0.00    -0.595 NA
ATOM     25  H   UNL     1      46.216  15.428  16.225  0.00  0.00    +0.318 HD
ATOM     26  C   UNL     1      47.730  15.239  17.531  0.00  0.00    +0.195 C 
ATOM     27  C   UNL     1      46.642  14.777  18.497  0.00  0.00    +0.070 C 
ATOM     28  C   UNL     1      45.925  16.011  18.996  0.00  0.00    -0.073 A 
ATOM     29  C   UNL     1      45.860  17.129  18.180  0.00  0.00    +0.025 A 
ATOM     30  C   UNL     1      45.328  18.310  18.661  0.00  0.00    +0.011 A 
ATOM     31  C   UNL     1      44.861  18.368  19.967  0.00  0.00    +0.062 A 
ATOM     32  C   UNL     1      44.840  17.225  20.750  0.00  0.00    +0.012 A 
ATOM     33  O   UNL     1      44.426  19.572  20.468  0.00  0.00    -0.233 OA
ATOM     34  C   UNL     1      45.542  20.276  20.862  0.00  0.00    +0.085 A 
ATOM     35  C   UNL     1      46.727  19.558  20.938  0.00  0.00    -0.034 A 
ATOM     36  C   UNL     1      47.897  20.185  21.337  0.00  0.00    -0.048 A 
ATOM     37  C   UNL     1      47.875  21.528  21.662  0.00  0.00    -0.002 A 
ATOM     38  C   UNL     1      46.697  22.244  21.579  0.00  0.00    +0.032 A 
ATOM     39  C   UNL     1      49.150  19.367  21.431  0.00  0.00    +0.049 C 
ATOM     40  C   UNL     1      45.522  21.620  21.180  0.00  0.00    +0.086 A 
ATOM     43  C   UNL     1      45.381  16.046  20.266  0.00  0.00    +0.029 A 
ATOM     44  C   UNL     1      49.021  14.519  17.711  0.00  0.00    -0.126 A 
ATOM     45  C   UNL     1      50.744  17.836  20.496  0.00  0.00    -0.100 A 
ATOM     46  C   UNL     1      49.663  18.820  20.107  0.00  0.00    +0.228 C 
ENDROOT
BRANCH   7   8
ATOM      8  O   UNL     1      53.353  15.393  22.505  0.00  0.00    -0.303 OA
ATOM      9  C   UNL     1      54.661  15.198  21.961  0.00  0.00    +0.242 C 
ENDBRANCH   7   8
BRANCH  10  11
ATOM     11  O   UNL     1      51.138  14.322  21.313  0.00  0.00    -0.312 OA
ATOM     12  C   UNL     1      50.242  13.966  22.369  0.00  0.00    +0.222 C 
ENDBRANCH  10  11
BRANCH  17  18
ATOM     18  O   UNL     1      52.702  12.665  17.975  0.00  0.00    -0.313 OA
ATOM     19  C   UNL     1      53.477  12.908  19.150  0.00  0.00    +0.241 C 
ENDBRANCH  17  18
BRANCH  40  41
ATOM     41  O   UNL     1      44.360  22.323  21.107  0.00  0.00    -0.486 OA
ATOM     42  H   UNL     1      44.253  22.821  20.286  0.00  0.00    +0.389 HD
ENDBRANCH  40  41
TORSDOF 4
ENDMDL
MODEL 4
REMARK VINA RESULT:      -6.4      2.220      7.338
REMARK  Name = ZINC95485898
REMARK  8 active torsions:
REMARK  status: ('A' for Active; 'I' for Inactive)
REMARK    1  A    between atoms: C1_1  and  N1_2
REMARK    2  A    between atoms: C6_7  and  O6_45
REMARK    3  A    between atoms: C7_8  and  O5_43
REMARK    4  A    between atoms: C15_17  and  O4_42
REMARK    5  A    between atoms: C29_33  and  O3_37
REMARK    6  A    between atoms: O3_37  and  C32_38
REMARK    7  A    between atoms: O5_43  and  C35_44
REMARK    8  A    between atoms: O6_45  and  C36_46
REMARK                            x       y       z     vdW  Elec       q    Type
REMARK                         _______ _______ _______ _____ _____    ______ ____
ROOT
ATOM      1  C   UNL     1      50.086  13.240  16.639  0.00  0.00    +0.178 C 
ATOM      2  N   UNL     1      48.833  13.839  17.179  0.00  0.00    -0.478 NA
ATOM      3  C   UNL     1      47.833  12.752  17.291  0.00  0.00    +0.160 C 
ATOM      4  C   UNL     1      46.567  13.203  17.986  0.00  0.00    +0.091 C 
ATOM      5  C   UNL     1      46.672  14.446  18.813  0.00  0.00    -0.008 A 
ATOM      6  C   UNL     1      45.545  14.938  19.451  0.00  0.00    -0.069 A 
ATOM      7  C   UNL     1      45.640  16.073  20.242  0.00  0.00    +0.125 A 
ATOM     10  C   UNL     1      46.841  16.757  20.357  0.00  0.00    +0.018 A 
ATOM     13  C   UNL     1      47.966  16.318  19.630  0.00  0.00    +0.141 A 
ATOM     14  O   UNL     1      49.071  17.113  19.594  0.00  0.00    -0.248 OA
ATOM     15  C   UNL     1      49.013  18.414  19.189  0.00  0.00    +0.184 A 
ATOM     16  C   UNL     1      47.773  19.046  19.088  0.00  0.00    -0.118 A 
ATOM     17  C   UNL     1      47.689  20.411  18.877  0.00  0.00    +0.165 A 
ATOM     20  C   UNL     1      48.842  21.159  18.741  0.00  0.00    -0.050 A 
ATOM     21  C   UNL     1      50.078  20.536  18.760  0.00  0.00    +0.003 A 
ATOM     22  C   UNL     1      51.304  21.392  18.588  0.00  0.00    +0.091 C 
ATOM     23  C   UNL     1      52.604  20.615  18.652  0.00  0.00    +0.143 C 
ATOM     24  N   UNL     1      52.435  19.279  18.016  0.00  0.00    -0.595 NA
ATOM     25  H   UNL     1      53.374  18.818  18.254  0.00  0.00    +0.318 HD
ATOM     26  C   UNL     1      51.494  18.500  18.884  0.00  0.00    +0.195 C 
ATOM     27  C   UNL     1      52.142  18.328  20.255  0.00  0.00    +0.070 C 
ATOM     28  C   UNL     1      52.745  16.943  20.301  0.00  0.00    -0.073 A 
ATOM     29  C   UNL     1      53.181  16.359  19.123  0.00  0.00    +0.025 A 
ATOM     30  C   UNL     1      53.614  15.046  19.117  0.00  0.00    +0.011 A 
ATOM     31  C   UNL     1      53.607  14.318  20.299  0.00  0.00    +0.062 A 
ATOM     32  C   UNL     1      53.262  14.932  21.492  0.00  0.00    +0.012 A 
ATOM     33  O   UNL     1      53.945  12.987  20.265  0.00  0.00    -0.233 OA
ATOM     34  C   UNL     1      52.825  12.293  19.861  0.00  0.00    +0.085 A 
ATOM     35  C   UNL     1      51.629  12.998  19.869  0.00  0.00    -0.034 A 
ATOM     36  C   UNL     1      50.451  12.375  19.489  0.00  0.00    -0.048 A 
ATOM     37  C   UNL     1      50.474  11.047  19.105  0.00  0.00    -0.002 A 
ATOM     38  C   UNL     1      51.665  10.348  19.090  0.00  0.00    +0.032 A 
ATOM     39  C   UNL     1      49.177  13.164  19.537  0.00  0.00    +0.049 C 
ATOM     40  C   UNL     1      52.848  10.968  19.471  0.00  0.00    +0.086 A 
ATOM     43  C   UNL     1      52.822  16.245  21.491  0.00  0.00    +0.029 A 
ATOM     44  C   UNL     1      50.163  19.167  18.941  0.00  0.00    -0.126 A 
ATOM     45  C   UNL     1      47.877  15.105  18.988  0.00  0.00    -0.100 A 
ATOM     46  C   UNL     1      49.105  14.331  18.563  0.00  0.00    +0.228 C 
ENDROOT
BRANCH   7   8
ATOM      8  O   UNL     1      44.540  16.516  20.908  0.00  0.00    -0.303 OA
ATOM      9  C   UNL     1      44.230  15.875  22.147  0.00  0.00    +0.242 C 
ENDBRANCH   7   8
BRANCH  10  11
ATOM     11  O   UNL     1      46.931  17.805  21.220  0.00  0.00    -0.312 OA
ATOM     12  C   UNL     1      47.498  17.540  22.505  0.00  0.00    +0.222 C 
ENDBRANCH  10  11
BRANCH  17  18
ATOM     18  O   UNL     1      46.473  21.015  18.806  0.00  0.00    -0.313 OA
ATOM     19  C   UNL     1      45.327  20.163  18.760  0.00  0.00    +0.241 C 
ENDBRANCH  17  18
BRANCH  40  41
ATOM     41  O   UNL     1      54.020  10.278  19.465  0.00  0.00    -0.486 OA
ATOM     42  H   UNL     1      54.778  10.793  19.158  0.00  0.00    +0.389 HD
ENDBRANCH  40  41
TORSDOF 4
ENDMDL
MODEL 5
REMARK VINA RESULT:      -6.3      2.183      5.788
REMARK  Name = ZINC95485898
REMARK  8 active torsions:
REMARK  status: ('A' for Active; 'I' for Inactive)
REMARK    1  A    between atoms: C1_1  and  N1_2
REMARK    2  A    between atoms: C6_7  and  O6_45
REMARK    3  A    between atoms: C7_8  and  O5_43
REMARK    4  A    between atoms: C15_17  and  O4_42
REMARK    5  A    between atoms: C29_33  and  O3_37
REMARK    6  A    between atoms: O3_37  and  C32_38
REMARK    7  A    between atoms: O5_43  and  C35_44
REMARK    8  A    between atoms: O6_45  and  C36_46
REMARK                            x       y       z     vdW  Elec       q    Type
REMARK                         _______ _______ _______ _____ _____    ______ ____
ROOT
ATOM      1  C   UNL     1      48.729  18.869  18.258  0.00  0.00    +0.178 C 
ATOM      2  N   UNL     1      50.038  18.156  18.285  0.00  0.00    -0.478 NA
ATOM      3  C   UNL     1      51.020  19.054  18.937  0.00  0.00    +0.160 C 
ATOM      4  C   UNL     1      52.351  18.376  19.175  0.00  0.00    +0.091 C 
ATOM      5  C   UNL     1      52.347  16.880  19.150  0.00  0.00    -0.008 A 
ATOM      6  C   UNL     1      53.536  16.190  19.326  0.00  0.00    -0.069 A 
ATOM      7  C   UNL     1      53.536  14.805  19.333  0.00  0.00    +0.125 A 
ATOM     10  C   UNL     1      52.365  14.096  19.109  0.00  0.00    +0.018 A 
ATOM     13  C   UNL     1      51.171  14.791  18.830  0.00  0.00    +0.141 A 
ATOM     14  O   UNL     1      50.085  14.084  18.412  0.00  0.00    -0.248 OA
ATOM     15  C   UNL     1      50.137  13.248  17.335  0.00  0.00    +0.184 A 
ATOM     16  C   UNL     1      51.377  12.871  16.819  0.00  0.00    -0.118 A 
ATOM     17  C   UNL     1      51.473  11.875  15.863  0.00  0.00    +0.165 A 
ATOM     20  C   UNL     1      50.329  11.259  15.393  0.00  0.00    -0.050 A 
ATOM     21  C   UNL     1      49.086  11.675  15.837  0.00  0.00    +0.003 A 
ATOM     22  C   UNL     1      47.869  10.987  15.281  0.00  0.00    +0.091 C 
ATOM     23  C   UNL     1      46.562  11.500  15.853  0.00  0.00    +0.143 C 
ATOM     24  N   UNL     1      46.646  12.969  16.083  0.00  0.00    -0.595 NA
ATOM     25  H   UNL     1      45.720  13.149  16.596  0.00  0.00    +0.318 HD
ATOM     26  C   UNL     1      47.641  13.181  17.183  0.00  0.00    +0.195 C 
ATOM     27  C   UNL     1      47.112  12.502  18.443  0.00  0.00    +0.070 C 
ATOM     28  C   UNL     1      46.484  13.572  19.306  0.00  0.00    -0.073 A 
ATOM     29  C   UNL     1      45.934  14.690  18.699  0.00  0.00    +0.025 A 
ATOM     30  C   UNL     1      45.473  15.742  19.467  0.00  0.00    +0.011 A 
ATOM     31  C   UNL     1      45.567  15.671  20.851  0.00  0.00    +0.062 A 
ATOM     32  C   UNL     1      46.028  14.514  21.459  0.00  0.00    +0.012 A 
ATOM     33  O   UNL     1      45.198  16.761  21.602  0.00  0.00    -0.233 OA
ATOM     34  C   UNL     1      46.262  17.635  21.601  0.00  0.00    +0.085 A 
ATOM     35  C   UNL     1      47.470  17.133  21.135  0.00  0.00    -0.034 A 
ATOM     36  C   UNL     1      48.596  17.941  21.108  0.00  0.00    -0.048 A 
ATOM     37  C   UNL     1      48.510  19.247  21.552  0.00  0.00    -0.002 A 
ATOM     38  C   UNL     1      47.307  19.748  22.008  0.00  0.00    +0.032 A 
ATOM     39  C   UNL     1      49.886  17.352  20.622  0.00  0.00    +0.049 C 
ATOM     40  C   UNL     1      46.175  18.943  22.037  0.00  0.00    +0.086 A 
ATOM     43  C   UNL     1      46.496  13.466  20.684  0.00  0.00    +0.029 A 
ATOM     44  C   UNL     1      48.987  12.692  16.771  0.00  0.00    -0.126 A 
ATOM     45  C   UNL     1      51.176  16.157  18.989  0.00  0.00    -0.100 A 
ATOM     46  C   UNL     1      49.899  16.950  19.155  0.00  0.00    +0.228 C 
ENDROOT
BRANCH   7   8
ATOM      8  O   UNL     1      54.699  14.138  19.561  0.00  0.00    -0.303 OA
ATOM      9  C   UNL     1      55.897  14.917  19.595  0.00  0.00    +0.242 C 
ENDBRANCH   7   8
BRANCH  10  11
ATOM     11  O   UNL     1      52.374  12.740  19.223  0.00  0.00    -0.312 OA
ATOM     12  C   UNL     1      52.030  12.195  20.500  0.00  0.00    +0.222 C 
ENDBRANCH  10  11
BRANCH  17  18
ATOM     18  O   UNL     1      52.691  11.502  15.389  0.00  0.00    -0.313 OA
ATOM     19  C   UNL     1      53.270  10.320  15.946  0.00  0.00    +0.241 C 
ENDBRANCH  17  18
BRANCH  40  41
ATOM     41  O   UNL     1      44.992  19.433  22.495  0.00  0.00    -0.486 OA
ATOM     42  H   UNL     1      44.548  18.858  23.132  0.00  0.00    +0.389 HD
ENDBRANCH  40  41
TORSDOF 4
ENDMDL
MODEL 6
REMARK VINA RESULT:      -6.2      2.450      7.330
REMARK  Name = ZINC95485898
REMARK  8 active torsions:
REMARK  status: ('A' for Active; 'I' for Inactive)
REMARK    1  A    between atoms: C1_1  and  N1_2
REMARK    2  A    between atoms: C6_7  and  O6_45
REMARK    3  A    between atoms: C7_8  and  O5_43
REMARK    4  A    between atoms: C15_17  and  O4_42
REMARK    5  A    between atoms: C29_33  and  O3_37
REMARK    6  A    between atoms: O3_37  and  C32_38
REMARK    7  A    between atoms: O5_43  and  C35_44
REMARK    8  A    between atoms: O6_45  and  C36_46
REMARK                            x       y       z     vdW  Elec       q    Type
REMARK                         _______ _______ _______ _____ _____    ______ ____
ROOT
ATOM      1  C   UNL     1      51.537  13.216  16.623  0.00  0.00    +0.178 C 
ATOM      2  N   UNL     1      50.145  13.249  17.154  0.00  0.00    -0.478 NA
ATOM      3  C   UNL     1      49.671  11.848  17.247  0.00  0.00    +0.160 C 
ATOM      4  C   UNL     1      48.327  11.738  17.931  0.00  0.00    +0.091 C 
ATOM      5  C   UNL     1      47.912  12.907  18.768  0.00  0.00    -0.008 A 
ATOM      6  C   UNL     1      46.678  12.893  19.398  0.00  0.00    -0.069 A 
ATOM      7  C   UNL     1      46.298  13.959  20.198  0.00  0.00    +0.125 A 
ATOM     10  C   UNL     1      47.117  15.070  20.331  0.00  0.00    +0.018 A 
ATOM     13  C   UNL     1      48.329  15.134  19.614  0.00  0.00    +0.141 A 
ATOM     14  O   UNL     1      49.016  16.310  19.595  0.00  0.00    -0.248 OA
ATOM     15  C   UNL     1      48.437  17.480  19.200  0.00  0.00    +0.184 A 
ATOM     16  C   UNL     1      47.048  17.555  19.090  0.00  0.00    -0.118 A 
ATOM     17  C   UNL     1      46.419  18.770  18.888  0.00  0.00    +0.165 A 
ATOM     20  C   UNL     1      47.170  19.923  18.770  0.00  0.00    -0.050 A 
ATOM     21  C   UNL     1      48.552  19.856  18.798  0.00  0.00    +0.003 A 
ATOM     22  C   UNL     1      49.326  21.137  18.646  0.00  0.00    +0.091 C 
ATOM     23  C   UNL     1      50.829  20.955  18.719  0.00  0.00    +0.143 C 
ATOM     24  N   UNL     1      51.221  19.673  18.071  0.00  0.00    -0.595 NA
ATOM     25  H   UNL     1      52.265  19.630  18.316  0.00  0.00    +0.318 HD
ATOM     26  C   UNL     1      50.672  18.569  18.923  0.00  0.00    +0.195 C 
ATOM     27  C   UNL     1      51.324  18.659  20.300  0.00  0.00    +0.070 C 
ATOM     28  C   UNL     1      52.437  17.638  20.342  0.00  0.00    -0.073 A 
ATOM     29  C   UNL     1      53.081  17.294  19.164  0.00  0.00    +0.025 A 
ATOM     30  C   UNL     1      54.009  16.271  19.153  0.00  0.00    +0.011 A 
ATOM     31  C   UNL     1      54.290  15.589  20.330  0.00  0.00    +0.062 A 
ATOM     32  C   UNL     1      53.718  15.997  21.524  0.00  0.00    +0.012 A 
ATOM     33  O   UNL     1      55.140  14.510  20.289  0.00  0.00    -0.233 OA
ATOM     34  C   UNL     1      54.402  13.426  19.868  0.00  0.00    +0.085 A 
ATOM     35  C   UNL     1      53.022  13.584  19.869  0.00  0.00    -0.034 A 
ATOM     36  C   UNL     1      52.202  12.541  19.470  0.00  0.00    -0.048 A 
ATOM     37  C   UNL     1      52.764  11.342  19.077  0.00  0.00    -0.002 A 
ATOM     38  C   UNL     1      54.136  11.187  19.070  0.00  0.00    +0.032 A 
ATOM     39  C   UNL     1      50.716  12.745  19.510  0.00  0.00    +0.049 C 
ATOM     40  C   UNL     1      54.964  12.230  19.469  0.00  0.00    +0.086 A 
ATOM     43  C   UNL     1      52.783  17.018  21.528  0.00  0.00    +0.029 A 
ATOM     44  C   UNL     1      49.184  18.637  18.970  0.00  0.00    -0.126 A 
ATOM     45  C   UNL     1      48.744  13.997  18.961  0.00  0.00    -0.100 A 
ATOM     46  C   UNL     1      50.184  13.793  18.544  0.00  0.00    +0.228 C 
ENDROOT
BRANCH   7   8
ATOM      8  O   UNL     1      45.108  13.910  20.855  0.00  0.00    -0.303 OA
ATOM      9  C   UNL     1      45.075  13.178  22.082  0.00  0.00    +0.242 C 
ENDBRANCH   7   8
BRANCH  10  11
ATOM     11  O   UNL     1      46.768  16.055  21.203  0.00  0.00    -0.312 OA
ATOM     12  C   UNL     1      47.355  16.007  22.505  0.00  0.00    +0.222 C 
ENDBRANCH  10  11
BRANCH  17  18
ATOM     18  O   UNL     1      45.063  18.829  18.808  0.00  0.00    -0.313 OA
ATOM     19  C   UNL     1      44.471  20.130  18.770  0.00  0.00    +0.241 C 
ENDBRANCH  17  18
BRANCH  40  41
ATOM     41  O   UNL     1      56.315  12.075  19.470  0.00  0.00    -0.486 OA
ATOM     42  H   UNL     1      56.662  11.659  20.271  0.00  0.00    +0.389 HD
ENDBRANCH  40  41
TORSDOF 4
ENDMDL
MODEL 7
REMARK VINA RESULT:      -5.9      2.760      8.792
REMARK  Name = ZINC95485898
REMARK  8 active torsions:
REMARK  status: ('A' for Active; 'I' for Inactive)
REMARK    1  A    between atoms: C1_1  and  N1_2
REMARK    2  A    between atoms: C6_7  and  O6_45
REMARK    3  A    between atoms: C7_8  and  O5_43
REMARK    4  A    between atoms: C15_17  and  O4_42
REMARK    5  A    between atoms: C29_33  and  O3_37
REMARK    6  A    between atoms: O3_37  and  C32_38
REMARK    7  A    between atoms: O5_43  and  C35_44
REMARK    8  A    between atoms: O6_45  and  C36_46
REMARK                            x       y       z     vdW  Elec       q    Type
REMARK                         _______ _______ _______ _____ _____    ______ ____
ROOT
ATOM      1  C   UNL     1      49.058  14.039  22.168  0.00  0.00    +0.178 C 
ATOM      2  N   UNL     1      49.792  15.333  22.255  0.00  0.00    -0.478 NA
ATOM      3  C   UNL     1      51.219  15.019  22.505  0.00  0.00    +0.160 C 
ATOM      4  C   UNL     1      52.098  16.248  22.447  0.00  0.00    +0.091 C 
ATOM      5  C   UNL     1      51.528  17.438  21.741  0.00  0.00    -0.008 A 
ATOM      6  C   UNL     1      52.262  18.612  21.677  0.00  0.00    -0.069 A 
ATOM      7  C   UNL     1      51.754  19.709  21.001  0.00  0.00    +0.125 A 
ATOM     10  C   UNL     1      50.489  19.667  20.433  0.00  0.00    +0.018 A 
ATOM     13  C   UNL     1      49.697  18.510  20.580  0.00  0.00    +0.141 A 
ATOM     14  O   UNL     1      48.391  18.559  20.198  0.00  0.00    -0.248 OA
ATOM     15  C   UNL     1      47.532  19.505  20.677  0.00  0.00    +0.184 A 
ATOM     16  C   UNL     1      48.042  20.622  21.338  0.00  0.00    -0.118 A 
ATOM     17  C   UNL     1      47.224  21.691  21.658  0.00  0.00    +0.165 A 
ATOM     20  C   UNL     1      45.880  21.648  21.342  0.00  0.00    -0.050 A 
ATOM     21  C   UNL     1      45.342  20.515  20.756  0.00  0.00    +0.003 A 
ATOM     22  C   UNL     1      43.869  20.508  20.449  0.00  0.00    +0.091 C 
ATOM     23  C   UNL     1      43.390  19.232  19.785  0.00  0.00    +0.143 C 
ATOM     24  N   UNL     1      44.121  18.060  20.340  0.00  0.00    -0.595 NA
ATOM     25  H   UNL     1      43.774  17.276  19.694  0.00  0.00    +0.318 HD
ATOM     26  C   UNL     1      45.549  18.192  19.903  0.00  0.00    +0.195 C 
ATOM     27  C   UNL     1      45.589  18.136  18.378  0.00  0.00    +0.070 C 
ATOM     28  C   UNL     1      45.984  16.731  17.985  0.00  0.00    -0.073 A 
ATOM     29  C   UNL     1      45.652  15.679  18.824  0.00  0.00    +0.025 A 
ATOM     30  C   UNL     1      46.115  14.405  18.556  0.00  0.00    +0.011 A 
ATOM     31  C   UNL     1      46.916  14.188  17.442  0.00  0.00    +0.062 A 
ATOM     32  C   UNL     1      47.167  15.221  16.553  0.00  0.00    +0.012 A 
ATOM     33  O   UNL     1      47.452  12.939  17.238  0.00  0.00    -0.233 OA
ATOM     34  C   UNL     1      48.574  12.844  18.031  0.00  0.00    +0.085 A 
ATOM     35  C   UNL     1      49.042  14.030  18.580  0.00  0.00    -0.034 A 
ATOM     36  C   UNL     1      50.172  14.029  19.382  0.00  0.00    -0.048 A 
ATOM     37  C   UNL     1      50.833  12.840  19.628  0.00  0.00    -0.002 A 
ATOM     38  C   UNL     1      50.364  11.659  19.088  0.00  0.00    +0.032 A 
ATOM     39  C   UNL     1      50.658  15.336  19.934  0.00  0.00    +0.049 C 
ATOM     40  C   UNL     1      49.231  11.655  18.283  0.00  0.00    +0.086 A 
ATOM     43  C   UNL     1      46.707  16.497  16.831  0.00  0.00    +0.029 A 
ATOM     44  C   UNL     1      46.154  19.433  20.463  0.00  0.00    -0.126 A 
ATOM     45  C   UNL     1      50.293  17.392  21.116  0.00  0.00    -0.100 A 
ATOM     46  C   UNL     1      49.717  16.006  20.924  0.00  0.00    +0.228 C 
ENDROOT
BRANCH   7   8
ATOM      8  O   UNL     1      52.506  20.837  20.898  0.00  0.00    -0.303 OA
ATOM      9  C   UNL     1      52.489  21.732  22.012  0.00  0.00    +0.242 C 
ENDBRANCH   7   8
BRANCH  10  11
ATOM     11  O   UNL     1      50.057  20.720  19.688  0.00  0.00    -0.312 OA
ATOM     12  C   UNL     1      50.383  20.707  18.296  0.00  0.00    +0.222 C 
ENDBRANCH  10  11
BRANCH  17  18
ATOM     18  O   UNL     1      47.742  22.783  22.280  0.00  0.00    -0.313 OA
ATOM     19  C   UNL     1      47.162  24.049  21.959  0.00  0.00    +0.241 C 
ENDBRANCH  17  18
BRANCH  40  41
ATOM     41  O   UNL     1      48.774  10.494  17.743  0.00  0.00    -0.486 OA
ATOM     42  H   UNL     1      47.931  10.582  17.277  0.00  0.00    +0.389 HD
ENDBRANCH  40  41
TORSDOF 4
ENDMDL
MODEL 8
REMARK VINA RESULT:      -5.5      2.155      8.208
REMARK  Name = ZINC95485898
REMARK  8 active torsions:
REMARK  status: ('A' for Active; 'I' for Inactive)
REMARK    1  A    between atoms: C1_1  and  N1_2
REMARK    2  A    between atoms: C6_7  and  O6_45
REMARK    3  A    between atoms: C7_8  and  O5_43
REMARK    4  A    between atoms: C15_17  and  O4_42
REMARK    5  A    between atoms: C29_33  and  O3_37
REMARK    6  A    between atoms: O3_37  and  C32_38
REMARK    7  A    between atoms: O5_43  and  C35_44
REMARK    8  A    between atoms: O6_45  and  C36_46
REMARK                            x       y       z     vdW  Elec       q    Type
REMARK                         _______ _______ _______ _____ _____    ______ ____
ROOT
ATOM      1  C   UNL     1      50.786  13.634  19.893  0.00  0.00    +0.178 C 
ATOM      2  N   UNL     1      51.406  14.987  19.960  0.00  0.00    -0.478 NA
ATOM      3  C   UNL     1      52.818  14.851  19.531  0.00  0.00    +0.160 C 
ATOM      4  C   UNL     1      53.511  16.189  19.396  0.00  0.00    +0.091 C 
ATOM      5  C   UNL     1      52.622  17.386  19.269  0.00  0.00    -0.008 A 
ATOM      6  C   UNL     1      53.185  18.648  19.175  0.00  0.00    -0.069 A 
ATOM      7  C   UNL     1      52.370  19.759  19.029  0.00  0.00    +0.125 A 
ATOM     10  C   UNL     1      50.989  19.629  19.031  0.00  0.00    +0.018 A 
ATOM     13  C   UNL     1      50.408  18.359  19.226  0.00  0.00    +0.141 A 
ATOM     14  O   UNL     1      49.064  18.279  19.429  0.00  0.00    -0.248 OA
ATOM     15  C   UNL     1      48.439  18.986  20.414  0.00  0.00    +0.184 A 
ATOM     16  C   UNL     1      49.115  20.033  21.042  0.00  0.00    -0.118 A 
ATOM     17  C   UNL     1      48.450  20.894  21.897  0.00  0.00    +0.165 A 
ATOM     20  C   UNL     1      47.106  20.706  22.154  0.00  0.00    -0.050 A 
ATOM     21  C   UNL     1      46.438  19.627  21.601  0.00  0.00    +0.003 A 
ATOM     22  C   UNL     1      44.980  19.454  21.927  0.00  0.00    +0.091 C 
ATOM     23  C   UNL     1      44.340  18.258  21.249  0.00  0.00    +0.143 C 
ATOM     24  N   UNL     1      45.309  17.130  21.181  0.00  0.00    -0.595 NA
ATOM     25  H   UNL     1      44.765  16.429  20.576  0.00  0.00    +0.318 HD
ATOM     26  C   UNL     1      46.399  17.548  20.242  0.00  0.00    +0.195 C 
ATOM     27  C   UNL     1      45.784  17.769  18.864  0.00  0.00    +0.070 C 
ATOM     28  C   UNL     1      46.057  16.531  18.041  0.00  0.00    -0.073 A 
ATOM     29  C   UNL     1      46.182  15.310  18.683  0.00  0.00    +0.025 A 
ATOM     30  C   UNL     1      46.561  14.187  17.973  0.00  0.00    +0.011 A 
ATOM     31  C   UNL     1      46.817  14.292  16.613  0.00  0.00    +0.062 A 
ATOM     32  C   UNL     1      46.599  15.492  15.954  0.00  0.00    +0.012 A 
ATOM     33  O   UNL     1      47.289  13.194  15.935  0.00  0.00    -0.233 OA
ATOM     34  C   UNL     1      48.646  13.129  16.159  0.00  0.00    +0.085 A 
ATOM     35  C   UNL     1      49.231  14.256  16.720  0.00  0.00    -0.034 A 
ATOM     36  C   UNL     1      50.594  14.282  16.970  0.00  0.00    -0.048 A 
ATOM     37  C   UNL     1      51.367  13.181  16.653  0.00  0.00    -0.002 A 
ATOM     38  C   UNL     1      50.784  12.057  16.102  0.00  0.00    +0.032 A 
ATOM     39  C   UNL     1      51.190  15.529  17.553  0.00  0.00    +0.049 C 
ATOM     40  C   UNL     1      49.418  12.027  15.849  0.00  0.00    +0.086 A 
ATOM     43  C   UNL     1      46.226  16.616  16.672  0.00  0.00    +0.029 A 
ATOM     44  C   UNL     1      47.110  18.747  20.770  0.00  0.00    -0.126 A 
ATOM     45  C   UNL     1      51.244  17.266  19.207  0.00  0.00    -0.100 A 
ATOM     46  C   UNL     1      50.726  15.866  18.962  0.00  0.00    +0.228 C 
ENDROOT
BRANCH   7   8
ATOM      8  O   UNL     1      52.935  20.988  18.883  0.00  0.00    -0.303 OA
ATOM      9  C   UNL     1      52.949  21.836  20.034  0.00  0.00    +0.242 C 
ENDBRANCH   7   8
BRANCH  10  11
ATOM     11  O   UNL     1      50.216  20.720  18.782  0.00  0.00    -0.312 OA
ATOM     12  C   UNL     1      50.040  21.092  17.412  0.00  0.00    +0.222 C 
ENDBRANCH  10  11
BRANCH  17  18
ATOM     18  O   UNL     1      49.118  21.924  22.481  0.00  0.00    -0.313 OA
ATOM     19  C   UNL     1      50.544  21.842  22.505  0.00  0.00    +0.241 C 
ENDBRANCH  17  18
BRANCH  40  41
ATOM     41  O   UNL     1      48.845  10.924  15.298  0.00  0.00    -0.486 OA
ATOM     42  H   UNL     1      47.950  10.745  15.615  0.00  0.00    +0.389 HD
ENDBRANCH  40  41
TORSDOF 4
ENDMDL
MODEL 9
REMARK VINA RESULT:      -5.5      2.852      4.346
REMARK  Name = ZINC95485898
REMARK  8 active torsions:
REMARK  status: ('A' for Active; 'I' for Inactive)
REMARK    1  A    between atoms: C1_1  and  N1_2
REMARK    2  A    between atoms: C6_7  and  O6_45
REMARK    3  A    between atoms: C7_8  and  O5_43
REMARK    4  A    between atoms: C15_17  and  O4_42
REMARK    5  A    between atoms: C29_33  and  O3_37
REMARK    6  A    between atoms: O3_37  and  C32_38
REMARK    7  A    between atoms: O5_43  and  C35_44
REMARK    8  A    between atoms: O6_45  and  C36_46
REMARK                            x       y       z     vdW  Elec       q    Type
REMARK                         _______ _______ _______ _____ _____    ______ ____
ROOT
ATOM      1  C   UNL     1      44.629  18.008  22.504  0.00  0.00    +0.178 C 
ATOM      2  N   UNL     1      45.297  16.767  22.020  0.00  0.00    -0.478 NA
ATOM      3  C   UNL     1      44.234  15.811  21.634  0.00  0.00    +0.160 C 
ATOM      4  C   UNL     1      44.788  14.571  20.968  0.00  0.00    +0.091 C 
ATOM      5  C   UNL     1      46.173  14.679  20.413  0.00  0.00    -0.008 A 
ATOM      6  C   UNL     1      46.760  13.573  19.819  0.00  0.00    -0.069 A 
ATOM      7  C   UNL     1      48.032  13.673  19.278  0.00  0.00    +0.125 A 
ATOM     10  C   UNL     1      48.751  14.855  19.374  0.00  0.00    +0.018 A 
ATOM     13  C   UNL     1      48.199  15.953  20.065  0.00  0.00    +0.141 A 
ATOM     14  O   UNL     1      48.994  17.028  20.325  0.00  0.00    -0.248 OA
ATOM     15  C   UNL     1      50.186  16.904  20.977  0.00  0.00    +0.184 A 
ATOM     16  C   UNL     1      50.758  15.640  21.127  0.00  0.00    -0.118 A 
ATOM     17  C   UNL     1      52.050  15.499  21.601  0.00  0.00    +0.165 A 
ATOM     20  C   UNL     1      52.780  16.618  21.953  0.00  0.00    -0.050 A 
ATOM     21  C   UNL     1      52.201  17.873  21.884  0.00  0.00    +0.003 A 
ATOM     22  C   UNL     1      53.031  19.058  22.297  0.00  0.00    +0.091 C 
ATOM     23  C   UNL     1      52.311  20.386  22.157  0.00  0.00    +0.143 C 
ATOM     24  N   UNL     1      50.871  20.226  22.503  0.00  0.00    -0.595 NA
ATOM     25  H   UNL     1      50.487  21.192  22.235  0.00  0.00    +0.318 HD
ATOM     26  C   UNL     1      50.262  19.361  21.442  0.00  0.00    +0.195 C 
ATOM     27  C   UNL     1      50.383  20.087  20.106  0.00  0.00    +0.070 C 
ATOM     28  C   UNL     1      49.049  20.738  19.821  0.00  0.00    -0.073 A 
ATOM     29  C   UNL     1      48.249  21.128  20.883  0.00  0.00    +0.025 A 
ATOM     30  C   UNL     1      46.972  21.603  20.654  0.00  0.00    +0.011 A 
ATOM     31  C   UNL     1      46.497  21.685  19.352  0.00  0.00    +0.062 A 
ATOM     32  C   UNL     1      47.330  21.386  18.286  0.00  0.00    +0.012 A 
ATOM     33  O   UNL     1      45.193  22.065  19.140  0.00  0.00    -0.233 OA
ATOM     34  C   UNL     1      44.408  20.948  19.329  0.00  0.00    +0.085 A 
ATOM     35  C   UNL     1      45.074  19.732  19.389  0.00  0.00    -0.034 A 
ATOM     36  C   UNL     1      44.363  18.556  19.566  0.00  0.00    -0.048 A 
ATOM     37  C   UNL     1      42.986  18.602  19.678  0.00  0.00    -0.002 A 
ATOM     38  C   UNL     1      42.324  19.812  19.625  0.00  0.00    +0.032 A 
ATOM     39  C   UNL     1      45.118  17.261  19.600  0.00  0.00    +0.049 C 
ATOM     40  C   UNL     1      43.033  20.994  19.447  0.00  0.00    +0.086 A 
ATOM     43  C   UNL     1      48.606  20.903  18.522  0.00  0.00    +0.029 A 
ATOM     44  C   UNL     1      50.898  18.013  21.439  0.00  0.00    -0.126 A 
ATOM     45  C   UNL     1      46.880  15.869  20.446  0.00  0.00    -0.100 A 
ATOM     46  C   UNL     1      46.063  17.097  20.781  0.00  0.00    +0.228 C 
ENDROOT
BRANCH   7   8
ATOM      8  O   UNL     1      48.576  12.597  18.649  0.00  0.00    -0.303 OA
ATOM      9  C   UNL     1      48.585  11.361  19.367  0.00  0.00    +0.242 C 
ENDBRANCH   7   8
BRANCH  10  11
ATOM     11  O   UNL     1      49.953  14.957  18.745  0.00  0.00    -0.312 OA
ATOM     12  C   UNL     1      49.932  15.320  17.362  0.00  0.00    +0.222 C 
ENDBRANCH  10  11
BRANCH  17  18
ATOM     18  O   UNL     1      52.601  14.262  21.718  0.00  0.00    -0.313 OA
ATOM     19  C   UNL     1      52.549  13.417  20.566  0.00  0.00    +0.241 C 
ENDBRANCH  17  18
BRANCH  40  41
ATOM     41  O   UNL     1      42.381  22.186  19.386  0.00  0.00    -0.486 OA
ATOM     42  H   UNL     1      42.966  22.955  19.395  0.00  0.00    +0.389 HD
ENDBRANCH  40  41
TORSDOF 4
ENDMDL
