MODEL 1
REMARK VINA RESULT:      -7.8      0.000      0.000
REMARK  Name = ZINC85967772
REMARK  12 active torsions:
REMARK  status: ('A' for Active; 'I' for Inactive)
REMARK    1  A    between atoms: C1_1  and  C2_2
REMARK    2  A    between atoms: C2_2  and  C3_3
REMARK    3  A    between atoms: C2_2  and  C4_4
REMARK    4  A    between atoms: C10_10  and  C27_34
REMARK    5  A    between atoms: C12_12  and  O2_15
REMARK    6  A    between atoms: C15_17  and  O3_23
REMARK    7  A    between atoms: C17_20  and  C18_21
REMARK    8  A    between atoms: C17_20  and  C19_22
REMARK    9  A    between atoms: O3_23  and  C20_24
REMARK   10  A    between atoms: C20_24  and  C21_26
REMARK   11  A    between atoms: C24_29  and  O6_33
REMARK   12  A    between atoms: C25_30  and  O5_32
REMARK                            x       y       z     vdW  Elec       q    Type
REMARK                         _______ _______ _______ _____ _____    ______ ____
ROOT
ATOM      3  C   UNL     1      47.111  13.651  18.039  0.00  0.00    -0.195 C 
ATOM      4  C   UNL     1      48.107  14.522  17.745  0.00  0.00    +0.109 C 
ATOM      5  C   UNL     1      47.994  15.882  18.122  0.00  0.00    -0.118 C 
ATOM      6  C   UNL     1      49.021  16.781  17.837  0.00  0.00    +0.149 C 
ATOM      7  C   UNL     1      48.976  18.128  18.214  0.00  0.00    -0.050 C 
ATOM      8  C   UNL     1      47.923  18.657  18.847  0.00  0.00    -0.007 C 
ATOM      9  C   UNL     1      46.719  17.786  19.147  0.00  0.00    +0.016 C 
ATOM     10  C   UNL     1      45.512  18.372  18.412  0.00  0.00    +0.069 C 
ATOM     11  C   UNL     1      46.475  17.891  20.653  0.00  0.00    +0.080 C 
ATOM     12  C   UNL     1      46.279  19.359  21.035  0.00  0.00    +0.180 C 
ATOM     26  C   UNL     1      47.563  20.147  20.775  0.00  0.00    +0.039 C 
ATOM     27  C   UNL     1      47.899  20.101  19.279  0.00  0.00    -0.025 C 
ATOM     28  C   UNL     1      49.271  20.734  19.038  0.00  0.00    +0.044 C 
ATOM     29  C   UNL     1      46.833  20.859  18.487  0.00  0.00    +0.046 C 
ATOM     30  C   UNL     1      46.823  16.324  18.789  0.00  0.00    -0.052 C 
ATOM     31  C   UNL     1      45.830  15.455  19.084  0.00  0.00    +0.017 C 
ATOM     34  C   UNL     1      45.955  14.093  18.712  0.00  0.00    +0.388 C 
ATOM     35  O   UNL     1      45.062  13.300  18.980  0.00  0.00    -0.474 OA
ENDROOT
BRANCH   3   2
ATOM      1  C   UNL     1      47.290  12.100  16.113  0.00  0.00    +0.027 C 
ATOM      2  C   UNL     1      47.238  12.203  17.638  0.00  0.00    +0.037 C 
ATOM     36  C   UNL     1      48.520  11.620  18.235  0.00  0.00    +0.027 C 
ENDBRANCH   3   2
BRANCH  31  32
ATOM     32  O   UNL     1      44.715  15.887  19.732  0.00  0.00    -0.460 OA
ATOM     33  H   UNL     1      44.047  16.276  19.149  0.00  0.00    +0.399 HD
ENDBRANCH  31  32
BRANCH  12  13
ATOM     13  O   UNL     1      45.219  19.914  20.253  0.00  0.00    -0.315 OA
BRANCH  13  14
ATOM     14  C   UNL     1      44.037  20.102  20.871  0.00  0.00    +0.498 C 
ATOM     25  O   UNL     1      43.933  19.890  22.062  0.00  0.00    -0.496 OA
BRANCH  14  15
ATOM     15  C   UNL     1      42.867  20.566  20.100  0.00  0.00    -0.123 A 
ATOM     16  C   UNL     1      41.734  19.754  19.993  0.00  0.00    +0.090 A 
ATOM     17  C   UNL     1      40.643  20.188  19.273  0.00  0.00    +0.003 A 
ATOM     18  C   UNL     1      40.665  21.431  18.653  0.00  0.00    +0.122 A 
ATOM     21  C   UNL     1      41.792  22.244  18.756  0.00  0.00    +0.071 A 
ATOM     24  C   UNL     1      42.887  21.818  19.481  0.00  0.00    +0.085 A 
BRANCH  18  19
ATOM     19  O   UNL     1      39.586  21.853  17.945  0.00  0.00    -0.485 OA
ATOM     20  H   UNL     1      39.811  22.330  17.133  0.00  0.00    +0.396 HD
ENDBRANCH  18  19
BRANCH  21  22
ATOM     22  O   UNL     1      41.810  23.460  18.147  0.00  0.00    -0.482 OA
ATOM     23  H   UNL     1      42.177  24.168  18.694  0.00  0.00    +0.391 HD
ENDBRANCH  21  22
ENDBRANCH  14  15
ENDBRANCH  13  14
ENDBRANCH  12  13
TORSDOF 7
ENDMDL
MODEL 2
REMARK VINA RESULT:      -7.0      3.293      7.666
REMARK  Name = ZINC85967772
REMARK  12 active torsions:
REMARK  status: ('A' for Active; 'I' for Inactive)
REMARK    1  A    between atoms: C1_1  and  C2_2
REMARK    2  A    between atoms: C2_2  and  C3_3
REMARK    3  A    between atoms: C2_2  and  C4_4
REMARK    4  A    between atoms: C10_10  and  C27_34
REMARK    5  A    between atoms: C12_12  and  O2_15
REMARK    6  A    between atoms: C15_17  and  O3_23
REMARK    7  A    between atoms: C17_20  and  C18_21
REMARK    8  A    between atoms: C17_20  and  C19_22
REMARK    9  A    between atoms: O3_23  and  C20_24
REMARK   10  A    between atoms: C20_24  and  C21_26
REMARK   11  A    between atoms: C24_29  and  O6_33
REMARK   12  A    between atoms: C25_30  and  O5_32
REMARK                            x       y       z     vdW  Elec       q    Type
REMARK                         _______ _______ _______ _____ _____    ______ ____
ROOT
ATOM      3  C   UNL     1      44.560  18.845  19.974  0.00  0.00    -0.195 C 
ATOM      4  C   UNL     1      44.427  17.497  19.915  0.00  0.00    +0.109 C 
ATOM      5  C   UNL     1      45.547  16.686  19.611  0.00  0.00    -0.118 C 
ATOM      6  C   UNL     1      45.422  15.299  19.566  0.00  0.00    +0.149 C 
ATOM      7  C   UNL     1      46.501  14.448  19.302  0.00  0.00    -0.050 C 
ATOM      8  C   UNL     1      47.728  14.913  19.039  0.00  0.00    -0.007 C 
ATOM      9  C   UNL     1      47.965  16.409  18.996  0.00  0.00    +0.016 C 
ATOM     10  C   UNL     1      48.434  16.776  17.587  0.00  0.00    +0.069 C 
ATOM     11  C   UNL     1      49.098  16.696  19.982  0.00  0.00    +0.080 C 
ATOM     12  C   UNL     1      50.326  15.871  19.597  0.00  0.00    +0.180 C 
ATOM     26  C   UNL     1      50.027  14.379  19.745  0.00  0.00    +0.039 C 
ATOM     27  C   UNL     1      48.891  13.987  18.791  0.00  0.00    -0.025 C 
ATOM     28  C   UNL     1      48.467  12.542  19.059  0.00  0.00    +0.044 C 
ATOM     29  C   UNL     1      49.362  14.128  17.342  0.00  0.00    +0.046 C 
ATOM     30  C   UNL     1      46.798  17.299  19.349  0.00  0.00    -0.052 C 
ATOM     31  C   UNL     1      46.932  18.644  19.409  0.00  0.00    +0.017 C 
ATOM     34  C   UNL     1      45.809  19.448  19.724  0.00  0.00    +0.388 C 
ATOM     35  O   UNL     1      45.923  20.665  19.783  0.00  0.00    -0.474 OA
ENDROOT
BRANCH   3   2
ATOM      1  C   UNL     1      42.649  20.095  19.006  0.00  0.00    +0.027 C 
ATOM      2  C   UNL     1      43.364  19.703  20.300  0.00  0.00    +0.037 C 
ATOM     36  C   UNL     1      42.404  18.920  21.198  0.00  0.00    +0.027 C 
ENDBRANCH   3   2
BRANCH  31  32
ATOM     32  O   UNL     1      48.139  19.221  19.165  0.00  0.00    -0.460 OA
ATOM     33  H   UNL     1      48.578  18.892  18.368  0.00  0.00    +0.399 HD
ENDBRANCH  31  32
BRANCH  12  13
ATOM     13  O   UNL     1      50.678  16.149  18.240  0.00  0.00    -0.315 OA
BRANCH  13  14
ATOM     14  C   UNL     1      51.836  16.802  18.029  0.00  0.00    +0.498 C 
ATOM     25  O   UNL     1      52.893  16.273  18.309  0.00  0.00    -0.496 OA
BRANCH  14  15
ATOM     15  C   UNL     1      51.823  18.163  17.457  0.00  0.00    -0.123 A 
ATOM     16  C   UNL     1      51.757  18.339  16.072  0.00  0.00    +0.090 A 
ATOM     17  C   UNL     1      51.745  19.609  15.540  0.00  0.00    +0.003 A 
ATOM     18  C   UNL     1      51.798  20.717  16.376  0.00  0.00    +0.122 A 
ATOM     21  C   UNL     1      51.864  20.548  17.758  0.00  0.00    +0.071 A 
ATOM     24  C   UNL     1      51.871  19.277  18.299  0.00  0.00    +0.085 A 
BRANCH  18  19
ATOM     19  O   UNL     1      51.786  21.966  15.846  0.00  0.00    -0.485 OA
ATOM     20  H   UNL     1      51.131  22.090  15.144  0.00  0.00    +0.396 HD
ENDBRANCH  18  19
BRANCH  21  22
ATOM     22  O   UNL     1      51.917  21.635  18.574  0.00  0.00    -0.482 OA
ATOM     23  H   UNL     1      52.814  21.899  18.820  0.00  0.00    +0.391 HD
ENDBRANCH  21  22
ENDBRANCH  14  15
ENDBRANCH  13  14
ENDBRANCH  12  13
TORSDOF 7
ENDMDL
MODEL 3
REMARK VINA RESULT:      -6.7      3.800      7.511
REMARK  Name = ZINC85967772
REMARK  12 active torsions:
REMARK  status: ('A' for Active; 'I' for Inactive)
REMARK    1  A    between atoms: C1_1  and  C2_2
REMARK    2  A    between atoms: C2_2  and  C3_3
REMARK    3  A    between atoms: C2_2  and  C4_4
REMARK    4  A    between atoms: C10_10  and  C27_34
REMARK    5  A    between atoms: C12_12  and  O2_15
REMARK    6  A    between atoms: C15_17  and  O3_23
REMARK    7  A    between atoms: C17_20  and  C18_21
REMARK    8  A    between atoms: C17_20  and  C19_22
REMARK    9  A    between atoms: O3_23  and  C20_24
REMARK   10  A    between atoms: C20_24  and  C21_26
REMARK   11  A    between atoms: C24_29  and  O6_33
REMARK   12  A    between atoms: C25_30  and  O5_32
REMARK                            x       y       z     vdW  Elec       q    Type
REMARK                         _______ _______ _______ _____ _____    ______ ____
ROOT
ATOM      3  C   UNL     1      50.966  19.351  17.795  0.00  0.00    -0.195 C 
ATOM      4  C   UNL     1      50.221  19.830  18.820  0.00  0.00    +0.109 C 
ATOM      5  C   UNL     1      49.133  19.074  19.320  0.00  0.00    -0.118 C 
ATOM      6  C   UNL     1      48.372  19.552  20.385  0.00  0.00    +0.149 C 
ATOM      7  C   UNL     1      47.307  18.834  20.940  0.00  0.00    -0.050 C 
ATOM      8  C   UNL     1      46.922  17.646  20.459  0.00  0.00    -0.007 C 
ATOM      9  C   UNL     1      47.636  17.060  19.258  0.00  0.00    +0.016 C 
ATOM     10  C   UNL     1      46.618  16.908  18.126  0.00  0.00    +0.069 C 
ATOM     11  C   UNL     1      48.117  15.670  19.676  0.00  0.00    +0.080 C 
ATOM     12  C   UNL     1      46.921  14.838  20.142  0.00  0.00    +0.180 C 
ATOM     26  C   UNL     1      46.310  15.453  21.401  0.00  0.00    +0.039 C 
ATOM     27  C   UNL     1      45.795  16.864  21.085  0.00  0.00    -0.025 C 
ATOM     28  C   UNL     1      45.346  17.551  22.376  0.00  0.00    +0.044 C 
ATOM     29  C   UNL     1      44.622  16.778  20.109  0.00  0.00    +0.046 C 
ATOM     30  C   UNL     1      48.821  17.826  18.724  0.00  0.00    -0.052 C 
ATOM     31  C   UNL     1      49.567  17.347  17.702  0.00  0.00    +0.017 C 
ATOM     34  C   UNL     1      50.660  18.105  17.213  0.00  0.00    +0.388 C 
ATOM     35  O   UNL     1      51.340  17.676  16.291  0.00  0.00    -0.474 OA
ENDROOT
BRANCH   3   2
ATOM      1  C   UNL     1      51.604  21.238  16.317  0.00  0.00    +0.027 C 
ATOM      2  C   UNL     1      52.125  20.159  17.268  0.00  0.00    +0.037 C 
ATOM     36  C   UNL     1      52.859  20.820  18.437  0.00  0.00    +0.027 C 
ENDBRANCH   3   2
BRANCH  31  32
ATOM     32  O   UNL     1      49.265  16.144  17.143  0.00  0.00    -0.460 OA
ATOM     33  H   UNL     1      49.657  16.007  16.268  0.00  0.00    +0.399 HD
ENDBRANCH  31  32
BRANCH  12  13
ATOM     13  O   UNL     1      45.935  14.805  19.108  0.00  0.00    -0.315 OA
BRANCH  13  14
ATOM     14  C   UNL     1      45.533  13.591  18.685  0.00  0.00    +0.498 C 
ATOM     25  O   UNL     1      44.648  13.004  19.274  0.00  0.00    -0.496 OA
BRANCH  14  15
ATOM     15  C   UNL     1      46.169  12.973  17.506  0.00  0.00    -0.123 A 
ATOM     16  C   UNL     1      45.667  11.776  16.987  0.00  0.00    +0.090 A 
ATOM     17  C   UNL     1      46.261  11.200  15.886  0.00  0.00    +0.003 A 
ATOM     18  C   UNL     1      47.360  11.805  15.290  0.00  0.00    +0.122 A 
ATOM     21  C   UNL     1      47.866  12.998  15.803  0.00  0.00    +0.071 A 
ATOM     24  C   UNL     1      47.271  13.584  16.902  0.00  0.00    +0.085 A 
BRANCH  18  19
ATOM     19  O   UNL     1      47.942  11.232  14.205  0.00  0.00    -0.485 OA
ATOM     20  H   UNL     1      48.100  11.845  13.473  0.00  0.00    +0.396 HD
ENDBRANCH  18  19
BRANCH  21  22
ATOM     22  O   UNL     1      48.943  13.587  15.216  0.00  0.00    -0.482 OA
ATOM     23  H   UNL     1      49.784  13.386  15.648  0.00  0.00    +0.391 HD
ENDBRANCH  21  22
ENDBRANCH  14  15
ENDBRANCH  13  14
ENDBRANCH  12  13
TORSDOF 7
ENDMDL
MODEL 4
REMARK VINA RESULT:      -6.6      3.173      7.056
REMARK  Name = ZINC85967772
REMARK  12 active torsions:
REMARK  status: ('A' for Active; 'I' for Inactive)
REMARK    1  A    between atoms: C1_1  and  C2_2
REMARK    2  A    between atoms: C2_2  and  C3_3
REMARK    3  A    between atoms: C2_2  and  C4_4
REMARK    4  A    between atoms: C10_10  and  C27_34
REMARK    5  A    between atoms: C12_12  and  O2_15
REMARK    6  A    between atoms: C15_17  and  O3_23
REMARK    7  A    between atoms: C17_20  and  C18_21
REMARK    8  A    between atoms: C17_20  and  C19_22
REMARK    9  A    between atoms: O3_23  and  C20_24
REMARK   10  A    between atoms: C20_24  and  C21_26
REMARK   11  A    between atoms: C24_29  and  O6_33
REMARK   12  A    between atoms: C25_30  and  O5_32
REMARK                            x       y       z     vdW  Elec       q    Type
REMARK                         _______ _______ _______ _____ _____    ______ ____
ROOT
ATOM      3  C   UNL     1      50.663  19.580  18.108  0.00  0.00    -0.195 C 
ATOM      4  C   UNL     1      49.714  20.427  18.575  0.00  0.00    +0.109 C 
ATOM      5  C   UNL     1      48.551  19.913  19.199  0.00  0.00    -0.118 C 
ATOM      6  C   UNL     1      47.577  20.777  19.697  0.00  0.00    +0.149 C 
ATOM      7  C   UNL     1      46.425  20.327  20.351  0.00  0.00    -0.050 C 
ATOM      8  C   UNL     1      46.159  19.025  20.511  0.00  0.00    -0.007 C 
ATOM      9  C   UNL     1      47.117  17.994  19.949  0.00  0.00    +0.016 C 
ATOM     10  C   UNL     1      46.363  17.161  18.910  0.00  0.00    +0.069 C 
ATOM     11  C   UNL     1      47.509  17.086  21.115  0.00  0.00    +0.080 C 
ATOM     12  C   UNL     1      46.248  16.479  21.732  0.00  0.00    +0.180 C 
ATOM     26  C   UNL     1      45.379  17.577  22.345  0.00  0.00    +0.039 C 
ATOM     27  C   UNL     1      44.932  18.551  21.247  0.00  0.00    -0.025 C 
ATOM     28  C   UNL     1      44.214  19.745  21.877  0.00  0.00    +0.044 C 
ATOM     29  C   UNL     1      43.993  17.836  20.275  0.00  0.00    +0.046 C 
ATOM     30  C   UNL     1      48.382  18.509  19.309  0.00  0.00    -0.052 C 
ATOM     31  C   UNL     1      49.331  17.664  18.844  0.00  0.00    +0.017 C 
ATOM     34  C   UNL     1      50.496  18.186  18.229  0.00  0.00    +0.388 C 
ATOM     35  O   UNL     1      51.360  17.427  17.810  0.00  0.00    -0.474 OA
ENDROOT
BRANCH   3   2
ATOM      1  C   UNL     1      51.502  21.206  16.434  0.00  0.00    +0.027 C 
ATOM      2  C   UNL     1      51.901  20.132  17.447  0.00  0.00    +0.037 C 
ATOM     36  C   UNL     1      52.815  20.746  18.509  0.00  0.00    +0.027 C 
ENDBRANCH   3   2
BRANCH  31  32
ATOM     32  O   UNL     1      49.163  16.319  18.962  0.00  0.00    -0.460 OA
ATOM     33  H   UNL     1      49.990  15.829  19.076  0.00  0.00    +0.399 HD
ENDBRANCH  31  32
BRANCH  12  13
ATOM     13  O   UNL     1      45.504  15.801  20.717  0.00  0.00    -0.315 OA
BRANCH  13  14
ATOM     14  C   UNL     1      45.438  14.458  20.800  0.00  0.00    +0.498 C 
ATOM     25  O   UNL     1      44.932  13.933  21.771  0.00  0.00    -0.496 OA
BRANCH  14  15
ATOM     15  C   UNL     1      45.982  13.624  19.712  0.00  0.00    -0.123 A 
ATOM     16  C   UNL     1      47.319  13.217  19.743  0.00  0.00    +0.090 A 
ATOM     17  C   UNL     1      47.826  12.438  18.726  0.00  0.00    +0.003 A 
ATOM     18  C   UNL     1      47.012  12.056  17.669  0.00  0.00    +0.122 A 
ATOM     21  C   UNL     1      45.678  12.459  17.631  0.00  0.00    +0.071 A 
ATOM     24  C   UNL     1      45.162  13.234  18.650  0.00  0.00    +0.085 A 
BRANCH  18  19
ATOM     19  O   UNL     1      47.517  11.288  16.669  0.00  0.00    -0.485 OA
ATOM     20  H   UNL     1      46.891  10.642  16.314  0.00  0.00    +0.396 HD
ENDBRANCH  18  19
BRANCH  21  22
ATOM     22  O   UNL     1      44.884  12.082  16.593  0.00  0.00    -0.482 OA
ATOM     23  H   UNL     1      44.193  11.451  16.835  0.00  0.00    +0.391 HD
ENDBRANCH  21  22
ENDBRANCH  14  15
ENDBRANCH  13  14
ENDBRANCH  12  13
TORSDOF 7
ENDMDL
MODEL 5
REMARK VINA RESULT:      -6.3      2.722      3.515
REMARK  Name = ZINC85967772
REMARK  12 active torsions:
REMARK  status: ('A' for Active; 'I' for Inactive)
REMARK    1  A    between atoms: C1_1  and  C2_2
REMARK    2  A    between atoms: C2_2  and  C3_3
REMARK    3  A    between atoms: C2_2  and  C4_4
REMARK    4  A    between atoms: C10_10  and  C27_34
REMARK    5  A    between atoms: C12_12  and  O2_15
REMARK    6  A    between atoms: C15_17  and  O3_23
REMARK    7  A    between atoms: C17_20  and  C18_21
REMARK    8  A    between atoms: C17_20  and  C19_22
REMARK    9  A    between atoms: O3_23  and  C20_24
REMARK   10  A    between atoms: C20_24  and  C21_26
REMARK   11  A    between atoms: C24_29  and  O6_33
REMARK   12  A    between atoms: C25_30  and  O5_32
REMARK                            x       y       z     vdW  Elec       q    Type
REMARK                         _______ _______ _______ _____ _____    ______ ____
ROOT
ATOM      3  C   UNL     1      50.095  13.874  16.731  0.00  0.00    -0.195 C 
ATOM      4  C   UNL     1      51.018  14.833  16.472  0.00  0.00    +0.109 C 
ATOM      5  C   UNL     1      50.918  16.100  17.096  0.00  0.00    -0.118 C 
ATOM      6  C   UNL     1      51.872  17.085  16.848  0.00  0.00    +0.149 C 
ATOM      7  C   UNL     1      51.840  18.343  17.460  0.00  0.00    -0.050 C 
ATOM      8  C   UNL     1      50.867  18.700  18.306  0.00  0.00    -0.007 C 
ATOM      9  C   UNL     1      49.739  17.730  18.597  0.00  0.00    +0.016 C 
ATOM     10  C   UNL     1      48.429  18.372  18.138  0.00  0.00    +0.069 C 
ATOM     11  C   UNL     1      49.697  17.561  20.116  0.00  0.00    +0.080 C 
ATOM     12  C   UNL     1      49.513  18.929  20.775  0.00  0.00    +0.180 C 
ATOM     26  C   UNL     1      50.728  19.815  20.498  0.00  0.00    +0.039 C 
ATOM     27  C   UNL     1      50.861  20.045  18.987  0.00  0.00    -0.025 C 
ATOM     28  C   UNL     1      52.170  20.779  18.690  0.00  0.00    +0.044 C 
ATOM     29  C   UNL     1      49.677  20.873  18.485  0.00  0.00    +0.046 C 
ATOM     30  C   UNL     1      49.835  16.360  17.974  0.00  0.00    -0.052 C 
ATOM     31  C   UNL     1      48.916  15.402  18.235  0.00  0.00    +0.017 C 
ATOM     34  C   UNL     1      49.028  14.133  17.614  0.00  0.00    +0.388 C 
ATOM     35  O   UNL     1      48.201  13.262  17.847  0.00  0.00    -0.474 OA
ENDROOT
BRANCH   3   2
ATOM      1  C   UNL     1      50.404  12.714  14.561  0.00  0.00    +0.027 C 
ATOM      2  C   UNL     1      50.207  12.526  16.066  0.00  0.00    +0.037 C 
ATOM     36  C   UNL     1      51.404  11.769  16.647  0.00  0.00    +0.027 C 
ENDBRANCH   3   2
BRANCH  31  32
ATOM     32  O   UNL     1      47.886  15.659  19.086  0.00  0.00    -0.460 OA
ATOM     33  H   UNL     1      47.011  15.578  18.680  0.00  0.00    +0.399 HD
ENDBRANCH  31  32
BRANCH  12  13
ATOM     13  O   UNL     1      48.343  19.556  20.246  0.00  0.00    -0.315 OA
BRANCH  13  14
ATOM     14  C   UNL     1      47.526  20.167  21.126  0.00  0.00    +0.498 C 
ATOM     25  O   UNL     1      47.618  19.924  22.312  0.00  0.00    -0.496 OA
BRANCH  14  15
ATOM     15  C   UNL     1      46.517  21.132  20.648  0.00  0.00    -0.123 A 
ATOM     16  C   UNL     1      46.003  21.024  19.353  0.00  0.00    +0.090 A 
ATOM     17  C   UNL     1      45.061  21.925  18.908  0.00  0.00    +0.003 A 
ATOM     18  C   UNL     1      44.621  22.943  19.744  0.00  0.00    +0.122 A 
ATOM     21  C   UNL     1      45.130  23.057  21.036  0.00  0.00    +0.071 A 
ATOM     24  C   UNL     1      46.069  22.153  21.490  0.00  0.00    +0.085 A 
BRANCH  18  19
ATOM     19  O   UNL     1      43.693  23.829  19.300  0.00  0.00    -0.485 OA
ATOM     20  H   UNL     1      43.959  24.755  19.388  0.00  0.00    +0.396 HD
ENDBRANCH  18  19
BRANCH  21  22
ATOM     22  O   UNL     1      44.696  24.056  21.852  0.00  0.00    -0.482 OA
ATOM     23  H   UNL     1      43.805  24.370  21.648  0.00  0.00    +0.391 HD
ENDBRANCH  21  22
ENDBRANCH  14  15
ENDBRANCH  13  14
ENDBRANCH  12  13
TORSDOF 7
ENDMDL
MODEL 6
REMARK VINA RESULT:      -6.3      1.791      2.335
REMARK  Name = ZINC85967772
REMARK  12 active torsions:
REMARK  status: ('A' for Active; 'I' for Inactive)
REMARK    1  A    between atoms: C1_1  and  C2_2
REMARK    2  A    between atoms: C2_2  and  C3_3
REMARK    3  A    between atoms: C2_2  and  C4_4
REMARK    4  A    between atoms: C10_10  and  C27_34
REMARK    5  A    between atoms: C12_12  and  O2_15
REMARK    6  A    between atoms: C15_17  and  O3_23
REMARK    7  A    between atoms: C17_20  and  C18_21
REMARK    8  A    between atoms: C17_20  and  C19_22
REMARK    9  A    between atoms: O3_23  and  C20_24
REMARK   10  A    between atoms: C20_24  and  C21_26
REMARK   11  A    between atoms: C24_29  and  O6_33
REMARK   12  A    between atoms: C25_30  and  O5_32
REMARK                            x       y       z     vdW  Elec       q    Type
REMARK                         _______ _______ _______ _____ _____    ______ ____
ROOT
ATOM      3  C   UNL     1      48.221  13.884  16.729  0.00  0.00    -0.195 C 
ATOM      4  C   UNL     1      49.309  14.693  16.720  0.00  0.00    +0.109 C 
ATOM      5  C   UNL     1      49.274  15.933  17.401  0.00  0.00    -0.118 C 
ATOM      6  C   UNL     1      50.394  16.764  17.412  0.00  0.00    +0.149 C 
ATOM      7  C   UNL     1      50.427  17.985  18.094  0.00  0.00    -0.050 C 
ATOM      8  C   UNL     1      49.367  18.458  18.760  0.00  0.00    -0.007 C 
ATOM      9  C   UNL     1      48.073  17.669  18.760  0.00  0.00    +0.016 C 
ATOM     10  C   UNL     1      46.991  18.529  18.103  0.00  0.00    +0.069 C 
ATOM     11  C   UNL     1      47.702  17.448  20.226  0.00  0.00    +0.080 C 
ATOM     12  C   UNL     1      47.593  18.800  20.932  0.00  0.00    +0.180 C 
ATOM     26  C   UNL     1      48.956  19.492  20.958  0.00  0.00    +0.039 C 
ATOM     27  C   UNL     1      49.423  19.758  19.521  0.00  0.00    -0.025 C 
ATOM     28  C   UNL     1      50.859  20.286  19.534  0.00  0.00    +0.044 C 
ATOM     29  C   UNL     1      48.501  20.783  18.860  0.00  0.00    +0.046 C 
ATOM     30  C   UNL     1      48.088  16.327  18.071  0.00  0.00    -0.052 C 
ATOM     31  C   UNL     1      47.003  15.518  18.081  0.00  0.00    +0.017 C 
ATOM     34  C   UNL     1      47.049  14.274  17.406  0.00  0.00    +0.388 C 
ATOM     35  O   UNL     1      46.072  13.536  17.414  0.00  0.00    -0.474 OA
ENDROOT
BRANCH   3   2
ATOM      1  C   UNL     1      48.028  12.792  14.511  0.00  0.00    +0.027 C 
ATOM      2  C   UNL     1      48.264  12.562  16.004  0.00  0.00    +0.037 C 
ATOM     36  C   UNL     1      49.633  11.911  16.211  0.00  0.00    +0.027 C 
ENDBRANCH   3   2
BRANCH  31  32
ATOM     32  O   UNL     1      45.873  15.901  18.735  0.00  0.00    -0.460 OA
ATOM     33  H   UNL     1      46.038  16.446  19.518  0.00  0.00    +0.399 HD
ENDBRANCH  31  32
BRANCH  12  13
ATOM     13  O   UNL     1      46.659  19.626  20.234  0.00  0.00    -0.315 OA
BRANCH  13  14
ATOM     14  C   UNL     1      45.742  20.275  20.977  0.00  0.00    +0.498 C 
ATOM     25  O   UNL     1      46.032  21.319  21.525  0.00  0.00    -0.496 OA
BRANCH  14  15
ATOM     15  C   UNL     1      44.384  19.718  21.125  0.00  0.00    -0.123 A 
ATOM     16  C   UNL     1      44.039  19.013  22.282  0.00  0.00    +0.090 A 
ATOM     17  C   UNL     1      42.771  18.493  22.419  0.00  0.00    +0.003 A 
ATOM     18  C   UNL     1      41.833  18.666  21.409  0.00  0.00    +0.122 A 
ATOM     21  C   UNL     1      42.171  19.367  20.253  0.00  0.00    +0.071 A 
ATOM     24  C   UNL     1      43.438  19.896  20.112  0.00  0.00    +0.085 A 
BRANCH  18  19
ATOM     19  O   UNL     1      40.585  18.151  21.550  0.00  0.00    -0.485 OA
ATOM     20  H   UNL     1      40.238  17.736  20.748  0.00  0.00    +0.396 HD
ENDBRANCH  18  19
BRANCH  21  22
ATOM     22  O   UNL     1      41.250  19.534  19.266  0.00  0.00    -0.482 OA
ATOM     23  H   UNL     1      40.783  18.723  19.023  0.00  0.00    +0.391 HD
ENDBRANCH  21  22
ENDBRANCH  14  15
ENDBRANCH  13  14
ENDBRANCH  12  13
TORSDOF 7
ENDMDL
MODEL 7
REMARK VINA RESULT:      -6.1      2.506      3.760
REMARK  Name = ZINC85967772
REMARK  12 active torsions:
REMARK  status: ('A' for Active; 'I' for Inactive)
REMARK    1  A    between atoms: C1_1  and  C2_2
REMARK    2  A    between atoms: C2_2  and  C3_3
REMARK    3  A    between atoms: C2_2  and  C4_4
REMARK    4  A    between atoms: C10_10  and  C27_34
REMARK    5  A    between atoms: C12_12  and  O2_15
REMARK    6  A    between atoms: C15_17  and  O3_23
REMARK    7  A    between atoms: C17_20  and  C18_21
REMARK    8  A    between atoms: C17_20  and  C19_22
REMARK    9  A    between atoms: O3_23  and  C20_24
REMARK   10  A    between atoms: C20_24  and  C21_26
REMARK   11  A    between atoms: C24_29  and  O6_33
REMARK   12  A    between atoms: C25_30  and  O5_32
REMARK                            x       y       z     vdW  Elec       q    Type
REMARK                         _______ _______ _______ _____ _____    ______ ____
ROOT
ATOM      3  C   UNL     1      49.765  12.870  14.806  0.00  0.00    -0.195 C 
ATOM      4  C   UNL     1      50.685  13.518  15.560  0.00  0.00    +0.109 C 
ATOM      5  C   UNL     1      50.268  14.348  16.629  0.00  0.00    -0.118 C 
ATOM      6  C   UNL     1      51.208  15.006  17.420  0.00  0.00    +0.149 C 
ATOM      7  C   UNL     1      50.854  15.812  18.507  0.00  0.00    -0.050 C 
ATOM      8  C   UNL     1      49.579  16.037  18.843  0.00  0.00    -0.007 C 
ATOM      9  C   UNL     1      48.470  15.426  18.010  0.00  0.00    +0.016 C 
ATOM     10  C   UNL     1      47.638  16.564  17.416  0.00  0.00    +0.069 C 
ATOM     11  C   UNL     1      47.593  14.629  18.976  0.00  0.00    +0.080 C 
ATOM     12  C   UNL     1      47.087  15.554  20.083  0.00  0.00    +0.180 C 
ATOM     26  C   UNL     1      48.259  16.062  20.923  0.00  0.00    +0.039 C 
ATOM     27  C   UNL     1      49.209  16.879  20.037  0.00  0.00    -0.025 C 
ATOM     28  C   UNL     1      50.469  17.238  20.825  0.00  0.00    +0.044 C 
ATOM     29  C   UNL     1      48.508  18.156  19.570  0.00  0.00    +0.046 C 
ATOM     30  C   UNL     1      48.883  14.508  16.885  0.00  0.00    -0.052 C 
ATOM     31  C   UNL     1      47.964  13.859  16.133  0.00  0.00    +0.017 C 
ATOM     34  C   UNL     1      48.390  13.023  15.072  0.00  0.00    +0.388 C 
ATOM     35  O   UNL     1      47.565  12.430  14.390  0.00  0.00    -0.474 OA
ENDROOT
BRANCH   3   2
ATOM      1  C   UNL     1      50.772  12.850  12.539  0.00  0.00    +0.027 C 
ATOM      2  C   UNL     1      50.215  11.985  13.671  0.00  0.00    +0.037 C 
ATOM     36  C   UNL     1      51.303  11.031  14.168  0.00  0.00    +0.027 C 
ENDBRANCH   3   2
BRANCH  31  32
ATOM     32  O   UNL     1      46.638  14.012  16.394  0.00  0.00    -0.460 OA
ATOM     33  H   UNL     1      46.449  14.378  17.270  0.00  0.00    +0.399 HD
ENDBRANCH  31  32
BRANCH  12  13
ATOM     13  O   UNL     1      46.410  16.669  19.498  0.00  0.00    -0.315 OA
BRANCH  13  14
ATOM     14  C   UNL     1      45.193  16.972  19.988  0.00  0.00    +0.498 C 
ATOM     25  O   UNL     1      44.563  16.141  20.610  0.00  0.00    -0.496 OA
BRANCH  14  15
ATOM     15  C   UNL     1      44.623  18.316  19.769  0.00  0.00    -0.123 A 
ATOM     16  C   UNL     1      43.298  18.581  20.126  0.00  0.00    +0.090 A 
ATOM     17  C   UNL     1      42.767  19.835  19.921  0.00  0.00    +0.003 A 
ATOM     18  C   UNL     1      43.546  20.838  19.360  0.00  0.00    +0.122 A 
ATOM     21  C   UNL     1      44.867  20.581  19.001  0.00  0.00    +0.071 A 
ATOM     24  C   UNL     1      45.408  19.328  19.209  0.00  0.00    +0.085 A 
BRANCH  18  19
ATOM     19  O   UNL     1      43.017  22.073  19.160  0.00  0.00    -0.485 OA
ATOM     20  H   UNL     1      42.608  22.458  19.947  0.00  0.00    +0.396 HD
ENDBRANCH  18  19
BRANCH  21  22
ATOM     22  O   UNL     1      45.626  21.566  18.451  0.00  0.00    -0.482 OA
ATOM     23  H   UNL     1      46.035  22.156  19.099  0.00  0.00    +0.391 HD
ENDBRANCH  21  22
ENDBRANCH  14  15
ENDBRANCH  13  14
ENDBRANCH  12  13
TORSDOF 7
ENDMDL
MODEL 8
REMARK VINA RESULT:      -6.0      4.586      8.479
REMARK  Name = ZINC85967772
REMARK  12 active torsions:
REMARK  status: ('A' for Active; 'I' for Inactive)
REMARK    1  A    between atoms: C1_1  and  C2_2
REMARK    2  A    between atoms: C2_2  and  C3_3
REMARK    3  A    between atoms: C2_2  and  C4_4
REMARK    4  A    between atoms: C10_10  and  C27_34
REMARK    5  A    between atoms: C12_12  and  O2_15
REMARK    6  A    between atoms: C15_17  and  O3_23
REMARK    7  A    between atoms: C17_20  and  C18_21
REMARK    8  A    between atoms: C17_20  and  C19_22
REMARK    9  A    between atoms: O3_23  and  C20_24
REMARK   10  A    between atoms: C20_24  and  C21_26
REMARK   11  A    between atoms: C24_29  and  O6_33
REMARK   12  A    between atoms: C25_30  and  O5_32
REMARK                            x       y       z     vdW  Elec       q    Type
REMARK                         _______ _______ _______ _____ _____    ______ ____
ROOT
ATOM      3  C   UNL     1      50.361  19.822  18.284  0.00  0.00    -0.195 C 
ATOM      4  C   UNL     1      49.271  19.828  19.091  0.00  0.00    +0.109 C 
ATOM      5  C   UNL     1      48.561  18.627  19.332  0.00  0.00    -0.118 C 
ATOM      6  C   UNL     1      47.450  18.622  20.173  0.00  0.00    +0.149 C 
ATOM      7  C   UNL     1      46.730  17.459  20.472  0.00  0.00    -0.050 C 
ATOM      8  C   UNL     1      47.040  16.272  19.939  0.00  0.00    -0.007 C 
ATOM      9  C   UNL     1      48.190  16.173  18.957  0.00  0.00    +0.016 C 
ATOM     10  C   UNL     1      47.632  15.687  17.618  0.00  0.00    +0.069 C 
ATOM     11  C   UNL     1      49.139  15.108  19.509  0.00  0.00    +0.080 C 
ATOM     12  C   UNL     1      48.377  13.795  19.693  0.00  0.00    +0.180 C 
ATOM     26  C   UNL     1      47.291  13.961  20.755  0.00  0.00    +0.039 C 
ATOM     27  C   UNL     1      46.280  15.020  20.294  0.00  0.00    -0.025 C 
ATOM     28  C   UNL     1      45.293  15.319  21.425  0.00  0.00    +0.044 C 
ATOM     29  C   UNL     1      45.523  14.511  19.067  0.00  0.00    +0.046 C 
ATOM     30  C   UNL     1      48.988  17.428  18.706  0.00  0.00    -0.052 C 
ATOM     31  C   UNL     1      50.076  17.422  17.902  0.00  0.00    +0.017 C 
ATOM     34  C   UNL     1      50.788  18.626  17.674  0.00  0.00    +0.388 C 
ATOM     35  O   UNL     1      51.775  18.627  16.951  0.00  0.00    -0.474 OA
ENDROOT
BRANCH   3   2
ATOM      1  C   UNL     1      52.427  21.084  18.818  0.00  0.00    +0.027 C 
ATOM      2  C   UNL     1      51.115  21.103  18.033  0.00  0.00    +0.037 C 
ATOM     36  C   UNL     1      51.416  21.232  16.538  0.00  0.00    +0.027 C 
ENDBRANCH   3   2
BRANCH  31  32
ATOM     32  O   UNL     1      50.483  16.265  17.314  0.00  0.00    -0.460 OA
ATOM     33  H   UNL     1      50.065  15.471  17.678  0.00  0.00    +0.399 HD
ENDBRANCH  31  32
BRANCH  12  13
ATOM     13  O   UNL     1      47.771  13.421  18.454  0.00  0.00    -0.315 OA
BRANCH  13  14
ATOM     14  C   UNL     1      48.290  12.353  17.817  0.00  0.00    +0.498 C 
ATOM     25  O   UNL     1      48.411  11.296  18.402  0.00  0.00    -0.496 OA
BRANCH  14  15
ATOM     15  C   UNL     1      48.712  12.468  16.408  0.00  0.00    -0.123 A 
ATOM     16  C   UNL     1      50.071  12.473  16.082  0.00  0.00    +0.090 A 
ATOM     17  C   UNL     1      50.464  12.581  14.767  0.00  0.00    +0.003 A 
ATOM     18  C   UNL     1      49.511  12.684  13.761  0.00  0.00    +0.122 A 
ATOM     21  C   UNL     1      48.154  12.680  14.078  0.00  0.00    +0.071 A 
ATOM     24  C   UNL     1      47.754  12.566  15.395  0.00  0.00    +0.085 A 
BRANCH  18  19
ATOM     19  O   UNL     1      49.904  12.790  12.466  0.00  0.00    -0.485 OA
ATOM     20  H   UNL     1      49.697  13.643  12.060  0.00  0.00    +0.396 HD
ENDBRANCH  18  19
BRANCH  21  22
ATOM     22  O   UNL     1      47.225  12.782  13.091  0.00  0.00    -0.482 OA
ATOM     23  H   UNL     1      47.353  13.542  12.507  0.00  0.00    +0.391 HD
ENDBRANCH  21  22
ENDBRANCH  14  15
ENDBRANCH  13  14
ENDBRANCH  12  13
TORSDOF 7
ENDMDL
MODEL 9
REMARK VINA RESULT:      -5.6      5.023      9.169
REMARK  Name = ZINC85967772
REMARK  12 active torsions:
REMARK  status: ('A' for Active; 'I' for Inactive)
REMARK    1  A    between atoms: C1_1  and  C2_2
REMARK    2  A    between atoms: C2_2  and  C3_3
REMARK    3  A    between atoms: C2_2  and  C4_4
REMARK    4  A    between atoms: C10_10  and  C27_34
REMARK    5  A    between atoms: C12_12  and  O2_15
REMARK    6  A    between atoms: C15_17  and  O3_23
REMARK    7  A    between atoms: C17_20  and  C18_21
REMARK    8  A    between atoms: C17_20  and  C19_22
REMARK    9  A    between atoms: O3_23  and  C20_24
REMARK   10  A    between atoms: C20_24  and  C21_26
REMARK   11  A    between atoms: C24_29  and  O6_33
REMARK   12  A    between atoms: C25_30  and  O5_32
REMARK                            x       y       z     vdW  Elec       q    Type
REMARK                         _______ _______ _______ _____ _____    ______ ____
ROOT
ATOM      3  C   UNL     1      50.510  18.700  17.875  0.00  0.00    -0.195 C 
ATOM      4  C   UNL     1      49.512  18.753  18.791  0.00  0.00    +0.109 C 
ATOM      5  C   UNL     1      48.752  17.594  19.080  0.00  0.00    -0.118 C 
ATOM      6  C   UNL     1      47.735  17.637  20.031  0.00  0.00    +0.149 C 
ATOM      7  C   UNL     1      46.974  16.515  20.380  0.00  0.00    -0.050 C 
ATOM      8  C   UNL     1      47.149  15.325  19.794  0.00  0.00    -0.007 C 
ATOM      9  C   UNL     1      48.184  15.179  18.695  0.00  0.00    +0.016 C 
ATOM     10  C   UNL     1      47.460  14.767  17.412  0.00  0.00    +0.069 C 
ATOM     11  C   UNL     1      49.111  14.042  19.124  0.00  0.00    +0.080 C 
ATOM     12  C   UNL     1      48.288  12.776  19.359  0.00  0.00    +0.180 C 
ATOM     26  C   UNL     1      47.328  12.981  20.532  0.00  0.00    +0.039 C 
ATOM     27  C   UNL     1      46.348  14.115  20.200  0.00  0.00    -0.025 C 
ATOM     28  C   UNL     1      45.504  14.445  21.432  0.00  0.00    +0.044 C 
ATOM     29  C   UNL     1      45.438  13.688  19.048  0.00  0.00    +0.046 C 
ATOM     30  C   UNL     1      49.033  16.388  18.388  0.00  0.00    -0.052 C 
ATOM     31  C   UNL     1      50.031  16.334  17.476  0.00  0.00    +0.017 C 
ATOM     34  C   UNL     1      50.793  17.496  17.199  0.00  0.00    +0.388 C 
ATOM     35  O   UNL     1      51.699  17.454  16.378  0.00  0.00    -0.474 OA
ENDROOT
BRANCH   3   2
ATOM      1  C   UNL     1      50.506  21.179  17.943  0.00  0.00    +0.027 C 
ATOM      2  C   UNL     1      51.318  19.937  17.573  0.00  0.00    +0.037 C 
ATOM     36  C   UNL     1      52.613  19.911  18.388  0.00  0.00    +0.027 C 
ENDBRANCH   3   2
BRANCH  31  32
ATOM     32  O   UNL     1      50.298  15.170  16.825  0.00  0.00    -0.460 OA
ATOM     33  H   UNL     1      50.471  15.280  15.879  0.00  0.00    +0.399 HD
ENDBRANCH  31  32
BRANCH  12  13
ATOM     13  O   UNL     1      47.535  12.475  18.182  0.00  0.00    -0.315 OA
BRANCH  13  14
ATOM     14  C   UNL     1      47.919  11.399  17.468  0.00  0.00    +0.498 C 
ATOM     25  O   UNL     1      47.251  10.386  17.488  0.00  0.00    -0.496 OA
BRANCH  14  15
ATOM     15  C   UNL     1      49.154  11.453  16.662  0.00  0.00    -0.123 A 
ATOM     16  C   UNL     1      49.125  11.989  15.371  0.00  0.00    +0.090 A 
ATOM     17  C   UNL     1      50.278  12.037  14.620  0.00  0.00    +0.003 A 
ATOM     18  C   UNL     1      51.471  11.554  15.141  0.00  0.00    +0.122 A 
ATOM     21  C   UNL     1      51.507  11.018  16.426  0.00  0.00    +0.071 A 
ATOM     24  C   UNL     1      50.356  10.972  17.188  0.00  0.00    +0.085 A 
BRANCH  18  19
ATOM     19  O   UNL     1      52.605  11.605  14.395  0.00  0.00    -0.485 OA
ATOM     20  H   UNL     1      53.411  11.740  14.912  0.00  0.00    +0.396 HD
ENDBRANCH  18  19
BRANCH  21  22
ATOM     22  O   UNL     1      52.678  10.545  16.933  0.00  0.00    -0.482 OA
ATOM     23  H   UNL     1      52.867   9.627  16.694  0.00  0.00    +0.391 HD
ENDBRANCH  21  22
ENDBRANCH  14  15
ENDBRANCH  13  14
ENDBRANCH  12  13
TORSDOF 7
ENDMDL
