MODEL 1
REMARK VINA RESULT:      -6.9      0.000      0.000
REMARK  Name = ZINC95486353
REMARK  11 active torsions:
REMARK  status: ('A' for Active; 'I' for Inactive)
REMARK    1  A    between atoms: C1_1  and  C2_2
REMARK    2  A    between atoms: C4_6  and  O4_13
REMARK    3  A    between atoms: C4_6  and  O5_14
REMARK    4  A    between atoms: C5_7  and  O3_12
REMARK    5  A    between atoms: C6_9  and  O2_11
REMARK    6  A    between atoms: O5_14  and  C7_15
REMARK    7  A    between atoms: C8_16  and  C17_28
REMARK    8  A    between atoms: C12_20  and  O8_27
REMARK    9  A    between atoms: C14_22  and  O7_26
REMARK   10  A    between atoms: C20_31  and  O10_35
REMARK   11  A    between atoms: C21_32  and  O9_34
REMARK                            x       y       z     vdW  Elec       q    Type
REMARK                         _______ _______ _______ _____ _____    ______ ____
ROOT
ATOM      7  C   UNL     1      48.153  19.038  19.597  0.00  0.00    -0.005 C 
ATOM      8  C   UNL     1      48.275  20.379  19.607  0.00  0.00    -0.019 C 
ATOM     19  C   UNL     1      49.442  21.110  19.026  0.00  0.00    +0.185 C 
ATOM     20  C   UNL     1      50.247  20.277  18.074  0.00  0.00    -0.004 A 
ATOM     21  C   UNL     1      51.114  20.899  17.199  0.00  0.00    -0.023 A 
ATOM     22  C   UNL     1      51.876  20.151  16.309  0.00  0.00    +0.166 A 
ATOM     25  C   UNL     1      51.779  18.767  16.290  0.00  0.00    -0.043 A 
ATOM     26  C   UNL     1      50.913  18.127  17.161  0.00  0.00    +0.194 A 
ATOM     29  C   UNL     1      50.140  18.884  18.052  0.00  0.00    -0.201 A 
ATOM     30  C   UNL     1      49.198  18.215  18.972  0.00  0.00    +0.416 C 
ATOM     31  O   UNL     1      49.281  17.021  19.202  0.00  0.00    -0.412 OA
ENDROOT
BRANCH   8   9
ATOM      9  C   UNL     1      47.200  21.168  20.224  0.00  0.00    -0.056 A 
ATOM     10  C   UNL     1      47.385  21.737  21.490  0.00  0.00    +0.042 A 
ATOM     11  C   UNL     1      46.376  22.476  22.066  0.00  0.00    +0.007 A 
ATOM     12  C   UNL     1      45.173  22.659  21.396  0.00  0.00    +0.092 A 
ATOM     15  C   UNL     1      44.981  22.095  20.135  0.00  0.00    +0.086 A 
ATOM     18  C   UNL     1      45.990  21.356  19.547  0.00  0.00    +0.042 A 
BRANCH  12  13
ATOM     13  O   UNL     1      44.182  23.389  21.969  0.00  0.00    -0.488 OA
ATOM     14  H   UNL     1      43.641  22.892  22.597  0.00  0.00    +0.390 HD
ENDBRANCH  12  13
BRANCH  15  16
ATOM     16  O   UNL     1      43.802  22.275  19.483  0.00  0.00    -0.487 OA
ATOM     17  H   UNL     1      43.888  22.316  18.520  0.00  0.00    +0.390 HD
ENDBRANCH  15  16
ENDBRANCH   8   9
BRANCH  22  23
ATOM     23  O   UNL     1      52.723  20.778  15.453  0.00  0.00    -0.493 OA
ATOM     24  H   UNL     1      52.467  20.706  14.524  0.00  0.00    +0.401 HD
ENDBRANCH  22  23
BRANCH  26  27
ATOM     27  O   UNL     1      50.813  16.774  17.151  0.00  0.00    -0.478 OA
ATOM     28  H   UNL     1      49.904  16.446  17.208  0.00  0.00    +0.402 HD
ENDBRANCH  26  27
BRANCH   7   6
ATOM      6  O   UNL     1      47.068  18.447  20.167  0.00  0.00    -0.315 OA
BRANCH   6   5
ATOM      1  C   UNL     1      42.999  17.533  21.885  0.00  0.00    +0.050 C 
ATOM      2  C   UNL     1      44.487  17.440  22.229  0.00  0.00    -0.039 C 
ATOM      3  C   UNL     1      45.118  18.833  22.152  0.00  0.00    +0.274 C 
ATOM      4  O   UNL     1      46.519  18.735  22.417  0.00  0.00    -0.397 OA
ATOM      5  C   UNL     1      47.234  17.921  21.485  0.00  0.00    +0.401 C 
ATOM     34  C   UNL     1      46.687  16.491  21.535  0.00  0.00    +0.193 C 
ATOM     37  C   UNL     1      45.187  16.513  21.230  0.00  0.00    +0.200 C 
BRANCH   5  32
ATOM     32  O   UNL     1      48.621  17.913  21.825  0.00  0.00    -0.533 OA
ATOM     33  H   UNL     1      49.124  17.200  21.410  0.00  0.00    +0.388 HD
ENDBRANCH   5  32
BRANCH  34  35
ATOM     35  O   UNL     1      47.362  15.688  20.565  0.00  0.00    -0.546 OA
ATOM     36  H   UNL     1      47.877  14.962  20.945  0.00  0.00    +0.389 HD
ENDBRANCH  34  35
BRANCH  37  38
ATOM     38  O   UNL     1      44.654  15.193  21.349  0.00  0.00    -0.552 OA
ATOM     39  H   UNL     1      44.034  14.955  20.646  0.00  0.00    +0.386 HD
ENDBRANCH  37  38
ENDBRANCH   6   5
ENDBRANCH   7   6
TORSDOF 10
ENDMDL
MODEL 2
REMARK VINA RESULT:      -6.3      2.679      7.415
REMARK  Name = ZINC95486353
REMARK  11 active torsions:
REMARK  status: ('A' for Active; 'I' for Inactive)
REMARK    1  A    between atoms: C1_1  and  C2_2
REMARK    2  A    between atoms: C4_6  and  O4_13
REMARK    3  A    between atoms: C4_6  and  O5_14
REMARK    4  A    between atoms: C5_7  and  O3_12
REMARK    5  A    between atoms: C6_9  and  O2_11
REMARK    6  A    between atoms: O5_14  and  C7_15
REMARK    7  A    between atoms: C8_16  and  C17_28
REMARK    8  A    between atoms: C12_20  and  O8_27
REMARK    9  A    between atoms: C14_22  and  O7_26
REMARK   10  A    between atoms: C20_31  and  O10_35
REMARK   11  A    between atoms: C21_32  and  O9_34
REMARK                            x       y       z     vdW  Elec       q    Type
REMARK                         _______ _______ _______ _____ _____    ______ ____
ROOT
ATOM      7  C   UNL     1      44.639  19.773  20.233  0.00  0.00    -0.005 C 
ATOM      8  C   UNL     1      43.803  18.720  20.314  0.00  0.00    -0.019 C 
ATOM     19  C   UNL     1      42.318  18.827  20.190  0.00  0.00    +0.185 C 
ATOM     20  C   UNL     1      41.869  20.111  19.559  0.00  0.00    -0.004 A 
ATOM     21  C   UNL     1      40.589  20.203  19.052  0.00  0.00    -0.023 A 
ATOM     22  C   UNL     1      40.144  21.383  18.466  0.00  0.00    +0.166 A 
ATOM     25  C   UNL     1      40.981  22.486  18.385  0.00  0.00    -0.043 A 
ATOM     26  C   UNL     1      42.269  22.411  18.887  0.00  0.00    +0.194 A 
ATOM     29  C   UNL     1      42.717  21.218  19.471  0.00  0.00    -0.201 A 
ATOM     30  C   UNL     1      44.096  21.117  19.992  0.00  0.00    +0.416 C 
ATOM     31  O   UNL     1      44.762  22.115  20.210  0.00  0.00    -0.412 OA
ENDROOT
BRANCH   8   9
ATOM      9  C   UNL     1      44.386  17.389  20.537  0.00  0.00    -0.056 A 
ATOM     10  C   UNL     1      44.205  16.740  21.764  0.00  0.00    +0.042 A 
ATOM     11  C   UNL     1      44.752  15.493  21.971  0.00  0.00    +0.007 A 
ATOM     12  C   UNL     1      45.484  14.876  20.964  0.00  0.00    +0.092 A 
ATOM     15  C   UNL     1      45.670  15.516  19.740  0.00  0.00    +0.086 A 
ATOM     18  C   UNL     1      45.120  16.766  19.522  0.00  0.00    +0.042 A 
BRANCH  12  13
ATOM     13  O   UNL     1      46.022  13.647  21.174  0.00  0.00    -0.488 OA
ATOM     14  H   UNL     1      46.464  13.551  22.028  0.00  0.00    +0.390 HD
ENDBRANCH  12  13
BRANCH  15  16
ATOM     16  O   UNL     1      46.389  14.910  18.758  0.00  0.00    -0.487 OA
ATOM     17  H   UNL     1      45.868  14.669  17.981  0.00  0.00    +0.390 HD
ENDBRANCH  15  16
ENDBRANCH   8   9
BRANCH  22  23
ATOM     23  O   UNL     1      38.882  21.456  17.971  0.00  0.00    -0.493 OA
ATOM     24  H   UNL     1      38.191  21.354  18.640  0.00  0.00    +0.401 HD
ENDBRANCH  22  23
BRANCH  26  27
ATOM     27  O   UNL     1      43.093  23.485  18.813  0.00  0.00    -0.478 OA
ATOM     28  H   UNL     1      44.033  23.258  18.766  0.00  0.00    +0.402 HD
ENDBRANCH  26  27
BRANCH   7   6
ATOM      6  O   UNL     1      45.979  19.594  20.379  0.00  0.00    -0.315 OA
BRANCH   6   5
ATOM      1  C   UNL     1      50.185  17.970  20.491  0.00  0.00    +0.050 C 
ATOM      2  C   UNL     1      49.169  18.710  21.363  0.00  0.00    -0.039 C 
ATOM      3  C   UNL     1      47.896  17.869  21.492  0.00  0.00    +0.274 C 
ATOM      4  O   UNL     1      46.928  18.588  22.258  0.00  0.00    -0.397 OA
ATOM      5  C   UNL     1      46.528  19.831  21.676  0.00  0.00    +0.401 C 
ATOM     34  C   UNL     1      47.747  20.751  21.554  0.00  0.00    +0.193 C 
ATOM     37  C   UNL     1      48.822  20.054  20.715  0.00  0.00    +0.200 C 
BRANCH   5  32
ATOM     32  O   UNL     1      45.544  20.450  22.505  0.00  0.00    -0.533 OA
ATOM     33  H   UNL     1      45.913  20.968  23.233  0.00  0.00    +0.388 HD
ENDBRANCH   5  32
BRANCH  34  35
ATOM     35  O   UNL     1      47.361  21.972  20.922  0.00  0.00    -0.546 OA
ATOM     36  H   UNL     1      47.321  22.730  21.521  0.00  0.00    +0.389 HD
ENDBRANCH  34  35
BRANCH  37  38
ATOM     38  O   UNL     1      49.991  20.874  20.659  0.00  0.00    -0.552 OA
ATOM     39  H   UNL     1      49.901  21.719  21.120  0.00  0.00    +0.386 HD
ENDBRANCH  37  38
ENDBRANCH   6   5
ENDBRANCH   7   6
TORSDOF 10
ENDMDL
MODEL 3
REMARK VINA RESULT:      -6.1      2.213      6.178
REMARK  Name = ZINC95486353
REMARK  11 active torsions:
REMARK  status: ('A' for Active; 'I' for Inactive)
REMARK    1  A    between atoms: C1_1  and  C2_2
REMARK    2  A    between atoms: C4_6  and  O4_13
REMARK    3  A    between atoms: C4_6  and  O5_14
REMARK    4  A    between atoms: C5_7  and  O3_12
REMARK    5  A    between atoms: C6_9  and  O2_11
REMARK    6  A    between atoms: O5_14  and  C7_15
REMARK    7  A    between atoms: C8_16  and  C17_28
REMARK    8  A    between atoms: C12_20  and  O8_27
REMARK    9  A    between atoms: C14_22  and  O7_26
REMARK   10  A    between atoms: C20_31  and  O10_35
REMARK   11  A    between atoms: C21_32  and  O9_34
REMARK                            x       y       z     vdW  Elec       q    Type
REMARK                         _______ _______ _______ _____ _____    ______ ____
ROOT
ATOM      7  C   UNL     1      47.757  18.833  19.566  0.00  0.00    -0.005 C 
ATOM      8  C   UNL     1      48.051  20.104  19.232  0.00  0.00    -0.019 C 
ATOM     19  C   UNL     1      47.027  21.114  18.826  0.00  0.00    +0.185 C 
ATOM     20  C   UNL     1      45.631  20.732  19.219  0.00  0.00    -0.004 A 
ATOM     21  C   UNL     1      44.647  21.699  19.244  0.00  0.00    -0.023 A 
ATOM     22  C   UNL     1      43.344  21.371  19.599  0.00  0.00    +0.166 A 
ATOM     25  C   UNL     1      43.013  20.066  19.932  0.00  0.00    -0.043 A 
ATOM     26  C   UNL     1      43.988  19.083  19.914  0.00  0.00    +0.194 A 
ATOM     29  C   UNL     1      45.304  19.418  19.562  0.00  0.00    -0.201 A 
ATOM     30  C   UNL     1      46.358  18.383  19.559  0.00  0.00    +0.416 C 
ATOM     31  O   UNL     1      46.078  17.197  19.555  0.00  0.00    -0.412 OA
ENDROOT
BRANCH   8   9
ATOM      9  C   UNL     1      49.460  20.522  19.270  0.00  0.00    -0.056 A 
ATOM     10  C   UNL     1      50.094  20.742  20.498  0.00  0.00    +0.042 A 
ATOM     11  C   UNL     1      51.414  21.134  20.531  0.00  0.00    +0.007 A 
ATOM     12  C   UNL     1      52.120  21.311  19.348  0.00  0.00    +0.092 A 
ATOM     15  C   UNL     1      51.495  21.094  18.120  0.00  0.00    +0.086 A 
ATOM     18  C   UNL     1      50.172  20.696  18.078  0.00  0.00    +0.042 A 
BRANCH  12  13
ATOM     13  O   UNL     1      53.421  21.697  19.386  0.00  0.00    -0.488 OA
ATOM     14  H   UNL     1      53.650  22.374  18.736  0.00  0.00    +0.390 HD
ENDBRANCH  12  13
BRANCH  15  16
ATOM     16  O   UNL     1      52.189  21.270  16.964  0.00  0.00    -0.487 OA
ATOM     17  H   UNL     1      52.728  22.072  16.949  0.00  0.00    +0.390 HD
ENDBRANCH  15  16
ENDBRANCH   8   9
BRANCH  22  23
ATOM     23  O   UNL     1      42.388  22.335  19.620  0.00  0.00    -0.493 OA
ATOM     24  H   UNL     1      42.252  22.734  20.490  0.00  0.00    +0.401 HD
ENDBRANCH  22  23
BRANCH  26  27
ATOM     27  O   UNL     1      43.673  17.804  20.237  0.00  0.00    -0.478 OA
ATOM     28  H   UNL     1      42.978  17.419  19.685  0.00  0.00    +0.402 HD
ENDBRANCH  26  27
BRANCH   7   6
ATOM      6  O   UNL     1      48.750  17.969  19.903  0.00  0.00    -0.315 OA
BRANCH   6   5
ATOM      1  C   UNL     1      52.595  16.061  21.291  0.00  0.00    +0.050 C 
ATOM      2  C   UNL     1      51.623  16.061  20.110  0.00  0.00    -0.039 C 
ATOM      3  C   UNL     1      51.495  17.481  19.552  0.00  0.00    +0.274 C 
ATOM      4  O   UNL     1      50.542  17.488  18.487  0.00  0.00    -0.397 OA
ATOM      5  C   UNL     1      49.226  17.094  18.878  0.00  0.00    +0.401 C 
ATOM     34  C   UNL     1      49.262  15.658  19.410  0.00  0.00    +0.193 C 
ATOM     37  C   UNL     1      50.247  15.579  20.581  0.00  0.00    +0.200 C 
BRANCH   5  32
ATOM     32  O   UNL     1      48.352  17.162  17.750  0.00  0.00    -0.533 OA
ATOM     33  H   UNL     1      48.806  17.104  16.898  0.00  0.00    +0.388 HD
ENDBRANCH   5  32
BRANCH  34  35
ATOM     35  O   UNL     1      47.958  15.280  19.854  0.00  0.00    -0.546 OA
ATOM     36  H   UNL     1      47.552  15.911  20.464  0.00  0.00    +0.389 HD
ENDBRANCH  34  35
BRANCH  37  38
ATOM     38  O   UNL     1      50.344  14.227  21.034  0.00  0.00    -0.552 OA
ATOM     39  H   UNL     1      50.885  13.660  20.468  0.00  0.00    +0.386 HD
ENDBRANCH  37  38
ENDBRANCH   6   5
ENDBRANCH   7   6
TORSDOF 10
ENDMDL
MODEL 4
REMARK VINA RESULT:      -6.1      2.685      7.492
REMARK  Name = ZINC95486353
REMARK  11 active torsions:
REMARK  status: ('A' for Active; 'I' for Inactive)
REMARK    1  A    between atoms: C1_1  and  C2_2
REMARK    2  A    between atoms: C4_6  and  O4_13
REMARK    3  A    between atoms: C4_6  and  O5_14
REMARK    4  A    between atoms: C5_7  and  O3_12
REMARK    5  A    between atoms: C6_9  and  O2_11
REMARK    6  A    between atoms: O5_14  and  C7_15
REMARK    7  A    between atoms: C8_16  and  C17_28
REMARK    8  A    between atoms: C12_20  and  O8_27
REMARK    9  A    between atoms: C14_22  and  O7_26
REMARK   10  A    between atoms: C20_31  and  O10_35
REMARK   11  A    between atoms: C21_32  and  O9_34
REMARK                            x       y       z     vdW  Elec       q    Type
REMARK                         _______ _______ _______ _____ _____    ______ ____
ROOT
ATOM      7  C   UNL     1      46.811  18.710  18.792  0.00  0.00    -0.005 C 
ATOM      8  C   UNL     1      46.035  17.629  18.996  0.00  0.00    -0.019 C 
ATOM     19  C   UNL     1      44.661  17.691  19.578  0.00  0.00    +0.185 C 
ATOM     20  C   UNL     1      44.059  19.064  19.527  0.00  0.00    -0.004 A 
ATOM     21  C   UNL     1      42.696  19.210  19.684  0.00  0.00    -0.023 A 
ATOM     22  C   UNL     1      42.112  20.471  19.646  0.00  0.00    +0.166 A 
ATOM     25  C   UNL     1      42.892  21.602  19.453  0.00  0.00    -0.043 A 
ATOM     26  C   UNL     1      44.262  21.473  19.293  0.00  0.00    +0.194 A 
ATOM     29  C   UNL     1      44.847  20.199  19.324  0.00  0.00    -0.201 A 
ATOM     30  C   UNL     1      46.304  20.046  19.134  0.00  0.00    +0.416 C 
ATOM     31  O   UNL     1      47.059  20.996  19.253  0.00  0.00    -0.412 OA
ENDROOT
BRANCH   8   9
ATOM      9  C   UNL     1      46.571  16.311  18.623  0.00  0.00    -0.056 A 
ATOM     10  C   UNL     1      47.060  15.447  19.610  0.00  0.00    +0.042 A 
ATOM     11  C   UNL     1      47.561  14.214  19.258  0.00  0.00    +0.007 A 
ATOM     12  C   UNL     1      47.584  13.823  17.925  0.00  0.00    +0.092 A 
ATOM     15  C   UNL     1      47.100  14.678  16.936  0.00  0.00    +0.086 A 
ATOM     18  C   UNL     1      46.590  15.916  17.281  0.00  0.00    +0.042 A 
BRANCH  12  13
ATOM     13  O   UNL     1      48.081  12.606  17.585  0.00  0.00    -0.488 OA
ATOM     14  H   UNL     1      47.678  12.225  16.793  0.00  0.00    +0.390 HD
ENDBRANCH  12  13
BRANCH  15  16
ATOM     16  O   UNL     1      47.126  14.293  15.633  0.00  0.00    -0.487 OA
ATOM     17  H   UNL     1      46.251  14.143  15.250  0.00  0.00    +0.390 HD
ENDBRANCH  15  16
ENDBRANCH   8   9
BRANCH  22  23
ATOM     23  O   UNL     1      40.769  20.597  19.800  0.00  0.00    -0.493 OA
ATOM     24  H   UNL     1      40.345  21.136  19.120  0.00  0.00    +0.401 HD
ENDBRANCH  22  23
BRANCH  26  27
ATOM     27  O   UNL     1      45.033  22.573  19.106  0.00  0.00    -0.478 OA
ATOM     28  H   UNL     1      45.511  22.580  18.265  0.00  0.00    +0.402 HD
ENDBRANCH  26  27
BRANCH   7   6
ATOM      6  O   UNL     1      48.061  18.566  18.277  0.00  0.00    -0.315 OA
BRANCH   6   5
ATOM      1  C   UNL     1      51.769  17.116  16.156  0.00  0.00    +0.050 C 
ATOM      2  C   UNL     1      51.298  17.629  17.518  0.00  0.00    -0.039 C 
ATOM      3  C   UNL     1      50.175  16.730  18.044  0.00  0.00    +0.274 C 
ATOM      4  O   UNL     1      49.699  17.245  19.288  0.00  0.00    -0.397 OA
ATOM      5  C   UNL     1      49.149  18.562  19.203  0.00  0.00    +0.401 C 
ATOM     34  C   UNL     1      50.231  19.534  18.724  0.00  0.00    +0.193 C 
ATOM     37  C   UNL     1      50.772  19.060  17.372  0.00  0.00    +0.200 C 
BRANCH   5  32
ATOM     32  O   UNL     1      48.681  18.967  20.491  0.00  0.00    -0.533 OA
ATOM     33  H   UNL     1      48.992  19.840  20.766  0.00  0.00    +0.388 HD
ENDBRANCH   5  32
BRANCH  34  35
ATOM     35  O   UNL     1      49.670  20.841  18.585  0.00  0.00    -0.546 OA
ATOM     36  H   UNL     1      48.741  20.901  18.848  0.00  0.00    +0.389 HD
ENDBRANCH  34  35
BRANCH  37  38
ATOM     38  O   UNL     1      51.834  19.919  16.953  0.00  0.00    -0.552 OA
ATOM     39  H   UNL     1      52.637  19.840  17.486  0.00  0.00    +0.386 HD
ENDBRANCH  37  38
ENDBRANCH   6   5
ENDBRANCH   7   6
TORSDOF 10
ENDMDL
MODEL 5
REMARK VINA RESULT:      -5.9      2.627      7.239
REMARK  Name = ZINC95486353
REMARK  11 active torsions:
REMARK  status: ('A' for Active; 'I' for Inactive)
REMARK    1  A    between atoms: C1_1  and  C2_2
REMARK    2  A    between atoms: C4_6  and  O4_13
REMARK    3  A    between atoms: C4_6  and  O5_14
REMARK    4  A    between atoms: C5_7  and  O3_12
REMARK    5  A    between atoms: C6_9  and  O2_11
REMARK    6  A    between atoms: O5_14  and  C7_15
REMARK    7  A    between atoms: C8_16  and  C17_28
REMARK    8  A    between atoms: C12_20  and  O8_27
REMARK    9  A    between atoms: C14_22  and  O7_26
REMARK   10  A    between atoms: C20_31  and  O10_35
REMARK   11  A    between atoms: C21_32  and  O9_34
REMARK                            x       y       z     vdW  Elec       q    Type
REMARK                         _______ _______ _______ _____ _____    ______ ____
ROOT
ATOM      7  C   UNL     1      45.970  19.862  19.395  0.00  0.00    -0.005 C 
ATOM      8  C   UNL     1      45.149  18.890  18.953  0.00  0.00    -0.019 C 
ATOM     19  C   UNL     1      43.661  19.018  18.908  0.00  0.00    +0.185 C 
ATOM     20  C   UNL     1      43.187  20.439  18.993  0.00  0.00    -0.004 A 
ATOM     21  C   UNL     1      41.899  20.745  18.605  0.00  0.00    -0.023 A 
ATOM     22  C   UNL     1      41.431  22.052  18.678  0.00  0.00    +0.166 A 
ATOM     25  C   UNL     1      42.253  23.068  19.144  0.00  0.00    -0.043 A 
ATOM     26  C   UNL     1      43.549  22.778  19.536  0.00  0.00    +0.194 A 
ATOM     29  C   UNL     1      44.021  21.460  19.454  0.00  0.00    -0.201 A 
ATOM     30  C   UNL     1      45.408  21.141  19.849  0.00  0.00    +0.416 C 
ATOM     31  O   UNL     1      46.065  21.914  20.525  0.00  0.00    -0.412 OA
ENDROOT
BRANCH   8   9
ATOM      9  C   UNL     1      45.751  17.632  18.489  0.00  0.00    -0.056 A 
ATOM     10  C   UNL     1      46.463  17.598  17.283  0.00  0.00    +0.042 A 
ATOM     11  C   UNL     1      47.026  16.418  16.850  0.00  0.00    +0.007 A 
ATOM     12  C   UNL     1      46.890  15.260  17.606  0.00  0.00    +0.092 A 
ATOM     15  C   UNL     1      46.183  15.286  18.807  0.00  0.00    +0.086 A 
ATOM     18  C   UNL     1      45.618  16.467  19.252  0.00  0.00    +0.042 A 
BRANCH  12  13
ATOM     13  O   UNL     1      47.448  14.100  17.174  0.00  0.00    -0.488 OA
ATOM     14  H   UNL     1      48.399  14.156  17.013  0.00  0.00    +0.390 HD
ENDBRANCH  12  13
BRANCH  15  16
ATOM     16  O   UNL     1      46.050  14.151  19.543  0.00  0.00    -0.487 OA
ATOM     17  H   UNL     1      46.875  13.844  19.943  0.00  0.00    +0.390 HD
ENDBRANCH  15  16
ENDBRANCH   8   9
BRANCH  22  23
ATOM     23  O   UNL     1      40.161  22.337  18.292  0.00  0.00    -0.493 OA
ATOM     24  H   UNL     1      39.616  22.724  18.989  0.00  0.00    +0.401 HD
ENDBRANCH  22  23
BRANCH  26  27
ATOM     27  O   UNL     1      44.360  23.764  19.994  0.00  0.00    -0.478 OA
ATOM     28  H   UNL     1      44.914  23.502  20.742  0.00  0.00    +0.402 HD
ENDBRANCH  26  27
BRANCH   7   6
ATOM      6  O   UNL     1      47.314  19.658  19.424  0.00  0.00    -0.315 OA
BRANCH   6   5
ATOM      1  C   UNL     1      51.587  18.414  18.688  0.00  0.00    +0.050 C 
ATOM      2  C   UNL     1      50.553  18.522  19.811  0.00  0.00    -0.039 C 
ATOM      3  C   UNL     1      49.319  17.690  19.452  0.00  0.00    +0.274 C 
ATOM      4  O   UNL     1      48.332  17.839  20.475  0.00  0.00    -0.397 OA
ATOM      5  C   UNL     1      47.872  19.181  20.650  0.00  0.00    +0.401 C 
ATOM     34  C   UNL     1      49.048  20.073  21.057  0.00  0.00    +0.193 C 
ATOM     37  C   UNL     1      50.140  19.987  19.987  0.00  0.00    +0.200 C 
BRANCH   5  32
ATOM     32  O   UNL     1      46.874  19.212  21.672  0.00  0.00    -0.533 OA
ATOM     33  H   UNL     1      46.348  18.404  21.733  0.00  0.00    +0.388 HD
ENDBRANCH   5  32
BRANCH  34  35
ATOM     35  O   UNL     1      48.602  21.425  21.179  0.00  0.00    -0.546 OA
ATOM     36  H   UNL     1      47.643  21.530  21.116  0.00  0.00    +0.389 HD
ENDBRANCH  34  35
BRANCH  37  38
ATOM     38  O   UNL     1      51.273  20.757  20.394  0.00  0.00    -0.552 OA
ATOM     39  H   UNL     1      51.401  20.791  21.352  0.00  0.00    +0.386 HD
ENDBRANCH  37  38
ENDBRANCH   6   5
ENDBRANCH   7   6
TORSDOF 10
ENDMDL
MODEL 6
REMARK VINA RESULT:      -5.8      3.488      6.050
REMARK  Name = ZINC95486353
REMARK  11 active torsions:
REMARK  status: ('A' for Active; 'I' for Inactive)
REMARK    1  A    between atoms: C1_1  and  C2_2
REMARK    2  A    between atoms: C4_6  and  O4_13
REMARK    3  A    between atoms: C4_6  and  O5_14
REMARK    4  A    between atoms: C5_7  and  O3_12
REMARK    5  A    between atoms: C6_9  and  O2_11
REMARK    6  A    between atoms: O5_14  and  C7_15
REMARK    7  A    between atoms: C8_16  and  C17_28
REMARK    8  A    between atoms: C12_20  and  O8_27
REMARK    9  A    between atoms: C14_22  and  O7_26
REMARK   10  A    between atoms: C20_31  and  O10_35
REMARK   11  A    between atoms: C21_32  and  O9_34
REMARK                            x       y       z     vdW  Elec       q    Type
REMARK                         _______ _______ _______ _____ _____    ______ ____
ROOT
ATOM      7  C   UNL     1      49.164  16.036  17.212  0.00  0.00    -0.005 C 
ATOM      8  C   UNL     1      50.501  16.179  17.139  0.00  0.00    -0.019 C 
ATOM     19  C   UNL     1      51.428  15.097  16.691  0.00  0.00    +0.185 C 
ATOM     20  C   UNL     1      50.736  13.998  15.939  0.00  0.00    -0.004 A 
ATOM     21  C   UNL     1      51.482  13.136  15.163  0.00  0.00    -0.023 A 
ATOM     22  C   UNL     1      50.867  12.106  14.460  0.00  0.00    +0.166 A 
ATOM     25  C   UNL     1      49.493  11.930  14.531  0.00  0.00    -0.043 A 
ATOM     26  C   UNL     1      48.728  12.787  15.305  0.00  0.00    +0.194 A 
ATOM     29  C   UNL     1      49.351  13.829  16.007  0.00  0.00    -0.201 A 
ATOM     30  C   UNL     1      48.544  14.763  16.819  0.00  0.00    +0.416 C 
ATOM     31  O   UNL     1      47.403  14.489  17.149  0.00  0.00    -0.412 OA
ENDROOT
BRANCH   8   9
ATOM      9  C   UNL     1      51.082  17.474  17.523  0.00  0.00    -0.056 A 
ATOM     10  C   UNL     1      51.704  17.623  18.768  0.00  0.00    +0.042 A 
ATOM     11  C   UNL     1      52.247  18.838  19.125  0.00  0.00    +0.007 A 
ATOM     12  C   UNL     1      52.179  19.916  18.253  0.00  0.00    +0.092 A 
ATOM     15  C   UNL     1      51.560  19.776  17.011  0.00  0.00    +0.086 A 
ATOM     18  C   UNL     1      51.017  18.560  16.642  0.00  0.00    +0.042 A 
BRANCH  12  13
ATOM     13  O   UNL     1      52.716  21.112  18.610  0.00  0.00    -0.488 OA
ATOM     14  H   UNL     1      53.610  21.258  18.274  0.00  0.00    +0.390 HD
ENDBRANCH  12  13
BRANCH  15  16
ATOM     16  O   UNL     1      51.494  20.835  16.161  0.00  0.00    -0.487 OA
ATOM     17  H   UNL     1      50.602  21.187  16.041  0.00  0.00    +0.390 HD
ENDBRANCH  15  16
ENDBRANCH   8   9
BRANCH  22  23
ATOM     23  O   UNL     1      51.616  11.268  13.700  0.00  0.00    -0.493 OA
ATOM     24  H   UNL     1      52.567  11.333  13.863  0.00  0.00    +0.401 HD
ENDBRANCH  22  23
BRANCH  26  27
ATOM     27  O   UNL     1      47.384  12.621  15.382  0.00  0.00    -0.478 OA
ATOM     28  H   UNL     1      46.890  13.448  15.463  0.00  0.00    +0.402 HD
ENDBRANCH  26  27
BRANCH   7   6
ATOM      6  O   UNL     1      48.391  17.065  17.652  0.00  0.00    -0.315 OA
BRANCH   6   5
ATOM      1  C   UNL     1      46.598  21.069  18.700  0.00  0.00    +0.050 C 
ATOM      2  C   UNL     1      46.914  19.705  19.318  0.00  0.00    -0.039 C 
ATOM      3  C   UNL     1      48.412  19.418  19.186  0.00  0.00    +0.274 C 
ATOM      4  O   UNL     1      48.694  18.119  19.712  0.00  0.00    -0.397 OA
ATOM      5  C   UNL     1      48.023  17.056  19.032  0.00  0.00    +0.401 C 
ATOM     34  C   UNL     1      46.509  17.249  19.158  0.00  0.00    +0.193 C 
ATOM     37  C   UNL     1      46.125  18.616  18.585  0.00  0.00    +0.200 C 
BRANCH   5  32
ATOM     32  O   UNL     1      48.395  15.807  19.618  0.00  0.00    -0.533 OA
ATOM     33  H   UNL     1      47.871  15.056  19.307  0.00  0.00    +0.388 HD
ENDBRANCH   5  32
BRANCH  34  35
ATOM     35  O   UNL     1      45.835  16.218  18.433  0.00  0.00    -0.546 OA
ATOM     36  H   UNL     1      45.360  15.589  18.994  0.00  0.00    +0.389 HD
ENDBRANCH  34  35
BRANCH  37  38
ATOM     38  O   UNL     1      44.725  18.836  18.766  0.00  0.00    -0.552 OA
ATOM     39  H   UNL     1      44.431  19.723  18.517  0.00  0.00    +0.386 HD
ENDBRANCH  37  38
ENDBRANCH   6   5
ENDBRANCH   7   6
TORSDOF 10
ENDMDL
MODEL 7
REMARK VINA RESULT:      -5.7      2.469      6.419
REMARK  Name = ZINC95486353
REMARK  11 active torsions:
REMARK  status: ('A' for Active; 'I' for Inactive)
REMARK    1  A    between atoms: C1_1  and  C2_2
REMARK    2  A    between atoms: C4_6  and  O4_13
REMARK    3  A    between atoms: C4_6  and  O5_14
REMARK    4  A    between atoms: C5_7  and  O3_12
REMARK    5  A    between atoms: C6_9  and  O2_11
REMARK    6  A    between atoms: O5_14  and  C7_15
REMARK    7  A    between atoms: C8_16  and  C17_28
REMARK    8  A    between atoms: C12_20  and  O8_27
REMARK    9  A    between atoms: C14_22  and  O7_26
REMARK   10  A    between atoms: C20_31  and  O10_35
REMARK   11  A    between atoms: C21_32  and  O9_34
REMARK                            x       y       z     vdW  Elec       q    Type
REMARK                         _______ _______ _______ _____ _____    ______ ____
ROOT
ATOM      7  C   UNL     1      47.272  18.260  19.309  0.00  0.00    -0.005 C 
ATOM      8  C   UNL     1      48.269  19.166  19.284  0.00  0.00    -0.019 C 
ATOM     19  C   UNL     1      48.058  20.636  19.440  0.00  0.00    +0.185 C 
ATOM     20  C   UNL     1      46.726  20.983  20.038  0.00  0.00    -0.004 A 
ATOM     21  C   UNL     1      46.531  22.240  20.571  0.00  0.00    -0.023 A 
ATOM     22  C   UNL     1      45.306  22.590  21.127  0.00  0.00    +0.166 A 
ATOM     25  C   UNL     1      44.259  21.679  21.150  0.00  0.00    -0.043 A 
ATOM     26  C   UNL     1      44.438  20.413  20.620  0.00  0.00    +0.194 A 
ATOM     29  C   UNL     1      45.677  20.060  20.067  0.00  0.00    -0.201 A 
ATOM     30  C   UNL     1      45.887  18.706  19.517  0.00  0.00    +0.416 C 
ATOM     31  O   UNL     1      44.945  17.981  19.248  0.00  0.00    -0.412 OA
ENDROOT
BRANCH   8   9
ATOM      9  C   UNL     1      49.643  18.679  19.094  0.00  0.00    -0.056 A 
ATOM     10  C   UNL     1      50.304  18.019  20.136  0.00  0.00    +0.042 A 
ATOM     11  C   UNL     1      51.592  17.564  19.955  0.00  0.00    +0.007 A 
ATOM     12  C   UNL     1      52.237  17.757  18.740  0.00  0.00    +0.092 A 
ATOM     15  C   UNL     1      51.584  18.414  17.697  0.00  0.00    +0.086 A 
ATOM     18  C   UNL     1      50.291  18.870  17.868  0.00  0.00    +0.042 A 
BRANCH  12  13
ATOM     13  O   UNL     1      53.506  17.307  18.567  0.00  0.00    -0.488 OA
ATOM     14  H   UNL     1      54.186  17.908  18.898  0.00  0.00    +0.390 HD
ENDBRANCH  12  13
BRANCH  15  16
ATOM     16  O   UNL     1      52.220  18.603  16.510  0.00  0.00    -0.487 OA
ATOM     17  H   UNL     1      51.795  18.162  15.762  0.00  0.00    +0.390 HD
ENDBRANCH  15  16
ENDBRANCH   8   9
BRANCH  22  23
ATOM     23  O   UNL     1      45.132  23.830  21.649  0.00  0.00    -0.493 OA
ATOM     24  H   UNL     1      45.140  24.538  20.991  0.00  0.00    +0.401 HD
ENDBRANCH  22  23
BRANCH  26  27
ATOM     27  O   UNL     1      43.420  19.516  20.637  0.00  0.00    -0.478 OA
ATOM     28  H   UNL     1      42.677  19.775  21.200  0.00  0.00    +0.402 HD
ENDBRANCH  26  27
BRANCH   7   6
ATOM      6  O   UNL     1      47.546  16.939  19.138  0.00  0.00    -0.315 OA
BRANCH   6   5
ATOM      1  C   UNL     1      49.655  12.968  18.782  0.00  0.00    +0.050 C 
ATOM      2  C   UNL     1      48.714  13.892  18.007  0.00  0.00    -0.039 C 
ATOM      3  C   UNL     1      49.376  15.260  17.824  0.00  0.00    +0.274 C 
ATOM      4  O   UNL     1      48.472  16.138  17.151  0.00  0.00    -0.397 OA
ATOM      5  C   UNL     1      47.253  16.376  17.858  0.00  0.00    +0.401 C 
ATOM     34  C   UNL     1      46.506  15.052  18.042  0.00  0.00    +0.193 C 
ATOM     37  C   UNL     1      47.408  14.064  18.788  0.00  0.00    +0.200 C 
BRANCH   5  32
ATOM     32  O   UNL     1      46.439  17.283  17.113  0.00  0.00    -0.533 OA
ATOM     33  H   UNL     1      45.555  16.946  16.915  0.00  0.00    +0.388 HD
ENDBRANCH   5  32
BRANCH  34  35
ATOM     35  O   UNL     1      45.314  15.277  18.797  0.00  0.00    -0.546 OA
ATOM     36  H   UNL     1      44.614  15.725  18.302  0.00  0.00    +0.389 HD
ENDBRANCH  34  35
BRANCH  37  38
ATOM     38  O   UNL     1      46.747  12.802  18.898  0.00  0.00    -0.552 OA
ATOM     39  H   UNL     1      46.544  12.542  19.807  0.00  0.00    +0.386 HD
ENDBRANCH  37  38
ENDBRANCH   6   5
ENDBRANCH   7   6
TORSDOF 10
ENDMDL
MODEL 8
REMARK VINA RESULT:      -5.5      3.942      7.450
REMARK  Name = ZINC95486353
REMARK  11 active torsions:
REMARK  status: ('A' for Active; 'I' for Inactive)
REMARK    1  A    between atoms: C1_1  and  C2_2
REMARK    2  A    between atoms: C4_6  and  O4_13
REMARK    3  A    between atoms: C4_6  and  O5_14
REMARK    4  A    between atoms: C5_7  and  O3_12
REMARK    5  A    between atoms: C6_9  and  O2_11
REMARK    6  A    between atoms: O5_14  and  C7_15
REMARK    7  A    between atoms: C8_16  and  C17_28
REMARK    8  A    between atoms: C12_20  and  O8_27
REMARK    9  A    between atoms: C14_22  and  O7_26
REMARK   10  A    between atoms: C20_31  and  O10_35
REMARK   11  A    between atoms: C21_32  and  O9_34
REMARK                            x       y       z     vdW  Elec       q    Type
REMARK                         _______ _______ _______ _____ _____    ______ ____
ROOT
ATOM      7  C   UNL     1      49.497  16.161  17.667  0.00  0.00    -0.005 C 
ATOM      8  C   UNL     1      50.725  16.017  17.132  0.00  0.00    -0.019 C 
ATOM     19  C   UNL     1      51.671  17.150  16.909  0.00  0.00    +0.185 C 
ATOM     20  C   UNL     1      51.323  18.377  17.699  0.00  0.00    -0.004 A 
ATOM     21  C   UNL     1      52.276  19.356  17.882  0.00  0.00    -0.023 A 
ATOM     22  C   UNL     1      51.979  20.505  18.606  0.00  0.00    +0.166 A 
ATOM     25  C   UNL     1      50.716  20.684  19.154  0.00  0.00    -0.043 A 
ATOM     26  C   UNL     1      49.748  19.710  18.981  0.00  0.00    +0.194 A 
ATOM     29  C   UNL     1      50.053  18.549  18.257  0.00  0.00    -0.201 A 
ATOM     30  C   UNL     1      49.035  17.493  18.083  0.00  0.00    +0.416 C 
ATOM     31  O   UNL     1      47.854  17.716  18.281  0.00  0.00    -0.412 OA
ENDROOT
BRANCH   8   9
ATOM      9  C   UNL     1      51.158  14.665  16.747  0.00  0.00    -0.056 A 
ATOM     10  C   UNL     1      51.444  13.713  17.732  0.00  0.00    +0.042 A 
ATOM     11  C   UNL     1      51.849  12.447  17.368  0.00  0.00    +0.007 A 
ATOM     12  C   UNL     1      51.976  12.113  16.026  0.00  0.00    +0.092 A 
ATOM     15  C   UNL     1      51.694  13.057  15.039  0.00  0.00    +0.086 A 
ATOM     18  C   UNL     1      51.281  14.327  15.395  0.00  0.00    +0.042 A 
BRANCH  12  13
ATOM     13  O   UNL     1      52.377  10.864  15.673  0.00  0.00    -0.488 OA
ATOM     14  H   UNL     1      51.859  10.156  16.078  0.00  0.00    +0.390 HD
ENDBRANCH  12  13
BRANCH  15  16
ATOM     16  O   UNL     1      51.821  12.727  13.727  0.00  0.00    -0.487 OA
ATOM     17  H   UNL     1      52.737  12.677  13.421  0.00  0.00    +0.390 HD
ENDBRANCH  15  16
ENDBRANCH   8   9
BRANCH  22  23
ATOM     23  O   UNL     1      52.929  21.459  18.778  0.00  0.00    -0.493 OA
ATOM     24  H   UNL     1      53.421  21.379  19.606  0.00  0.00    +0.401 HD
ENDBRANCH  22  23
BRANCH  26  27
ATOM     27  O   UNL     1      48.511  19.877  19.511  0.00  0.00    -0.478 OA
ATOM     28  H   UNL     1      48.265  19.201  20.158  0.00  0.00    +0.402 HD
ENDBRANCH  26  27
BRANCH   7   6
ATOM      6  O   UNL     1      48.687  15.079  17.817  0.00  0.00    -0.315 OA
BRANCH   6   5
ATOM      1  C   UNL     1      47.260  10.801  17.905  0.00  0.00    +0.050 C 
ATOM      2  C   UNL     1      46.966  12.143  17.230  0.00  0.00    -0.039 C 
ATOM      3  C   UNL     1      48.221  12.638  16.507  0.00  0.00    +0.274 C 
ATOM      4  O   UNL     1      47.961  13.918  15.927  0.00  0.00    -0.397 OA
ATOM      5  C   UNL     1      47.621  14.931  16.877  0.00  0.00    +0.401 C 
ATOM     34  C   UNL     1      46.342  14.527  17.615  0.00  0.00    +0.193 C 
ATOM     37  C   UNL     1      46.556  13.169  18.291  0.00  0.00    +0.200 C 
BRANCH   5  32
ATOM     32  O   UNL     1      47.409  16.169  16.197  0.00  0.00    -0.533 OA
ATOM     33  H   UNL     1      47.524  16.116  15.238  0.00  0.00    +0.388 HD
ENDBRANCH   5  32
BRANCH  34  35
ATOM     35  O   UNL     1      46.030  15.511  18.603  0.00  0.00    -0.546 OA
ATOM     36  H   UNL     1      45.808  16.379  18.239  0.00  0.00    +0.389 HD
ENDBRANCH  34  35
BRANCH  37  38
ATOM     38  O   UNL     1      45.344  12.750  18.919  0.00  0.00    -0.552 OA
ATOM     39  H   UNL     1      45.172  13.180  19.768  0.00  0.00    +0.386 HD
ENDBRANCH  37  38
ENDBRANCH   6   5
ENDBRANCH   7   6
TORSDOF 10
ENDMDL
MODEL 9
REMARK VINA RESULT:      -5.2      3.047      6.064
REMARK  Name = ZINC95486353
REMARK  11 active torsions:
REMARK  status: ('A' for Active; 'I' for Inactive)
REMARK    1  A    between atoms: C1_1  and  C2_2
REMARK    2  A    between atoms: C4_6  and  O4_13
REMARK    3  A    between atoms: C4_6  and  O5_14
REMARK    4  A    between atoms: C5_7  and  O3_12
REMARK    5  A    between atoms: C6_9  and  O2_11
REMARK    6  A    between atoms: O5_14  and  C7_15
REMARK    7  A    between atoms: C8_16  and  C17_28
REMARK    8  A    between atoms: C12_20  and  O8_27
REMARK    9  A    between atoms: C14_22  and  O7_26
REMARK   10  A    between atoms: C20_31  and  O10_35
REMARK   11  A    between atoms: C21_32  and  O9_34
REMARK                            x       y       z     vdW  Elec       q    Type
REMARK                         _______ _______ _______ _____ _____    ______ ____
ROOT
ATOM      7  C   UNL     1      48.238  17.029  18.720  0.00  0.00    -0.005 C 
ATOM      8  C   UNL     1      49.012  16.436  17.791  0.00  0.00    -0.019 C 
ATOM     19  C   UNL     1      49.940  17.180  16.887  0.00  0.00    +0.185 C 
ATOM     20  C   UNL     1      50.253  18.565  17.371  0.00  0.00    -0.004 A 
ATOM     21  C   UNL     1      51.349  19.228  16.859  0.00  0.00    -0.023 A 
ATOM     22  C   UNL     1      51.659  20.514  17.285  0.00  0.00    +0.166 A 
ATOM     25  C   UNL     1      50.869  21.152  18.231  0.00  0.00    -0.043 A 
ATOM     26  C   UNL     1      49.765  20.500  18.755  0.00  0.00    +0.194 A 
ATOM     29  C   UNL     1      49.459  19.200  18.329  0.00  0.00    -0.201 A 
ATOM     30  C   UNL     1      48.297  18.487  18.896  0.00  0.00    +0.416 C 
ATOM     31  O   UNL     1      47.419  19.085  19.493  0.00  0.00    -0.412 OA
ENDROOT
BRANCH   8   9
ATOM      9  C   UNL     1      48.939  14.974  17.659  0.00  0.00    -0.056 A 
ATOM     10  C   UNL     1      48.264  14.400  16.575  0.00  0.00    +0.042 A 
ATOM     11  C   UNL     1      48.197  13.030  16.453  0.00  0.00    +0.007 A 
ATOM     12  C   UNL     1      48.798  12.214  17.403  0.00  0.00    +0.092 A 
ATOM     15  C   UNL     1      49.472  12.778  18.486  0.00  0.00    +0.086 A 
ATOM     18  C   UNL     1      49.548  14.152  18.614  0.00  0.00    +0.042 A 
BRANCH  12  13
ATOM     13  O   UNL     1      48.728  10.863  17.278  0.00  0.00    -0.488 OA
ATOM     14  H   UNL     1      48.606  10.397  18.115  0.00  0.00    +0.390 HD
ENDBRANCH  12  13
BRANCH  15  16
ATOM     16  O   UNL     1      50.056  11.976  19.415  0.00  0.00    -0.487 OA
ATOM     17  H   UNL     1      50.270  12.426  20.244  0.00  0.00    +0.390 HD
ENDBRANCH  15  16
ENDBRANCH   8   9
BRANCH  22  23
ATOM     23  O   UNL     1      52.743  21.151  16.773  0.00  0.00    -0.493 OA
ATOM     24  H   UNL     1      53.297  20.594  16.210  0.00  0.00    +0.401 HD
ENDBRANCH  22  23
BRANCH  26  27
ATOM     27  O   UNL     1      48.986  21.116  19.679  0.00  0.00    -0.478 OA
ATOM     28  H   UNL     1      48.204  20.607  19.936  0.00  0.00    +0.402 HD
ENDBRANCH  26  27
BRANCH   7   6
ATOM      6  O   UNL     1      47.403  16.281  19.490  0.00  0.00    -0.315 OA
BRANCH   6   5
ATOM      1  C   UNL     1      45.363  13.127  21.987  0.00  0.00    +0.050 C 
ATOM      2  C   UNL     1      45.089  14.101  20.840  0.00  0.00    -0.039 C 
ATOM      3  C   UNL     1      46.059  13.822  19.689  0.00  0.00    +0.274 C 
ATOM      4  O   UNL     1      45.839  14.770  18.642  0.00  0.00    -0.397 OA
ATOM      5  C   UNL     1      46.059  16.128  19.029  0.00  0.00    +0.401 C 
ATOM     34  C   UNL     1      45.089  16.500  20.154  0.00  0.00    +0.193 C 
ATOM     37  C   UNL     1      45.288  15.539  21.330  0.00  0.00    +0.200 C 
BRANCH   5  32
ATOM     32  O   UNL     1      45.838  16.985  17.908  0.00  0.00    -0.533 OA
ATOM     33  H   UNL     1      46.630  17.152  17.379  0.00  0.00    +0.388 HD
ENDBRANCH   5  32
BRANCH  34  35
ATOM     35  O   UNL     1      45.343  17.839  20.581  0.00  0.00    -0.546 OA
ATOM     36  H   UNL     1      45.858  18.362  19.951  0.00  0.00    +0.389 HD
ENDBRANCH  34  35
BRANCH  37  38
ATOM     38  O   UNL     1      44.335  15.830  22.354  0.00  0.00    -0.552 OA
ATOM     39  H   UNL     1      43.931  16.705  22.277  0.00  0.00    +0.386 HD
ENDBRANCH  37  38
ENDBRANCH   6   5
ENDBRANCH   7   6
TORSDOF 10
ENDMDL
