MODEL 1
REMARK VINA RESULT:      -6.2      0.000      0.000
REMARK  Name = ZINC14504006
REMARK  3 active torsions:
REMARK  status: ('A' for Active; 'I' for Inactive)
REMARK    1  A    between atoms: C1_1  and  O1_2
REMARK    2  A    between atoms: O1_2  and  C2_3
REMARK    3  A    between atoms: C7_9  and  C13_17
REMARK                            x       y       z     vdW  Elec       q    Type
REMARK                         _______ _______ _______ _____ _____    ______ ____
ROOT
ATOM      3  C   UNL     1      43.160  19.838  19.535  0.00  0.00    +0.128 A 
ATOM      4  C   UNL     1      44.147  18.879  19.563  0.00  0.00    +0.044 A 
ATOM      5  C   UNL     1      45.496  19.255  19.570  0.00  0.00    -0.196 A 
ATOM      6  C   UNL     1      46.570  18.244  19.597  0.00  0.00    +0.425 A 
ATOM      7  C   UNL     1      47.904  18.712  19.610  0.00  0.00    -0.151 A 
ATOM      8  C   UNL     1      48.144  20.051  19.585  0.00  0.00    +0.211 A 
ATOM     15  O   UNL     1      47.156  20.958  19.558  0.00  0.00    -0.211 OA
ATOM     16  O   UNL     1      46.317  17.051  19.615  0.00  0.00    -0.470 OA
ATOM     17  C   UNL     1      45.854  20.609  19.551  0.00  0.00    +0.165 A 
ATOM     18  C   UNL     1      44.845  21.580  19.524  0.00  0.00    -0.116 A 
ATOM     19  C   UNL     1      44.839  23.047  19.499  0.00  0.00    -0.025 A 
ATOM     20  C   UNL     1      43.550  23.414  19.480  0.00  0.00    +0.236 A 
ATOM     21  O   UNL     1      42.760  22.325  19.490  0.00  0.00    -0.171 OA
ATOM     22  C   UNL     1      43.497  21.196  19.516  0.00  0.00    +0.085 A 
ENDROOT
BRANCH   8   9
ATOM      9  C   UNL     1      49.543  20.523  19.591  0.00  0.00    -0.075 A 
ATOM     10  C   UNL     1      50.216  20.708  20.802  0.00  0.00    +0.057 A 
ATOM     11  C   UNL     1      51.524  21.143  20.800  0.00  0.00    +0.014 A 
ATOM     12  C   UNL     1      52.166  21.411  19.604  0.00  0.00    +0.038 A 
ATOM     13  C   UNL     1      51.505  21.237  18.402  0.00  0.00    +0.009 A 
ATOM     14  C   UNL     1      50.198  20.795  18.389  0.00  0.00    +0.056 A 
ENDBRANCH   8   9
BRANCH   3   2
ATOM      1  C   UNL     1      41.287  19.057  20.776  0.00  0.00    +0.253 C 
ATOM      2  O   UNL     1      41.853  19.464  19.528  0.00  0.00    -0.307 OA
ENDBRANCH   3   2
TORSDOF 2
ENDMDL
MODEL 2
REMARK VINA RESULT:      -6.1      0.976      1.312
REMARK  Name = ZINC14504006
REMARK  3 active torsions:
REMARK  status: ('A' for Active; 'I' for Inactive)
REMARK    1  A    between atoms: C1_1  and  O1_2
REMARK    2  A    between atoms: O1_2  and  C2_3
REMARK    3  A    between atoms: C7_9  and  C13_17
REMARK                            x       y       z     vdW  Elec       q    Type
REMARK                         _______ _______ _______ _____ _____    ______ ____
ROOT
ATOM      3  C   UNL     1      43.112  19.826  19.575  0.00  0.00    +0.128 A 
ATOM      4  C   UNL     1      43.942  18.739  19.414  0.00  0.00    +0.044 A 
ATOM      5  C   UNL     1      45.312  18.924  19.191  0.00  0.00    -0.196 A 
ATOM      6  C   UNL     1      46.219  17.774  19.014  0.00  0.00    +0.425 A 
ATOM      7  C   UNL     1      47.588  18.053  18.800  0.00  0.00    -0.151 A 
ATOM      8  C   UNL     1      48.010  19.345  18.755  0.00  0.00    +0.211 A 
ATOM     15  O   UNL     1      47.172  20.380  18.917  0.00  0.00    -0.211 OA
ATOM     16  O   UNL     1      45.804  16.628  19.057  0.00  0.00    -0.470 OA
ATOM     17  C   UNL     1      45.851  20.215  19.132  0.00  0.00    +0.165 A 
ATOM     18  C   UNL     1      45.003  21.317  19.297  0.00  0.00    -0.116 A 
ATOM     19  C   UNL     1      45.202  22.770  19.298  0.00  0.00    -0.025 A 
ATOM     20  C   UNL     1      43.995  23.312  19.510  0.00  0.00    +0.236 A 
ATOM     21  O   UNL     1      43.071  22.344  19.640  0.00  0.00    -0.171 OA
ATOM     22  C   UNL     1      43.632  21.124  19.519  0.00  0.00    +0.085 A 
ENDROOT
BRANCH   8   9
ATOM      9  C   UNL     1      49.443  19.619  18.525  0.00  0.00    -0.075 A 
ATOM     10  C   UNL     1      50.293  18.595  18.099  0.00  0.00    +0.057 A 
ATOM     11  C   UNL     1      51.628  18.860  17.880  0.00  0.00    +0.014 A 
ATOM     12  C   UNL     1      52.130  20.132  18.094  0.00  0.00    +0.038 A 
ATOM     13  C   UNL     1      51.295  21.148  18.521  0.00  0.00    +0.009 A 
ATOM     14  C   UNL     1      49.955  20.900  18.738  0.00  0.00    +0.056 A 
ENDBRANCH   8   9
BRANCH   3   2
ATOM      1  C   UNL     1      41.413  18.905  20.961  0.00  0.00    +0.253 C 
ATOM      2  O   UNL     1      41.783  19.637  19.791  0.00  0.00    -0.307 OA
ENDBRANCH   3   2
TORSDOF 2
ENDMDL
MODEL 3
REMARK VINA RESULT:      -6.1      2.086      7.169
REMARK  Name = ZINC14504006
REMARK  3 active torsions:
REMARK  status: ('A' for Active; 'I' for Inactive)
REMARK    1  A    between atoms: C1_1  and  O1_2
REMARK    2  A    between atoms: O1_2  and  C2_3
REMARK    3  A    between atoms: C7_9  and  C13_17
REMARK                            x       y       z     vdW  Elec       q    Type
REMARK                         _______ _______ _______ _____ _____    ______ ____
ROOT
ATOM      3  C   UNL     1      48.802  19.808  19.445  0.00  0.00    +0.128 A 
ATOM      4  C   UNL     1      48.019  20.813  19.968  0.00  0.00    +0.044 A 
ATOM      5  C   UNL     1      46.647  20.854  19.694  0.00  0.00    -0.196 A 
ATOM      6  C   UNL     1      45.790  21.922  20.243  0.00  0.00    +0.425 A 
ATOM      7  C   UNL     1      44.414  21.883  19.922  0.00  0.00    -0.151 A 
ATOM      8  C   UNL     1      43.942  20.887  19.124  0.00  0.00    +0.211 A 
ATOM     15  O   UNL     1      44.733  19.924  18.631  0.00  0.00    -0.211 OA
ATOM     16  O   UNL     1      46.251  22.802  20.952  0.00  0.00    -0.470 OA
ATOM     17  C   UNL     1      46.056  19.873  18.887  0.00  0.00    +0.165 A 
ATOM     18  C   UNL     1      46.857  18.853  18.359  0.00  0.00    -0.116 A 
ATOM     19  C   UNL     1      46.598  17.692  17.500  0.00  0.00    -0.025 A 
ATOM     20  C   UNL     1      47.779  17.079  17.336  0.00  0.00    +0.236 A 
ATOM     21  O   UNL     1      48.739  17.742  18.004  0.00  0.00    -0.171 OA
ATOM     22  C   UNL     1      48.230  18.819  18.636  0.00  0.00    +0.085 A 
ENDROOT
BRANCH   8   9
ATOM      9  C   UNL     1      42.502  20.864  18.792  0.00  0.00    -0.075 A 
ATOM     10  C   UNL     1      41.912  19.692  18.313  0.00  0.00    +0.057 A 
ATOM     11  C   UNL     1      40.566  19.676  18.011  0.00  0.00    +0.014 A 
ATOM     12  C   UNL     1      39.805  20.821  18.168  0.00  0.00    +0.038 A 
ATOM     13  C   UNL     1      40.384  21.986  18.637  0.00  0.00    +0.009 A 
ATOM     14  C   UNL     1      41.728  22.015  18.949  0.00  0.00    +0.056 A 
ENDBRANCH   8   9
BRANCH   3   2
ATOM      1  C   UNL     1      50.971  20.653  18.958  0.00  0.00    +0.253 C 
ATOM      2  O   UNL     1      50.134  19.776  19.715  0.00  0.00    -0.307 OA
ENDBRANCH   3   2
TORSDOF 2
ENDMDL
MODEL 4
REMARK VINA RESULT:      -6.0      2.400      5.049
REMARK  Name = ZINC14504006
REMARK  3 active torsions:
REMARK  status: ('A' for Active; 'I' for Inactive)
REMARK    1  A    between atoms: C1_1  and  O1_2
REMARK    2  A    between atoms: O1_2  and  C2_3
REMARK    3  A    between atoms: C7_9  and  C13_17
REMARK                            x       y       z     vdW  Elec       q    Type
REMARK                         _______ _______ _______ _____ _____    ______ ____
ROOT
ATOM      3  C   UNL     1      44.585  22.500  19.547  0.00  0.00    +0.128 A 
ATOM      4  C   UNL     1      45.831  21.920  19.480  0.00  0.00    +0.044 A 
ATOM      5  C   UNL     1      45.963  20.565  19.152  0.00  0.00    -0.196 A 
ATOM      6  C   UNL     1      47.288  19.923  19.075  0.00  0.00    +0.425 A 
ATOM      7  C   UNL     1      47.329  18.552  18.730  0.00  0.00    -0.151 A 
ATOM      8  C   UNL     1      46.166  17.886  18.497  0.00  0.00    +0.211 A 
ATOM     15  O   UNL     1      44.968  18.484  18.572  0.00  0.00    -0.211 OA
ATOM     16  O   UNL     1      48.310  20.552  19.294  0.00  0.00    -0.470 OA
ATOM     17  C   UNL     1      44.828  19.787  18.887  0.00  0.00    +0.165 A 
ATOM     18  C   UNL     1      43.563  20.383  18.957  0.00  0.00    -0.116 A 
ATOM     19  C   UNL     1      42.193  19.899  18.751  0.00  0.00    -0.025 A 
ATOM     20  C   UNL     1      41.390  20.952  18.963  0.00  0.00    +0.236 A 
ATOM     21  O   UNL     1      42.123  22.034  19.278  0.00  0.00    -0.171 OA
ATOM     22  C   UNL     1      43.439  21.739  19.287  0.00  0.00    +0.085 A 
ENDROOT
BRANCH   8   9
ATOM      9  C   UNL     1      46.225  16.453  18.144  0.00  0.00    -0.075 A 
ATOM     10  C   UNL     1      46.771  16.054  16.921  0.00  0.00    +0.057 A 
ATOM     11  C   UNL     1      46.829  14.714  16.601  0.00  0.00    +0.014 A 
ATOM     12  C   UNL     1      46.335  13.767  17.481  0.00  0.00    +0.038 A 
ATOM     13  C   UNL     1      45.787  14.156  18.690  0.00  0.00    +0.009 A 
ATOM     14  C   UNL     1      45.730  15.492  19.027  0.00  0.00    +0.056 A 
ENDBRANCH   8   9
BRANCH   3   2
ATOM      1  C   UNL     1      44.458  24.749  18.785  0.00  0.00    +0.253 C 
ATOM      2  O   UNL     1      44.466  23.816  19.867  0.00  0.00    -0.307 OA
ENDBRANCH   3   2
TORSDOF 2
ENDMDL
MODEL 5
REMARK VINA RESULT:      -5.9      3.131      5.407
REMARK  Name = ZINC14504006
REMARK  3 active torsions:
REMARK  status: ('A' for Active; 'I' for Inactive)
REMARK    1  A    between atoms: C1_1  and  O1_2
REMARK    2  A    between atoms: O1_2  and  C2_3
REMARK    3  A    between atoms: C7_9  and  C13_17
REMARK                            x       y       z     vdW  Elec       q    Type
REMARK                         _______ _______ _______ _____ _____    ______ ____
ROOT
ATOM      3  C   UNL     1      43.550  22.553  19.501  0.00  0.00    +0.128 A 
ATOM      4  C   UNL     1      44.694  22.043  20.073  0.00  0.00    +0.044 A 
ATOM      5  C   UNL     1      44.809  20.670  20.318  0.00  0.00    -0.196 A 
ATOM      6  C   UNL     1      46.025  20.103  20.931  0.00  0.00    +0.425 A 
ATOM      7  C   UNL     1      46.059  18.704  21.136  0.00  0.00    -0.151 A 
ATOM      8  C   UNL     1      44.985  17.949  20.780  0.00  0.00    +0.211 A 
ATOM     15  O   UNL     1      43.886  18.480  20.225  0.00  0.00    -0.211 OA
ATOM     16  O   UNL     1      46.968  20.813  21.241  0.00  0.00    -0.470 OA
ATOM     17  C   UNL     1      43.763  19.801  19.984  0.00  0.00    +0.165 A 
ATOM     18  C   UNL     1      42.601  20.325  19.402  0.00  0.00    -0.116 A 
ATOM     19  C   UNL     1      41.340  19.740  18.934  0.00  0.00    -0.025 A 
ATOM     20  C   UNL     1      40.606  20.761  18.469  0.00  0.00    +0.236 A 
ATOM     21  O   UNL     1      41.284  21.915  18.602  0.00  0.00    -0.171 OA
ATOM     22  C   UNL     1      42.493  21.701  19.160  0.00  0.00    +0.085 A 
ENDROOT
BRANCH   8   9
ATOM      9  C   UNL     1      45.034  16.491  21.007  0.00  0.00    -0.075 A 
ATOM     10  C   UNL     1      44.907  15.978  22.301  0.00  0.00    +0.057 A 
ATOM     11  C   UNL     1      44.948  14.615  22.505  0.00  0.00    +0.014 A 
ATOM     12  C   UNL     1      45.127  13.756  21.435  0.00  0.00    +0.038 A 
ATOM     13  C   UNL     1      45.259  14.257  20.153  0.00  0.00    +0.009 A 
ATOM     14  C   UNL     1      45.213  15.618  19.933  0.00  0.00    +0.056 A 
ENDBRANCH   8   9
BRANCH   3   2
ATOM      1  C   UNL     1      44.640  24.575  18.885  0.00  0.00    +0.253 C 
ATOM      2  O   UNL     1      43.446  23.888  19.267  0.00  0.00    -0.307 OA
ENDBRANCH   3   2
TORSDOF 2
ENDMDL
MODEL 6
REMARK VINA RESULT:      -5.8      3.052      4.667
REMARK  Name = ZINC14504006
REMARK  3 active torsions:
REMARK  status: ('A' for Active; 'I' for Inactive)
REMARK    1  A    between atoms: C1_1  and  O1_2
REMARK    2  A    between atoms: O1_2  and  C2_3
REMARK    3  A    between atoms: C7_9  and  C13_17
REMARK                            x       y       z     vdW  Elec       q    Type
REMARK                         _______ _______ _______ _____ _____    ______ ____
ROOT
ATOM      3  C   UNL     1      45.966  14.868  19.303  0.00  0.00    +0.128 A 
ATOM      4  C   UNL     1      47.180  14.573  18.725  0.00  0.00    +0.044 A 
ATOM      5  C   UNL     1      48.042  15.602  18.327  0.00  0.00    -0.196 A 
ATOM      6  C   UNL     1      49.346  15.309  17.704  0.00  0.00    +0.425 A 
ATOM      7  C   UNL     1      50.156  16.409  17.340  0.00  0.00    -0.151 A 
ATOM      8  C   UNL     1      49.706  17.674  17.561  0.00  0.00    +0.211 A 
ATOM     15  O   UNL     1      48.516  17.924  18.127  0.00  0.00    -0.211 OA
ATOM     16  O   UNL     1      49.715  14.161  17.517  0.00  0.00    -0.470 OA
ATOM     17  C   UNL     1      47.678  16.942  18.515  0.00  0.00    +0.165 A 
ATOM     18  C   UNL     1      46.442  17.236  19.104  0.00  0.00    -0.116 A 
ATOM     19  C   UNL     1      45.745  18.480  19.448  0.00  0.00    -0.025 A 
ATOM     20  C   UNL     1      44.578  18.113  19.998  0.00  0.00    +0.236 A 
ATOM     21  O   UNL     1      44.484  16.773  20.028  0.00  0.00    -0.171 OA
ATOM     22  C   UNL     1      45.585  16.200  19.499  0.00  0.00    +0.085 A 
ENDROOT
BRANCH   8   9
ATOM      9  C   UNL     1      50.561  18.812  17.168  0.00  0.00    -0.075 A 
ATOM     10  C   UNL     1      50.547  19.991  17.918  0.00  0.00    +0.057 A 
ATOM     11  C   UNL     1      51.352  21.048  17.548  0.00  0.00    +0.014 A 
ATOM     12  C   UNL     1      52.162  20.947  16.430  0.00  0.00    +0.038 A 
ATOM     13  C   UNL     1      52.177  19.785  15.681  0.00  0.00    +0.009 A 
ATOM     14  C   UNL     1      51.381  18.718  16.043  0.00  0.00    +0.056 A 
ENDBRANCH   8   9
BRANCH   3   2
ATOM      1  C   UNL     1      44.805  12.882  18.700  0.00  0.00    +0.253 C 
ATOM      2  O   UNL     1      45.136  13.862  19.686  0.00  0.00    -0.307 OA
ENDBRANCH   3   2
TORSDOF 2
ENDMDL
MODEL 7
REMARK VINA RESULT:      -5.6      2.502      4.033
REMARK  Name = ZINC14504006
REMARK  3 active torsions:
REMARK  status: ('A' for Active; 'I' for Inactive)
REMARK    1  A    between atoms: C1_1  and  O1_2
REMARK    2  A    between atoms: O1_2  and  C2_3
REMARK    3  A    between atoms: C7_9  and  C13_17
REMARK                            x       y       z     vdW  Elec       q    Type
REMARK                         _______ _______ _______ _____ _____    ______ ____
ROOT
ATOM      3  C   UNL     1      44.786  18.248  21.475  0.00  0.00    +0.128 A 
ATOM      4  C   UNL     1      45.486  19.429  21.375  0.00  0.00    +0.044 A 
ATOM      5  C   UNL     1      46.613  19.515  20.549  0.00  0.00    -0.196 A 
ATOM      6  C   UNL     1      47.378  20.770  20.428  0.00  0.00    +0.425 A 
ATOM      7  C   UNL     1      48.499  20.768  19.566  0.00  0.00    -0.151 A 
ATOM      8  C   UNL     1      48.830  19.629  18.900  0.00  0.00    +0.211 A 
ATOM     15  O   UNL     1      48.124  18.495  19.021  0.00  0.00    -0.211 OA
ATOM     16  O   UNL     1      47.053  21.771  21.045  0.00  0.00    -0.470 OA
ATOM     17  C   UNL     1      47.038  18.400  19.814  0.00  0.00    +0.165 A 
ATOM     18  C   UNL     1      46.321  17.201  19.919  0.00  0.00    -0.116 A 
ATOM     19  C   UNL     1      46.464  15.870  19.320  0.00  0.00    -0.025 A 
ATOM     20  C   UNL     1      45.461  15.130  19.812  0.00  0.00    +0.236 A 
ATOM     21  O   UNL     1      44.714  15.867  20.653  0.00  0.00    -0.171 OA
ATOM     22  C   UNL     1      45.195  17.124  20.749  0.00  0.00    +0.085 A 
ENDROOT
BRANCH   8   9
ATOM      9  C   UNL     1      50.007  19.643  18.008  0.00  0.00    -0.075 A 
ATOM     10  C   UNL     1      50.763  20.809  17.862  0.00  0.00    +0.057 A 
ATOM     11  C   UNL     1      51.864  20.812  17.032  0.00  0.00    +0.014 A 
ATOM     12  C   UNL     1      52.212  19.669  16.334  0.00  0.00    +0.038 A 
ATOM     13  C   UNL     1      51.465  18.514  16.469  0.00  0.00    +0.009 A 
ATOM     14  C   UNL     1      50.365  18.494  17.301  0.00  0.00    +0.056 A 
ENDBRANCH   8   9
BRANCH   3   2
ATOM      1  C   UNL     1      42.451  18.621  21.733  0.00  0.00    +0.253 C 
ATOM      2  O   UNL     1      43.693  18.174  22.281  0.00  0.00    -0.307 OA
ENDBRANCH   3   2
TORSDOF 2
ENDMDL
MODEL 8
REMARK VINA RESULT:      -5.6      2.652      6.882
REMARK  Name = ZINC14504006
REMARK  3 active torsions:
REMARK  status: ('A' for Active; 'I' for Inactive)
REMARK    1  A    between atoms: C1_1  and  O1_2
REMARK    2  A    between atoms: O1_2  and  C2_3
REMARK    3  A    between atoms: C7_9  and  C13_17
REMARK                            x       y       z     vdW  Elec       q    Type
REMARK                         _______ _______ _______ _____ _____    ______ ____
ROOT
ATOM      3  C   UNL     1      50.114  17.762  17.286  0.00  0.00    +0.128 A 
ATOM      4  C   UNL     1      49.116  16.813  17.300  0.00  0.00    +0.044 A 
ATOM      5  C   UNL     1      47.943  17.034  18.031  0.00  0.00    -0.196 A 
ATOM      6  C   UNL     1      46.861  16.031  18.060  0.00  0.00    +0.425 A 
ATOM      7  C   UNL     1      45.708  16.339  18.818  0.00  0.00    -0.151 A 
ATOM      8  C   UNL     1      45.644  17.520  19.489  0.00  0.00    +0.211 A 
ATOM     15  O   UNL     1      46.636  18.422  19.453  0.00  0.00    -0.211 OA
ATOM     16  O   UNL     1      46.957  14.979  17.449  0.00  0.00    -0.470 OA
ATOM     17  C   UNL     1      47.771  18.221  18.754  0.00  0.00    +0.165 A 
ATOM     18  C   UNL     1      48.789  19.183  18.736  0.00  0.00    -0.116 A 
ATOM     19  C   UNL     1      48.959  20.503  19.352  0.00  0.00    -0.025 A 
ATOM     20  C   UNL     1      50.162  20.946  18.960  0.00  0.00    +0.236 A 
ATOM     21  O   UNL     1      50.752  20.035  18.166  0.00  0.00    -0.171 OA
ATOM     22  C   UNL     1      49.962  18.955  18.002  0.00  0.00    +0.085 A 
ENDROOT
BRANCH   8   9
ATOM      9  C   UNL     1      44.435  17.824  20.281  0.00  0.00    -0.075 A 
ATOM     10  C   UNL     1      44.148  17.086  21.433  0.00  0.00    +0.057 A 
ATOM     11  C   UNL     1      43.021  17.379  22.171  0.00  0.00    +0.014 A 
ATOM     12  C   UNL     1      42.168  18.391  21.767  0.00  0.00    +0.038 A 
ATOM     13  C   UNL     1      42.444  19.122  20.625  0.00  0.00    +0.009 A 
ATOM     14  C   UNL     1      43.571  18.844  19.880  0.00  0.00    +0.056 A 
ENDBRANCH   8   9
BRANCH   3   2
ATOM      1  C   UNL     1      51.794  16.218  16.614  0.00  0.00    +0.253 C 
ATOM      2  O   UNL     1      51.251  17.539  16.574  0.00  0.00    -0.307 OA
ENDBRANCH   3   2
TORSDOF 2
ENDMDL
MODEL 9
REMARK VINA RESULT:      -5.5      2.781      6.587
REMARK  Name = ZINC14504006
REMARK  3 active torsions:
REMARK  status: ('A' for Active; 'I' for Inactive)
REMARK    1  A    between atoms: C1_1  and  O1_2
REMARK    2  A    between atoms: O1_2  and  C2_3
REMARK    3  A    between atoms: C7_9  and  C13_17
REMARK                            x       y       z     vdW  Elec       q    Type
REMARK                         _______ _______ _______ _____ _____    ______ ____
ROOT
ATOM      3  C   UNL     1      50.747  17.400  17.247  0.00  0.00    +0.128 A 
ATOM      4  C   UNL     1      49.386  17.213  17.335  0.00  0.00    +0.044 A 
ATOM      5  C   UNL     1      48.579  18.180  17.946  0.00  0.00    -0.196 A 
ATOM      6  C   UNL     1      47.119  17.999  18.053  0.00  0.00    +0.425 A 
ATOM      7  C   UNL     1      46.379  19.029  18.679  0.00  0.00    -0.151 A 
ATOM      8  C   UNL     1      47.030  20.122  19.161  0.00  0.00    +0.211 A 
ATOM     15  O   UNL     1      48.359  20.271  19.058  0.00  0.00    -0.211 OA
ATOM     16  O   UNL     1      46.570  17.002  17.612  0.00  0.00    -0.470 OA
ATOM     17  C   UNL     1      49.147  19.347  18.472  0.00  0.00    +0.165 A 
ATOM     18  C   UNL     1      50.532  19.533  18.379  0.00  0.00    -0.116 A 
ATOM     19  C   UNL     1      51.452  20.595  18.802  0.00  0.00    -0.025 A 
ATOM     20  C   UNL     1      52.677  20.197  18.429  0.00  0.00    +0.236 A 
ATOM     21  O   UNL     1      52.607  19.001  17.820  0.00  0.00    -0.171 OA
ATOM     22  C   UNL     1      51.334  18.560  17.766  0.00  0.00    +0.085 A 
ENDROOT
BRANCH   8   9
ATOM      9  C   UNL     1      46.244  21.185  19.818  0.00  0.00    -0.075 A 
ATOM     10  C   UNL     1      46.775  21.878  20.909  0.00  0.00    +0.057 A 
ATOM     11  C   UNL     1      46.037  22.874  21.514  0.00  0.00    +0.014 A 
ATOM     12  C   UNL     1      44.769  23.178  21.052  0.00  0.00    +0.038 A 
ATOM     13  C   UNL     1      44.234  22.492  19.977  0.00  0.00    +0.009 A 
ATOM     14  C   UNL     1      44.964  21.498  19.358  0.00  0.00    +0.056 A 
ENDBRANCH   8   9
BRANCH   3   2
ATOM      1  C   UNL     1      51.322  15.100  17.057  0.00  0.00    +0.253 C 
ATOM      2  O   UNL     1      51.524  16.456  16.653  0.00  0.00    -0.307 OA
ENDBRANCH   3   2
TORSDOF 2
ENDMDL
