MODEL 1
REMARK VINA RESULT:      -6.4      0.000      0.000
REMARK  Name = ZINC95486352
REMARK  5 active torsions:
REMARK  status: ('A' for Active; 'I' for Inactive)
REMARK    1  A    between atoms: C3_3  and  O6_22
REMARK    2  A    between atoms: C4_4  and  O5_21
REMARK    3  A    between atoms: C6_6  and  C7_7
REMARK    4  A    between atoms: C13_14  and  O3_18
REMARK    5  A    between atoms: C15_16  and  O2_17
REMARK                            x       y       z     vdW  Elec       q    Type
REMARK                         _______ _______ _______ _____ _____    ______ ____
ROOT
ATOM     11  C   UNL     1      44.890  18.625  19.327  0.00  0.00    -0.398 C 
ATOM     12  C   UNL     1      44.370  17.908  20.342  0.00  0.00    +0.214 C 
ATOM     13  O   UNL     1      44.999  16.784  20.775  0.00  0.00    -0.680 OA
ATOM     14  C   UNL     1      43.118  18.344  20.977  0.00  0.00    +0.397 C 
ATOM     15  C   UNL     1      42.285  19.326  20.254  0.00  0.00    -0.189 A 
ATOM     16  C   UNL     1      42.842  20.055  19.200  0.00  0.00    +0.016 A 
ATOM     17  C   UNL     1      42.063  20.955  18.523  0.00  0.00    -0.041 A 
ATOM     18  C   UNL     1      40.734  21.151  18.879  0.00  0.00    +0.141 A 
ATOM     21  C   UNL     1      40.175  20.438  19.930  0.00  0.00    -0.066 A 
ATOM     22  C   UNL     1      40.948  19.523  20.624  0.00  0.00    +0.173 A 
ATOM     25  O   UNL     1      42.779  17.910  22.064  0.00  0.00    -0.446 OA
ATOM     26  C   UNL     1      44.283  19.886  18.805  0.00  0.00    +0.141 C 
ENDROOT
BRANCH  11  10
ATOM      1  C   UNL     1      47.366  18.647  19.116  0.00  0.00    -0.014 A 
ATOM      2  C   UNL     1      48.528  18.192  18.528  0.00  0.00    -0.013 A 
ATOM      3  C   UNL     1      48.472  17.233  17.526  0.00  0.00    +0.033 A 
ATOM      6  C   UNL     1      47.243  16.725  17.108  0.00  0.00    +0.075 A 
ATOM      9  C   UNL     1      46.075  17.176  17.691  0.00  0.00    +0.007 A 
ATOM     10  C   UNL     1      46.129  18.143  18.702  0.00  0.00    +0.084 A 
BRANCH   3   4
ATOM      4  O   UNL     1      49.621  16.788  16.952  0.00  0.00    -0.492 OA
ATOM      5  H   UNL     1      50.204  16.312  17.557  0.00  0.00    +0.370 HD
ENDBRANCH   3   4
BRANCH   6   7
ATOM      7  O   UNL     1      47.195  15.787  16.125  0.00  0.00    -0.492 OA
ATOM      8  H   UNL     1      47.789  15.037  16.268  0.00  0.00    +0.374 HD
ENDBRANCH   6   7
ENDBRANCH  11  10
BRANCH  18  19
ATOM     19  O   UNL     1      39.977  22.047  18.195  0.00  0.00    -0.499 OA
ATOM     20  H   UNL     1      40.109  22.964  18.470  0.00  0.00    +0.391 HD
ENDBRANCH  18  19
BRANCH  22  23
ATOM     23  O   UNL     1      40.414  18.821  21.656  0.00  0.00    -0.483 OA
ATOM     24  H   UNL     1      40.263  19.346  22.452  0.00  0.00    +0.396 HD
ENDBRANCH  22  23
TORSDOF 5
ENDMDL
MODEL 2
REMARK VINA RESULT:      -6.2      2.826      7.894
REMARK  Name = ZINC95486352
REMARK  5 active torsions:
REMARK  status: ('A' for Active; 'I' for Inactive)
REMARK    1  A    between atoms: C3_3  and  O6_22
REMARK    2  A    between atoms: C4_4  and  O5_21
REMARK    3  A    between atoms: C6_6  and  C7_7
REMARK    4  A    between atoms: C13_14  and  O3_18
REMARK    5  A    between atoms: C15_16  and  O2_17
REMARK                            x       y       z     vdW  Elec       q    Type
REMARK                         _______ _______ _______ _____ _____    ______ ____
ROOT
ATOM     11  C   UNL     1      47.719  19.415  18.914  0.00  0.00    -0.398 C 
ATOM     12  C   UNL     1      48.050  18.231  18.362  0.00  0.00    +0.214 C 
ATOM     13  O   UNL     1      47.150  17.214  18.338  0.00  0.00    -0.680 OA
ATOM     14  C   UNL     1      49.391  18.044  17.787  0.00  0.00    +0.397 C 
ATOM     15  C   UNL     1      50.440  19.013  18.159  0.00  0.00    -0.189 A 
ATOM     16  C   UNL     1      50.076  20.233  18.737  0.00  0.00    +0.016 A 
ATOM     17  C   UNL     1      51.053  21.123  19.094  0.00  0.00    -0.041 A 
ATOM     18  C   UNL     1      52.394  20.828  18.879  0.00  0.00    +0.141 A 
ATOM     21  C   UNL     1      52.765  19.624  18.297  0.00  0.00    -0.066 A 
ATOM     22  C   UNL     1      51.790  18.711  17.933  0.00  0.00    +0.173 A 
ATOM     25  O   UNL     1      49.627  17.120  17.029  0.00  0.00    -0.446 OA
ATOM     26  C   UNL     1      48.634  20.594  18.960  0.00  0.00    +0.141 C 
ENDROOT
BRANCH  11  10
ATOM      1  C   UNL     1      46.169  19.253  20.850  0.00  0.00    -0.014 A 
ATOM      2  C   UNL     1      44.910  19.385  21.397  0.00  0.00    -0.013 A 
ATOM      3  C   UNL     1      43.850  19.818  20.612  0.00  0.00    +0.033 A 
ATOM      6  C   UNL     1      44.052  20.119  19.266  0.00  0.00    +0.075 A 
ATOM      9  C   UNL     1      45.309  19.989  18.709  0.00  0.00    +0.007 A 
ATOM     10  C   UNL     1      46.379  19.554  19.500  0.00  0.00    +0.084 A 
BRANCH   3   4
ATOM      4  O   UNL     1      42.612  19.946  21.158  0.00  0.00    -0.492 OA
ATOM      5  H   UNL     1      42.615  20.051  22.119  0.00  0.00    +0.370 HD
ENDBRANCH   3   4
BRANCH   6   7
ATOM      7  O   UNL     1      43.010  20.541  18.501  0.00  0.00    -0.492 OA
ATOM      8  H   UNL     1      42.218  20.771  19.007  0.00  0.00    +0.374 HD
ENDBRANCH   6   7
ENDBRANCH  11  10
BRANCH  18  19
ATOM     19  O   UNL     1      53.348  21.723  19.240  0.00  0.00    -0.499 OA
ATOM     20  H   UNL     1      53.055  22.364  19.903  0.00  0.00    +0.391 HD
ENDBRANCH  18  19
BRANCH  22  23
ATOM     23  O   UNL     1      52.139  17.530  17.362  0.00  0.00    -0.483 OA
ATOM     24  H   UNL     1      52.985  17.180  17.669  0.00  0.00    +0.396 HD
ENDBRANCH  22  23
TORSDOF 5
ENDMDL
MODEL 3
REMARK VINA RESULT:      -6.2      3.220      4.355
REMARK  Name = ZINC95486352
REMARK  5 active torsions:
REMARK  status: ('A' for Active; 'I' for Inactive)
REMARK    1  A    between atoms: C3_3  and  O6_22
REMARK    2  A    between atoms: C4_4  and  O5_21
REMARK    3  A    between atoms: C6_6  and  C7_7
REMARK    4  A    between atoms: C13_14  and  O3_18
REMARK    5  A    between atoms: C15_16  and  O2_17
REMARK                            x       y       z     vdW  Elec       q    Type
REMARK                         _______ _______ _______ _____ _____    ______ ____
ROOT
ATOM     11  C   UNL     1      48.144  20.367  20.021  0.00  0.00    -0.398 C 
ATOM     12  C   UNL     1      47.806  19.065  20.114  0.00  0.00    +0.214 C 
ATOM     13  O   UNL     1      48.760  18.103  20.012  0.00  0.00    -0.680 OA
ATOM     14  C   UNL     1      46.399  18.691  20.325  0.00  0.00    +0.397 C 
ATOM     15  C   UNL     1      45.368  19.713  20.058  0.00  0.00    -0.189 A 
ATOM     16  C   UNL     1      45.741  21.056  19.958  0.00  0.00    +0.016 A 
ATOM     17  C   UNL     1      44.784  21.999  19.697  0.00  0.00    -0.041 A 
ATOM     18  C   UNL     1      43.451  21.633  19.539  0.00  0.00    +0.141 A 
ATOM     21  C   UNL     1      43.071  20.303  19.646  0.00  0.00    -0.066 A 
ATOM     22  C   UNL     1      44.026  19.336  19.907  0.00  0.00    +0.173 A 
ATOM     25  O   UNL     1      46.096  17.575  20.707  0.00  0.00    -0.446 OA
ATOM     26  C   UNL     1      47.167  21.489  20.149  0.00  0.00    +0.141 C 
ENDROOT
BRANCH  11  10
ATOM      1  C   UNL     1      50.426  20.868  20.867  0.00  0.00    -0.014 A 
ATOM      2  C   UNL     1      51.751  21.179  20.644  0.00  0.00    -0.013 A 
ATOM      3  C   UNL     1      52.223  21.326  19.346  0.00  0.00    +0.033 A 
ATOM      6  C   UNL     1      51.361  21.159  18.263  0.00  0.00    +0.075 A 
ATOM      9  C   UNL     1      50.033  20.848  18.478  0.00  0.00    +0.007 A 
ATOM     10  C   UNL     1      49.555  20.699  19.785  0.00  0.00    +0.084 A 
BRANCH   3   4
ATOM      4  O   UNL     1      53.530  21.632  19.133  0.00  0.00    -0.492 OA
ATOM      5  H   UNL     1      54.024  20.944  18.668  0.00  0.00    +0.370 HD
ENDBRANCH   3   4
BRANCH   6   7
ATOM      7  O   UNL     1      51.829  21.305  16.995  0.00  0.00    -0.492 OA
ATOM      8  H   UNL     1      51.894  22.225  16.703  0.00  0.00    +0.374 HD
ENDBRANCH   6   7
ENDBRANCH  11  10
BRANCH  18  19
ATOM     19  O   UNL     1      42.517  22.583  19.280  0.00  0.00    -0.499 OA
ATOM     20  H   UNL     1      42.216  23.063  20.063  0.00  0.00    +0.391 HD
ENDBRANCH  18  19
BRANCH  22  23
ATOM     23  O   UNL     1      43.667  18.032  20.016  0.00  0.00    -0.483 OA
ATOM     24  H   UNL     1      43.813  17.656  20.894  0.00  0.00    +0.396 HD
ENDBRANCH  22  23
TORSDOF 5
ENDMDL
MODEL 4
REMARK VINA RESULT:      -6.1      2.741      6.091
REMARK  Name = ZINC95486352
REMARK  5 active torsions:
REMARK  status: ('A' for Active; 'I' for Inactive)
REMARK    1  A    between atoms: C3_3  and  O6_22
REMARK    2  A    between atoms: C4_4  and  O5_21
REMARK    3  A    between atoms: C6_6  and  C7_7
REMARK    4  A    between atoms: C13_14  and  O3_18
REMARK    5  A    between atoms: C15_16  and  O2_17
REMARK                            x       y       z     vdW  Elec       q    Type
REMARK                         _______ _______ _______ _____ _____    ______ ____
ROOT
ATOM     11  C   UNL     1      45.144  19.475  19.875  0.00  0.00    -0.398 C 
ATOM     12  C   UNL     1      44.751  18.645  20.861  0.00  0.00    +0.214 C 
ATOM     13  O   UNL     1      44.422  19.143  22.082  0.00  0.00    -0.680 OA
ATOM     14  C   UNL     1      44.684  17.197  20.612  0.00  0.00    +0.397 C 
ATOM     15  C   UNL     1      45.391  16.669  19.429  0.00  0.00    -0.189 A 
ATOM     16  C   UNL     1      45.795  17.549  18.421  0.00  0.00    +0.016 A 
ATOM     17  C   UNL     1      46.464  17.057  17.332  0.00  0.00    -0.041 A 
ATOM     18  C   UNL     1      46.735  15.697  17.220  0.00  0.00    +0.141 A 
ATOM     21  C   UNL     1      46.329  14.816  18.212  0.00  0.00    -0.066 A 
ATOM     22  C   UNL     1      45.654  15.297  19.321  0.00  0.00    +0.173 A 
ATOM     25  O   UNL     1      44.064  16.459  21.357  0.00  0.00    -0.446 OA
ATOM     26  C   UNL     1      45.497  19.019  18.498  0.00  0.00    +0.141 C 
ENDROOT
BRANCH  11  10
ATOM      1  C   UNL     1      46.195  21.395  21.054  0.00  0.00    -0.014 A 
ATOM      2  C   UNL     1      46.267  22.744  21.329  0.00  0.00    -0.013 A 
ATOM      3  C   UNL     1      45.376  23.626  20.732  0.00  0.00    +0.033 A 
ATOM      6  C   UNL     1      44.404  23.153  19.852  0.00  0.00    +0.075 A 
ATOM      9  C   UNL     1      44.325  21.803  19.571  0.00  0.00    +0.007 A 
ATOM     10  C   UNL     1      45.222  20.912  20.171  0.00  0.00    +0.084 A 
BRANCH   3   4
ATOM      4  O   UNL     1      45.453  24.954  21.007  0.00  0.00    -0.492 OA
ATOM      5  H   UNL     1      46.353  25.272  21.164  0.00  0.00    +0.370 HD
ENDBRANCH   3   4
BRANCH   6   7
ATOM      7  O   UNL     1      43.534  24.021  19.271  0.00  0.00    -0.492 OA
ATOM      8  H   UNL     1      43.954  24.664  18.683  0.00  0.00    +0.374 HD
ENDBRANCH   6   7
ENDBRANCH  11  10
BRANCH  18  19
ATOM     19  O   UNL     1      47.400  15.230  16.133  0.00  0.00    -0.499 OA
ATOM     20  H   UNL     1      46.899  15.295  15.308  0.00  0.00    +0.391 HD
ENDBRANCH  18  19
BRANCH  22  23
ATOM     23  O   UNL     1      45.250  14.445  20.297  0.00  0.00    -0.483 OA
ATOM     24  H   UNL     1      45.464  14.743  21.192  0.00  0.00    +0.396 HD
ENDBRANCH  22  23
TORSDOF 5
ENDMDL
MODEL 5
REMARK VINA RESULT:      -6.1      3.695      7.896
REMARK  Name = ZINC95486352
REMARK  5 active torsions:
REMARK  status: ('A' for Active; 'I' for Inactive)
REMARK    1  A    between atoms: C3_3  and  O6_22
REMARK    2  A    between atoms: C4_4  and  O5_21
REMARK    3  A    between atoms: C6_6  and  C7_7
REMARK    4  A    between atoms: C13_14  and  O3_18
REMARK    5  A    between atoms: C15_16  and  O2_17
REMARK                            x       y       z     vdW  Elec       q    Type
REMARK                         _______ _______ _______ _____ _____    ______ ____
ROOT
ATOM     11  C   UNL     1      47.192  20.786  19.971  0.00  0.00    -0.398 C 
ATOM     12  C   UNL     1      47.715  20.877  21.209  0.00  0.00    +0.214 C 
ATOM     13  O   UNL     1      46.907  21.117  22.275  0.00  0.00    -0.680 OA
ATOM     14  C   UNL     1      49.164  20.717  21.403  0.00  0.00    +0.397 C 
ATOM     15  C   UNL     1      50.033  20.833  20.215  0.00  0.00    -0.189 A 
ATOM     16  C   UNL     1      49.469  20.743  18.939  0.00  0.00    +0.016 A 
ATOM     17  C   UNL     1      50.277  20.866  17.840  0.00  0.00    -0.041 A 
ATOM     18  C   UNL     1      51.645  21.070  17.984  0.00  0.00    +0.141 A 
ATOM     21  C   UNL     1      52.214  21.151  19.247  0.00  0.00    -0.066 A 
ATOM     22  C   UNL     1      51.412  21.032  20.369  0.00  0.00    +0.173 A 
ATOM     25  O   UNL     1      49.631  20.496  22.505  0.00  0.00    -0.446 OA
ATOM     26  C   UNL     1      47.999  20.498  18.748  0.00  0.00    +0.141 C 
ENDROOT
BRANCH  11  10
ATOM      1  C   UNL     1      44.883  19.873  19.845  0.00  0.00    -0.014 A 
ATOM      2  C   UNL     1      43.524  20.055  19.700  0.00  0.00    -0.013 A 
ATOM      3  C   UNL     1      43.006  21.330  19.526  0.00  0.00    +0.033 A 
ATOM      6  C   UNL     1      43.856  22.435  19.496  0.00  0.00    +0.075 A 
ATOM      9  C   UNL     1      45.219  22.262  19.640  0.00  0.00    +0.007 A 
ATOM     10  C   UNL     1      45.743  20.977  19.816  0.00  0.00    +0.084 A 
BRANCH   3   4
ATOM      4  O   UNL     1      41.665  21.502  19.384  0.00  0.00    -0.492 OA
ATOM      5  H   UNL     1      41.141  20.730  19.636  0.00  0.00    +0.370 HD
ENDBRANCH   3   4
BRANCH   6   7
ATOM      7  O   UNL     1      43.343  23.683  19.324  0.00  0.00    -0.492 OA
ATOM      8  H   UNL     1      43.149  23.904  18.403  0.00  0.00    +0.374 HD
ENDBRANCH   6   7
ENDBRANCH  11  10
BRANCH  18  19
ATOM     19  O   UNL     1      52.428  21.189  16.883  0.00  0.00    -0.499 OA
ATOM     20  H   UNL     1      51.934  21.233  16.052  0.00  0.00    +0.391 HD
ENDBRANCH  18  19
BRANCH  22  23
ATOM     23  O   UNL     1      51.956  21.108  21.610  0.00  0.00    -0.483 OA
ATOM     24  H   UNL     1      51.331  20.930  22.325  0.00  0.00    +0.396 HD
ENDBRANCH  22  23
TORSDOF 5
ENDMDL
MODEL 6
REMARK VINA RESULT:      -6.0      3.200      7.579
REMARK  Name = ZINC95486352
REMARK  5 active torsions:
REMARK  status: ('A' for Active; 'I' for Inactive)
REMARK    1  A    between atoms: C3_3  and  O6_22
REMARK    2  A    between atoms: C4_4  and  O5_21
REMARK    3  A    between atoms: C6_6  and  C7_7
REMARK    4  A    between atoms: C13_14  and  O3_18
REMARK    5  A    between atoms: C15_16  and  O2_17
REMARK                            x       y       z     vdW  Elec       q    Type
REMARK                         _______ _______ _______ _____ _____    ______ ____
ROOT
ATOM     11  C   UNL     1      46.988  19.862  18.993  0.00  0.00    -0.398 C 
ATOM     12  C   UNL     1      46.336  18.812  18.455  0.00  0.00    +0.214 C 
ATOM     13  O   UNL     1      44.999  18.669  18.647  0.00  0.00    -0.680 OA
ATOM     14  C   UNL     1      47.078  17.821  17.663  0.00  0.00    +0.397 C 
ATOM     15  C   UNL     1      48.549  17.801  17.790  0.00  0.00    -0.189 A 
ATOM     16  C   UNL     1      49.205  18.897  18.356  0.00  0.00    +0.016 A 
ATOM     17  C   UNL     1      50.568  18.869  18.484  0.00  0.00    -0.041 A 
ATOM     18  C   UNL     1      51.299  17.768  18.051  0.00  0.00    +0.141 A 
ATOM     21  C   UNL     1      50.657  16.679  17.479  0.00  0.00    -0.066 A 
ATOM     22  C   UNL     1      49.279  16.690  17.344  0.00  0.00    +0.173 A 
ATOM     25  O   UNL     1      46.499  17.042  16.927  0.00  0.00    -0.446 OA
ATOM     26  C   UNL     1      48.449  20.114  18.811  0.00  0.00    +0.141 C 
ENDROOT
BRANCH  11  10
ATOM      1  C   UNL     1      46.274  20.766  21.196  0.00  0.00    -0.014 A 
ATOM      2  C   UNL     1      45.549  21.664  21.949  0.00  0.00    -0.013 A 
ATOM      3  C   UNL     1      44.760  22.621  21.325  0.00  0.00    +0.033 A 
ATOM      6  C   UNL     1      44.696  22.679  19.934  0.00  0.00    +0.075 A 
ATOM      9  C   UNL     1      45.419  21.782  19.171  0.00  0.00    +0.007 A 
ATOM     10  C   UNL     1      46.215  20.818  19.799  0.00  0.00    +0.084 A 
BRANCH   3   4
ATOM      4  O   UNL     1      44.048  23.503  22.074  0.00  0.00    -0.492 OA
ATOM      5  H   UNL     1      43.110  23.284  22.155  0.00  0.00    +0.370 HD
ENDBRANCH   3   4
BRANCH   6   7
ATOM      7  O   UNL     1      43.920  23.617  19.328  0.00  0.00    -0.492 OA
ATOM      8  H   UNL     1      42.972  23.430  19.370  0.00  0.00    +0.374 HD
ENDBRANCH   6   7
ENDBRANCH  11  10
BRANCH  18  19
ATOM     19  O   UNL     1      52.649  17.759  18.188  0.00  0.00    -0.499 OA
ATOM     20  H   UNL     1      52.974  18.305  18.918  0.00  0.00    +0.391 HD
ENDBRANCH  18  19
BRANCH  22  23
ATOM     23  O   UNL     1      48.639  15.632  16.785  0.00  0.00    -0.483 OA
ATOM     24  H   UNL     1      49.101  15.248  16.028  0.00  0.00    +0.396 HD
ENDBRANCH  22  23
TORSDOF 5
ENDMDL
MODEL 7
REMARK VINA RESULT:      -5.8      1.163      1.321
REMARK  Name = ZINC95486352
REMARK  5 active torsions:
REMARK  status: ('A' for Active; 'I' for Inactive)
REMARK    1  A    between atoms: C3_3  and  O6_22
REMARK    2  A    between atoms: C4_4  and  O5_21
REMARK    3  A    between atoms: C6_6  and  C7_7
REMARK    4  A    between atoms: C13_14  and  O3_18
REMARK    5  A    between atoms: C15_16  and  O2_17
REMARK                            x       y       z     vdW  Elec       q    Type
REMARK                         _______ _______ _______ _____ _____    ______ ____
ROOT
ATOM     11  C   UNL     1      45.429  17.483  19.292  0.00  0.00    -0.398 C 
ATOM     12  C   UNL     1      44.787  16.834  20.284  0.00  0.00    +0.214 C 
ATOM     13  O   UNL     1      45.185  15.588  20.653  0.00  0.00    -0.680 OA
ATOM     14  C   UNL     1      43.654  17.478  20.964  0.00  0.00    +0.397 C 
ATOM     15  C   UNL     1      43.026  18.639  20.304  0.00  0.00    -0.189 A 
ATOM     16  C   UNL     1      43.705  19.294  19.273  0.00  0.00    +0.016 A 
ATOM     17  C   UNL     1      43.113  20.362  18.653  0.00  0.00    -0.041 A 
ATOM     18  C   UNL     1      41.853  20.801  19.045  0.00  0.00    +0.141 A 
ATOM     21  C   UNL     1      41.176  20.163  20.074  0.00  0.00    -0.066 A 
ATOM     22  C   UNL     1      41.758  19.080  20.709  0.00  0.00    +0.173 A 
ATOM     25  O   UNL     1      43.248  17.068  22.036  0.00  0.00    -0.446 OA
ATOM     26  C   UNL     1      45.079  18.863  18.841  0.00  0.00    +0.141 C 
ENDROOT
BRANCH  11  10
ATOM      1  C   UNL     1      47.847  16.940  19.100  0.00  0.00    -0.014 A 
ATOM      2  C   UNL     1      48.888  16.293  18.469  0.00  0.00    -0.013 A 
ATOM      3  C   UNL     1      48.643  15.497  17.358  0.00  0.00    +0.033 A 
ATOM      6  C   UNL     1      47.344  15.348  16.875  0.00  0.00    +0.075 A 
ATOM      9  C   UNL     1      46.295  15.993  17.501  0.00  0.00    +0.007 A 
ATOM     10  C   UNL     1      46.540  16.795  18.621  0.00  0.00    +0.084 A 
BRANCH   3   4
ATOM      4  O   UNL     1      49.673  14.862  16.741  0.00  0.00    -0.492 OA
ATOM      5  H   UNL     1      49.397  14.239  16.055  0.00  0.00    +0.370 HD
ENDBRANCH   3   4
BRANCH   6   7
ATOM      7  O   UNL     1      47.110  14.567  15.786  0.00  0.00    -0.492 OA
ATOM      8  H   UNL     1      46.551  13.799  15.966  0.00  0.00    +0.374 HD
ENDBRANCH   6   7
ENDBRANCH  11  10
BRANCH  18  19
ATOM     19  O   UNL     1      41.283  21.861  18.418  0.00  0.00    -0.499 OA
ATOM     20  H   UNL     1      41.639  22.718  18.691  0.00  0.00    +0.391 HD
ENDBRANCH  18  19
BRANCH  22  23
ATOM     23  O   UNL     1      41.107  18.448  21.718  0.00  0.00    -0.483 OA
ATOM     24  H   UNL     1      41.258  17.494  21.746  0.00  0.00    +0.396 HD
ENDBRANCH  22  23
TORSDOF 5
ENDMDL
MODEL 8
REMARK VINA RESULT:      -5.8      3.356      8.102
REMARK  Name = ZINC95486352
REMARK  5 active torsions:
REMARK  status: ('A' for Active; 'I' for Inactive)
REMARK    1  A    between atoms: C3_3  and  O6_22
REMARK    2  A    between atoms: C4_4  and  O5_21
REMARK    3  A    between atoms: C6_6  and  C7_7
REMARK    4  A    between atoms: C13_14  and  O3_18
REMARK    5  A    between atoms: C15_16  and  O2_17
REMARK                            x       y       z     vdW  Elec       q    Type
REMARK                         _______ _______ _______ _____ _____    ______ ____
ROOT
ATOM     11  C   UNL     1      48.061  19.883  19.749  0.00  0.00    -0.398 C 
ATOM     12  C   UNL     1      48.848  20.758  20.406  0.00  0.00    +0.214 C 
ATOM     13  O   UNL     1      48.304  21.630  21.294  0.00  0.00    -0.680 OA
ATOM     14  C   UNL     1      50.297  20.765  20.157  0.00  0.00    +0.397 C 
ATOM     15  C   UNL     1      50.790  20.085  18.944  0.00  0.00    -0.189 A 
ATOM     16  C   UNL     1      49.955  19.186  18.273  0.00  0.00    +0.016 A 
ATOM     17  C   UNL     1      50.411  18.567  17.140  0.00  0.00    -0.041 A 
ATOM     18  C   UNL     1      51.692  18.819  16.660  0.00  0.00    +0.141 A 
ATOM     21  C   UNL     1      52.530  19.702  17.325  0.00  0.00    -0.066 A 
ATOM     22  C   UNL     1      52.084  20.339  18.471  0.00  0.00    +0.173 A 
ATOM     25  O   UNL     1      51.064  21.315  20.927  0.00  0.00    -0.446 OA
ATOM     26  C   UNL     1      48.575  18.871  18.778  0.00  0.00    +0.141 C 
ENDROOT
BRANCH  11  10
ATOM      1  C   UNL     1      46.039  19.029  20.916  0.00  0.00    -0.014 A 
ATOM      2  C   UNL     1      44.682  19.070  21.156  0.00  0.00    -0.013 A 
ATOM      3  C   UNL     1      43.885  19.997  20.499  0.00  0.00    +0.033 A 
ATOM      6  C   UNL     1      44.451  20.891  19.591  0.00  0.00    +0.075 A 
ATOM      9  C   UNL     1      45.810  20.857  19.344  0.00  0.00    +0.007 A 
ATOM     10  C   UNL     1      46.615  19.923  20.007  0.00  0.00    +0.084 A 
BRANCH   3   4
ATOM      4  O   UNL     1      42.548  20.032  20.741  0.00  0.00    -0.492 OA
ATOM      5  H   UNL     1      42.130  20.873  20.514  0.00  0.00    +0.370 HD
ENDBRANCH   3   4
BRANCH   6   7
ATOM      7  O   UNL     1      43.666  21.796  18.949  0.00  0.00    -0.492 OA
ATOM      8  H   UNL     1      42.718  21.663  19.090  0.00  0.00    +0.374 HD
ENDBRANCH   6   7
ENDBRANCH  11  10
BRANCH  18  19
ATOM     19  O   UNL     1      52.125  18.196  15.535  0.00  0.00    -0.499 OA
ATOM     20  H   UNL     1      52.566  17.351  15.698  0.00  0.00    +0.391 HD
ENDBRANCH  18  19
BRANCH  22  23
ATOM     23  O   UNL     1      52.895  21.203  19.132  0.00  0.00    -0.483 OA
ATOM     24  H   UNL     1      52.422  21.852  19.671  0.00  0.00    +0.396 HD
ENDBRANCH  22  23
TORSDOF 5
ENDMDL
MODEL 9
REMARK VINA RESULT:      -5.7      3.187      4.458
REMARK  Name = ZINC95486352
REMARK  5 active torsions:
REMARK  status: ('A' for Active; 'I' for Inactive)
REMARK    1  A    between atoms: C3_3  and  O6_22
REMARK    2  A    between atoms: C4_4  and  O5_21
REMARK    3  A    between atoms: C6_6  and  C7_7
REMARK    4  A    between atoms: C13_14  and  O3_18
REMARK    5  A    between atoms: C15_16  and  O2_17
REMARK                            x       y       z     vdW  Elec       q    Type
REMARK                         _______ _______ _______ _____ _____    ______ ____
ROOT
ATOM     11  C   UNL     1      48.088  19.649  19.400  0.00  0.00    -0.398 C 
ATOM     12  C   UNL     1      47.079  19.140  18.666  0.00  0.00    +0.214 C 
ATOM     13  O   UNL     1      47.327  18.176  17.741  0.00  0.00    -0.680 OA
ATOM     14  C   UNL     1      45.709  19.634  18.868  0.00  0.00    +0.397 C 
ATOM     15  C   UNL     1      45.538  20.911  19.588  0.00  0.00    -0.189 A 
ATOM     16  C   UNL     1      46.599  21.425  20.338  0.00  0.00    +0.016 A 
ATOM     17  C   UNL     1      46.441  22.618  20.993  0.00  0.00    -0.041 A 
ATOM     18  C   UNL     1      45.237  23.311  20.923  0.00  0.00    +0.141 A 
ATOM     21  C   UNL     1      44.175  22.804  20.189  0.00  0.00    -0.066 A 
ATOM     22  C   UNL     1      44.319  21.601  19.518  0.00  0.00    +0.173 A 
ATOM     25  O   UNL     1      44.748  19.010  18.455  0.00  0.00    -0.446 OA
ATOM     26  C   UNL     1      47.904  20.689  20.456  0.00  0.00    +0.141 C 
ENDROOT
BRANCH  11  10
ATOM      1  C   UNL     1      49.875  17.957  19.750  0.00  0.00    -0.014 A 
ATOM      2  C   UNL     1      51.150  17.488  19.514  0.00  0.00    -0.013 A 
ATOM      3  C   UNL     1      52.010  18.193  18.683  0.00  0.00    +0.033 A 
ATOM      6  C   UNL     1      51.590  19.379  18.083  0.00  0.00    +0.075 A 
ATOM      9  C   UNL     1      50.315  19.857  18.314  0.00  0.00    +0.007 A 
ATOM     10  C   UNL     1      49.446  19.147  19.151  0.00  0.00    +0.084 A 
BRANCH   3   4
ATOM      4  O   UNL     1      53.265  17.724  18.454  0.00  0.00    -0.492 OA
ATOM      5  H   UNL     1      53.876  17.862  19.190  0.00  0.00    +0.370 HD
ENDBRANCH   3   4
BRANCH   6   7
ATOM      7  O   UNL     1      52.437  20.066  17.270  0.00  0.00    -0.492 OA
ATOM      8  H   UNL     1      53.146  19.526  16.895  0.00  0.00    +0.374 HD
ENDBRANCH   6   7
ENDBRANCH  11  10
BRANCH  18  19
ATOM     19  O   UNL     1      45.101  24.491  21.579  0.00  0.00    -0.499 OA
ATOM     20  H   UNL     1      45.915  25.012  21.625  0.00  0.00    +0.391 HD
ENDBRANCH  18  19
BRANCH  22  23
ATOM     23  O   UNL     1      43.288  21.093  18.797  0.00  0.00    -0.483 OA
ATOM     24  H   UNL     1      42.512  20.867  19.327  0.00  0.00    +0.396 HD
ENDBRANCH  22  23
TORSDOF 5
ENDMDL
