MODEL 1
REMARK VINA RESULT:      -5.2      0.000      0.000
REMARK  Name = ZINC95486291
REMARK  8 active torsions:
REMARK  status: ('A' for Active; 'I' for Inactive)
REMARK    1  A    between atoms: C1_1  and  C2_2
REMARK    2  A    between atoms: C6_9  and  C18_29
REMARK    3  A    between atoms: C9_15  and  C16_27
REMARK    4  A    between atoms: C11_18  and  O3_20
REMARK    5  A    between atoms: O3_20  and  C12_21
REMARK    6  A    between atoms: C12_21  and  C13_23
REMARK    7  A    between atoms: C13_23  and  C15_25
REMARK    8  A    between atoms: C15_25  and  O5_26
REMARK                            x       y       z     vdW  Elec       q    Type
REMARK                         _______ _______ _______ _____ _____    ______ ____
ROOT
ATOM      1  C   UNL     1      44.592  22.930  19.535  0.00  0.00    +0.078 C 
ATOM      2  C   UNL     1      45.521  21.788  19.969  0.00  0.00    -0.029 C 
ATOM      3  C   UNL     1      45.118  20.481  19.244  0.00  0.00    -0.013 C 
ATOM      4  C   UNL     1      44.131  19.893  20.271  0.00  0.00    +0.184 C 
ATOM      5  O   UNL     1      44.685  20.245  21.550  0.00  0.00    -0.316 OA
ATOM      6  C   UNL     1      43.877  18.405  20.132  0.00  0.00    +0.108 C 
ATOM      7  C   UNL     1      44.749  17.594  21.058  0.00  0.00    -0.063 C 
ATOM     10  C   UNL     1      45.265  16.312  20.472  0.00  0.00    +0.510 C 
ATOM     11  O   UNL     1      46.387  16.416  19.717  0.00  0.00    -0.374 OA
ATOM     12  C   UNL     1      46.159  16.429  18.303  0.00  0.00    +0.235 C 
ATOM     13  C   UNL     1      46.962  17.551  17.636  0.00  0.00    +0.031 C 
ATOM     16  C   UNL     1      46.187  18.863  17.672  0.00  0.00    +0.065 C 
ATOM     17  O   UNL     1      44.709  15.253  20.661  0.00  0.00    -0.437 OA
ATOM     18  C   UNL     1      46.348  19.607  19.001  0.00  0.00    +0.194 C 
ATOM     27  C   UNL     1      45.278  21.442  21.420  0.00  0.00    +0.476 C 
ATOM     28  O   UNL     1      45.577  22.162  22.341  0.00  0.00    -0.442 OA
ENDROOT
BRANCH   7   8
ATOM      8  C   UNL     1      43.945  17.254  22.288  0.00  0.00    +0.468 C 
ATOM      9  O   UNL     1      42.741  17.343  22.267  0.00  0.00    -0.424 OA
ENDBRANCH   7   8
BRANCH  13  14
ATOM     14  C   UNL     1      48.301  17.678  18.304  0.00  0.00    -0.033 C 
ATOM     15  C   UNL     1      49.395  17.410  17.633  0.00  0.00    +0.015 C 
ENDBRANCH  13  14
BRANCH  18  19
ATOM     19  O   UNL     1      47.513  20.438  18.933  0.00  0.00    -0.334 OA
BRANCH  19  20
ATOM     20  C   UNL     1      48.444  20.268  19.893  0.00  0.00    +0.501 C 
ATOM     26  O   UNL     1      48.137  19.759  20.953  0.00  0.00    -0.490 OA
BRANCH  20  21
ATOM     21  C   UNL     1      49.829  20.698  19.657  0.00  0.00    -0.187 C 
ATOM     25  C   UNL     1      50.232  20.999  18.425  0.00  0.00    +0.208 C 
BRANCH  21  22
ATOM     22  C   UNL     1      50.794  20.797  20.811  0.00  0.00    +0.252 C 
BRANCH  22  23
ATOM     23  O   UNL     1      51.102  19.485  21.287  0.00  0.00    -0.571 OA
ATOM     24  H   UNL     1      50.525  18.793  20.934  0.00  0.00    +0.389 HD
ENDBRANCH  22  23
ENDBRANCH  21  22
ENDBRANCH  20  21
ENDBRANCH  19  20
ENDBRANCH  18  19
TORSDOF 7
ENDMDL
MODEL 2
REMARK VINA RESULT:      -5.0      1.781      4.853
REMARK  Name = ZINC95486291
REMARK  8 active torsions:
REMARK  status: ('A' for Active; 'I' for Inactive)
REMARK    1  A    between atoms: C1_1  and  C2_2
REMARK    2  A    between atoms: C6_9  and  C18_29
REMARK    3  A    between atoms: C9_15  and  C16_27
REMARK    4  A    between atoms: C11_18  and  O3_20
REMARK    5  A    between atoms: O3_20  and  C12_21
REMARK    6  A    between atoms: C12_21  and  C13_23
REMARK    7  A    between atoms: C13_23  and  C15_25
REMARK    8  A    between atoms: C15_25  and  O5_26
REMARK                            x       y       z     vdW  Elec       q    Type
REMARK                         _______ _______ _______ _____ _____    ______ ____
ROOT
ATOM      1  C   UNL     1      46.981  14.819  21.556  0.00  0.00    +0.078 C 
ATOM      2  C   UNL     1      46.909  15.904  20.473  0.00  0.00    -0.029 C 
ATOM      3  C   UNL     1      46.735  17.293  21.133  0.00  0.00    -0.013 C 
ATOM      4  C   UNL     1      45.198  17.395  21.152  0.00  0.00    +0.184 C 
ATOM      5  O   UNL     1      44.777  16.763  19.932  0.00  0.00    -0.316 OA
ATOM      6  C   UNL     1      44.654  18.802  21.302  0.00  0.00    +0.108 C 
ATOM      7  C   UNL     1      44.309  19.419  19.969  0.00  0.00    -0.063 C 
ATOM     10  C   UNL     1      44.637  20.880  19.850  0.00  0.00    +0.510 C 
ATOM     11  O   UNL     1      45.916  21.173  19.509  0.00  0.00    -0.374 OA
ATOM     12  C   UNL     1      46.759  21.549  20.605  0.00  0.00    +0.235 C 
ATOM     13  C   UNL     1      48.098  20.808  20.537  0.00  0.00    +0.031 C 
ATOM     16  C   UNL     1      47.997  19.446  21.212  0.00  0.00    +0.065 C 
ATOM     17  O   UNL     1      43.809  21.740  20.051  0.00  0.00    -0.437 OA
ATOM     18  C   UNL     1      47.413  18.372  20.289  0.00  0.00    +0.194 C 
ATOM     27  C   UNL     1      45.632  15.762  19.677  0.00  0.00    +0.476 C 
ATOM     28  O   UNL     1      45.414  14.851  18.914  0.00  0.00    -0.442 OA
ENDROOT
BRANCH   7   8
ATOM      8  C   UNL     1      42.827  19.254  19.740  0.00  0.00    +0.468 C 
ATOM      9  O   UNL     1      42.105  18.946  20.657  0.00  0.00    -0.424 OA
ENDBRANCH   7   8
BRANCH  13  14
ATOM     14  C   UNL     1      48.535  20.688  19.104  0.00  0.00    -0.033 C 
ATOM     15  C   UNL     1      49.789  20.888  18.784  0.00  0.00    +0.015 C 
ENDBRANCH  13  14
BRANCH  18  19
ATOM     19  O   UNL     1      48.476  17.780  19.532  0.00  0.00    -0.334 OA
BRANCH  19  20
ATOM     20  C   UNL     1      48.233  17.526  18.230  0.00  0.00    +0.501 C 
ATOM     26  O   UNL     1      47.279  18.039  17.680  0.00  0.00    -0.490 OA
BRANCH  20  21
ATOM     21  C   UNL     1      49.122  16.631  17.478  0.00  0.00    -0.187 C 
ATOM     25  C   UNL     1      50.361  17.018  17.181  0.00  0.00    +0.208 C 
BRANCH  21  22
ATOM     22  C   UNL     1      48.631  15.274  17.042  0.00  0.00    +0.252 C 
BRANCH  22  23
ATOM     23  O   UNL     1      47.312  15.396  16.505  0.00  0.00    -0.571 OA
ATOM     24  H   UNL     1      46.864  16.218  16.746  0.00  0.00    +0.389 HD
ENDBRANCH  22  23
ENDBRANCH  21  22
ENDBRANCH  20  21
ENDBRANCH  19  20
ENDBRANCH  18  19
TORSDOF 7
ENDMDL
MODEL 3
REMARK VINA RESULT:      -5.0      1.656      4.999
REMARK  Name = ZINC95486291
REMARK  8 active torsions:
REMARK  status: ('A' for Active; 'I' for Inactive)
REMARK    1  A    between atoms: C1_1  and  C2_2
REMARK    2  A    between atoms: C6_9  and  C18_29
REMARK    3  A    between atoms: C9_15  and  C16_27
REMARK    4  A    between atoms: C11_18  and  O3_20
REMARK    5  A    between atoms: O3_20  and  C12_21
REMARK    6  A    between atoms: C12_21  and  C13_23
REMARK    7  A    between atoms: C13_23  and  C15_25
REMARK    8  A    between atoms: C15_25  and  O5_26
REMARK                            x       y       z     vdW  Elec       q    Type
REMARK                         _______ _______ _______ _____ _____    ______ ____
ROOT
ATOM      1  C   UNL     1      50.112  20.759  21.449  0.00  0.00    +0.078 C 
ATOM      2  C   UNL     1      48.858  20.495  20.604  0.00  0.00    -0.029 C 
ATOM      3  C   UNL     1      48.284  19.097  20.938  0.00  0.00    -0.013 C 
ATOM      4  C   UNL     1      49.015  18.244  19.884  0.00  0.00    +0.184 C 
ATOM      5  O   UNL     1      49.089  19.087  18.722  0.00  0.00    -0.316 OA
ATOM      6  C   UNL     1      48.373  16.902  19.593  0.00  0.00    +0.108 C 
ATOM      7  C   UNL     1      47.470  16.956  18.386  0.00  0.00    -0.063 C 
ATOM     10  C   UNL     1      46.211  16.148  18.506  0.00  0.00    +0.510 C 
ATOM     11  O   UNL     1      45.179  16.753  19.145  0.00  0.00    -0.374 OA
ATOM     12  C   UNL     1      45.007  16.363  20.513  0.00  0.00    +0.235 C 
ATOM     13  C   UNL     1      44.807  17.594  21.404  0.00  0.00    +0.031 C 
ATOM     16  C   UNL     1      46.149  18.169  21.839  0.00  0.00    +0.065 C 
ATOM     17  O   UNL     1      46.127  15.024  18.063  0.00  0.00    -0.437 OA
ATOM     18  C   UNL     1      46.764  19.095  20.786  0.00  0.00    +0.194 C 
ATOM     27  C   UNL     1      49.233  20.352  19.147  0.00  0.00    +0.476 C 
ATOM     28  O   UNL     1      49.620  21.266  18.460  0.00  0.00    -0.442 OA
ENDROOT
BRANCH   7   8
ATOM      8  C   UNL     1      48.241  16.443  17.195  0.00  0.00    +0.468 C 
ATOM      9  O   UNL     1      49.289  15.867  17.356  0.00  0.00    -0.424 OA
ENDBRANCH   7   8
BRANCH  13  14
ATOM     14  C   UNL     1      43.975  18.612  20.678  0.00  0.00    -0.033 C 
ATOM     15  C   UNL     1      42.720  18.790  21.013  0.00  0.00    +0.015 C 
ENDBRANCH  13  14
BRANCH  18  19
ATOM     19  O   UNL     1      46.267  20.424  20.987  0.00  0.00    -0.334 OA
BRANCH  19  20
ATOM     20  C   UNL     1      45.675  21.023  19.935  0.00  0.00    +0.501 C 
ATOM     26  O   UNL     1      45.894  20.625  18.808  0.00  0.00    -0.490 OA
BRANCH  20  21
ATOM     21  C   UNL     1      44.764  22.156  20.150  0.00  0.00    -0.187 C 
ATOM     25  C   UNL     1      43.586  22.189  19.532  0.00  0.00    +0.208 C 
BRANCH  21  22
ATOM     22  C   UNL     1      45.165  23.280  21.070  0.00  0.00    +0.252 C 
BRANCH  22  23
ATOM     23  O   UNL     1      44.181  23.428  22.097  0.00  0.00    -0.571 OA
ATOM     24  H   UNL     1      44.184  24.297  22.522  0.00  0.00    +0.389 HD
ENDBRANCH  22  23
ENDBRANCH  21  22
ENDBRANCH  20  21
ENDBRANCH  19  20
ENDBRANCH  18  19
TORSDOF 7
ENDMDL
MODEL 4
REMARK VINA RESULT:      -4.9      1.613      3.508
REMARK  Name = ZINC95486291
REMARK  8 active torsions:
REMARK  status: ('A' for Active; 'I' for Inactive)
REMARK    1  A    between atoms: C1_1  and  C2_2
REMARK    2  A    between atoms: C6_9  and  C18_29
REMARK    3  A    between atoms: C9_15  and  C16_27
REMARK    4  A    between atoms: C11_18  and  O3_20
REMARK    5  A    between atoms: O3_20  and  C12_21
REMARK    6  A    between atoms: C12_21  and  C13_23
REMARK    7  A    between atoms: C13_23  and  C15_25
REMARK    8  A    between atoms: C15_25  and  O5_26
REMARK                            x       y       z     vdW  Elec       q    Type
REMARK                         _______ _______ _______ _____ _____    ______ ____
ROOT
ATOM      1  C   UNL     1      41.850  19.682  19.500  0.00  0.00    +0.078 C 
ATOM      2  C   UNL     1      43.179  19.693  20.267  0.00  0.00    -0.029 C 
ATOM      3  C   UNL     1      44.229  18.844  19.511  0.00  0.00    -0.013 C 
ATOM      4  C   UNL     1      44.005  17.474  20.179  0.00  0.00    +0.184 C 
ATOM      5  O   UNL     1      43.710  17.783  21.551  0.00  0.00    -0.316 OA
ATOM      6  C   UNL     1      45.154  16.497  20.031  0.00  0.00    +0.108 C 
ATOM      7  C   UNL     1      46.070  16.517  21.229  0.00  0.00    -0.063 C 
ATOM     10  C   UNL     1      47.530  16.382  20.906  0.00  0.00    +0.510 C 
ATOM     11  O   UNL     1      48.168  17.527  20.560  0.00  0.00    -0.374 OA
ATOM     12  C   UNL     1      48.350  17.712  19.151  0.00  0.00    +0.235 C 
ATOM     13  C   UNL     1      47.955  19.134  18.738  0.00  0.00    +0.031 C 
ATOM     16  C   UNL     1      46.460  19.219  18.456  0.00  0.00    +0.065 C 
ATOM     17  O   UNL     1      48.098  15.313  20.948  0.00  0.00    -0.437 OA
ATOM     18  C   UNL     1      45.630  19.413  19.728  0.00  0.00    +0.194 C 
ATOM     27  C   UNL     1      43.033  18.941  21.571  0.00  0.00    +0.476 C 
ATOM     28  O   UNL     1      42.380  19.337  22.505  0.00  0.00    -0.442 OA
ENDROOT
BRANCH   7   8
ATOM      8  C   UNL     1      45.687  15.376  22.138  0.00  0.00    +0.468 C 
ATOM      9  O   UNL     1      44.980  14.488  21.728  0.00  0.00    -0.424 OA
ENDBRANCH   7   8
BRANCH  13  14
ATOM     14  C   UNL     1      48.376  20.104  19.804  0.00  0.00    -0.033 C 
ATOM     15  C   UNL     1      49.559  20.665  19.749  0.00  0.00    +0.015 C 
ENDBRANCH  13  14
BRANCH  18  19
ATOM     19  O   UNL     1      45.532  20.814  20.011  0.00  0.00    -0.334 OA
BRANCH  19  20
ATOM     20  C   UNL     1      45.903  21.218  21.243  0.00  0.00    +0.501 C 
ATOM     26  O   UNL     1      45.960  20.415  22.153  0.00  0.00    -0.490 OA
BRANCH  20  21
ATOM     21  C   UNL     1      46.237  22.628  21.485  0.00  0.00    -0.187 C 
ATOM     25  C   UNL     1      47.331  22.944  22.173  0.00  0.00    +0.208 C 
BRANCH  21  22
ATOM     22  C   UNL     1      45.340  23.717  20.953  0.00  0.00    +0.252 C 
BRANCH  22  23
ATOM     23  O   UNL     1      43.975  23.310  21.076  0.00  0.00    -0.571 OA
ATOM     24  H   UNL     1      43.855  22.354  21.151  0.00  0.00    +0.389 HD
ENDBRANCH  22  23
ENDBRANCH  21  22
ENDBRANCH  20  21
ENDBRANCH  19  20
ENDBRANCH  18  19
TORSDOF 7
ENDMDL
MODEL 5
REMARK VINA RESULT:      -4.6      3.027      5.961
REMARK  Name = ZINC95486291
REMARK  8 active torsions:
REMARK  status: ('A' for Active; 'I' for Inactive)
REMARK    1  A    between atoms: C1_1  and  C2_2
REMARK    2  A    between atoms: C6_9  and  C18_29
REMARK    3  A    between atoms: C9_15  and  C16_27
REMARK    4  A    between atoms: C11_18  and  O3_20
REMARK    5  A    between atoms: O3_20  and  C12_21
REMARK    6  A    between atoms: C12_21  and  C13_23
REMARK    7  A    between atoms: C13_23  and  C15_25
REMARK    8  A    between atoms: C15_25  and  O5_26
REMARK                            x       y       z     vdW  Elec       q    Type
REMARK                         _______ _______ _______ _____ _____    ______ ____
ROOT
ATOM      1  C   UNL     1      52.876  14.968  19.057  0.00  0.00    +0.078 C 
ATOM      2  C   UNL     1      51.723  15.834  18.531  0.00  0.00    -0.029 C 
ATOM      3  C   UNL     1      50.616  15.944  19.608  0.00  0.00    -0.013 C 
ATOM      4  C   UNL     1      49.728  14.750  19.210  0.00  0.00    +0.184 C 
ATOM      5  O   UNL     1      49.783  14.719  17.774  0.00  0.00    -0.316 OA
ATOM      6  C   UNL     1      48.310  14.804  19.742  0.00  0.00    +0.108 C 
ATOM      7  C   UNL     1      47.349  15.380  18.732  0.00  0.00    -0.063 C 
ATOM     10  C   UNL     1      46.291  16.274  19.310  0.00  0.00    +0.510 C 
ATOM     11  O   UNL     1      46.652  17.566  19.511  0.00  0.00    -0.374 OA
ATOM     12  C   UNL     1      47.005  17.888  20.861  0.00  0.00    +0.235 C 
ATOM     13  C   UNL     1      48.307  18.695  20.901  0.00  0.00    +0.031 C 
ATOM     16  C   UNL     1      49.516  17.767  20.912  0.00  0.00    +0.065 C 
ATOM     17  O   UNL     1      45.185  15.863  19.583  0.00  0.00    -0.437 OA
ATOM     18  C   UNL     1      49.911  17.296  19.509  0.00  0.00    +0.194 C 
ATOM     27  C   UNL     1      51.008  15.121  17.406  0.00  0.00    +0.476 C 
ATOM     28  O   UNL     1      51.492  14.933  16.315  0.00  0.00    -0.442 OA
ENDROOT
BRANCH   7   8
ATOM      8  C   UNL     1      46.661  14.237  18.028  0.00  0.00    +0.468 C 
ATOM      9  O   UNL     1      46.621  14.206  16.822  0.00  0.00    -0.424 OA
ENDBRANCH   7   8
BRANCH  13  14
ATOM     14  C   UNL     1      48.347  19.647  19.740  0.00  0.00    -0.033 C 
ATOM     15  C   UNL     1      48.143  20.926  19.936  0.00  0.00    +0.015 C 
ENDBRANCH  13  14
BRANCH  18  19
ATOM     19  O   UNL     1      50.805  18.254  18.930  0.00  0.00    -0.334 OA
BRANCH  19  20
ATOM     20  C   UNL     1      50.541  18.656  17.670  0.00  0.00    +0.501 C 
ATOM     26  O   UNL     1      49.641  18.134  17.043  0.00  0.00    -0.490 OA
BRANCH  20  21
ATOM     21  C   UNL     1      51.343  19.723  17.055  0.00  0.00    -0.187 C 
ATOM     25  C   UNL     1      51.312  20.953  17.562  0.00  0.00    +0.208 C 
BRANCH  21  22
ATOM     22  C   UNL     1      52.198  19.425  15.851  0.00  0.00    +0.252 C 
BRANCH  22  23
ATOM     23  O   UNL     1      52.162  18.022  15.578  0.00  0.00    -0.571 OA
ATOM     24  H   UNL     1      53.031  17.631  15.413  0.00  0.00    +0.389 HD
ENDBRANCH  22  23
ENDBRANCH  21  22
ENDBRANCH  20  21
ENDBRANCH  19  20
ENDBRANCH  18  19
TORSDOF 7
ENDMDL
MODEL 6
REMARK VINA RESULT:      -4.6      1.807      2.137
REMARK  Name = ZINC95486291
REMARK  8 active torsions:
REMARK  status: ('A' for Active; 'I' for Inactive)
REMARK    1  A    between atoms: C1_1  and  C2_2
REMARK    2  A    between atoms: C6_9  and  C18_29
REMARK    3  A    between atoms: C9_15  and  C16_27
REMARK    4  A    between atoms: C11_18  and  O3_20
REMARK    5  A    between atoms: O3_20  and  C12_21
REMARK    6  A    between atoms: C12_21  and  C13_23
REMARK    7  A    between atoms: C13_23  and  C15_25
REMARK    8  A    between atoms: C15_25  and  O5_26
REMARK                            x       y       z     vdW  Elec       q    Type
REMARK                         _______ _______ _______ _____ _____    ______ ____
ROOT
ATOM      1  C   UNL     1      45.839  21.390  18.755  0.00  0.00    +0.078 C 
ATOM      2  C   UNL     1      46.689  20.169  19.135  0.00  0.00    -0.029 C 
ATOM      3  C   UNL     1      46.016  18.878  18.612  0.00  0.00    -0.013 C 
ATOM      4  C   UNL     1      45.160  18.501  19.836  0.00  0.00    +0.184 C 
ATOM      5  O   UNL     1      45.965  18.868  20.969  0.00  0.00    -0.316 OA
ATOM      6  C   UNL     1      44.713  17.053  19.880  0.00  0.00    +0.108 C 
ATOM      7  C   UNL     1      45.631  16.203  20.723  0.00  0.00    -0.063 C 
ATOM     10  C   UNL     1      45.884  14.825  20.183  0.00  0.00    +0.510 C 
ATOM     11  O   UNL     1      46.861  14.726  19.249  0.00  0.00    -0.374 OA
ATOM     12  C   UNL     1      46.395  14.666  17.896  0.00  0.00    +0.235 C 
ATOM     13  C   UNL     1      47.196  15.623  17.005  0.00  0.00    +0.031 C 
ATOM     16  C   UNL     1      46.599  17.024  17.044  0.00  0.00    +0.065 C 
ATOM     17  O   UNL     1      45.249  13.865  20.558  0.00  0.00    -0.437 OA
ATOM     18  C   UNL     1      47.073  17.834  18.254  0.00  0.00    +0.194 C 
ATOM     27  C   UNL     1      46.662  19.964  20.633  0.00  0.00    +0.476 C 
ATOM     28  O   UNL     1      47.199  20.704  21.421  0.00  0.00    -0.442 OA
ENDROOT
BRANCH   7   8
ATOM      8  C   UNL     1      45.019  16.061  22.094  0.00  0.00    +0.468 C 
ATOM      9  O   UNL     1      43.850  16.313  22.263  0.00  0.00    -0.424 OA
ENDBRANCH   7   8
BRANCH  13  14
ATOM     14  C   UNL     1      48.636  15.620  17.431  0.00  0.00    -0.033 C 
ATOM     15  C   UNL     1      49.479  14.780  16.882  0.00  0.00    +0.015 C 
ENDBRANCH  13  14
BRANCH  18  19
ATOM     19  O   UNL     1      48.298  18.498  17.919  0.00  0.00    -0.334 OA
BRANCH  19  20
ATOM     20  C   UNL     1      49.282  18.470  18.840  0.00  0.00    +0.501 C 
ATOM     26  O   UNL     1      49.181  17.751  19.815  0.00  0.00    -0.490 OA
BRANCH  20  21
ATOM     21  C   UNL     1      50.477  19.306  18.665  0.00  0.00    -0.187 C 
ATOM     25  C   UNL     1      50.348  20.601  18.383  0.00  0.00    +0.208 C 
BRANCH  21  22
ATOM     22  C   UNL     1      51.850  18.698  18.803  0.00  0.00    +0.252 C 
BRANCH  22  23
ATOM     23  O   UNL     1      52.586  18.908  17.596  0.00  0.00    -0.571 OA
ATOM     24  H   UNL     1      53.143  19.698  17.607  0.00  0.00    +0.389 HD
ENDBRANCH  22  23
ENDBRANCH  21  22
ENDBRANCH  20  21
ENDBRANCH  19  20
ENDBRANCH  18  19
TORSDOF 7
ENDMDL
MODEL 7
REMARK VINA RESULT:      -4.5      2.730      5.878
REMARK  Name = ZINC95486291
REMARK  8 active torsions:
REMARK  status: ('A' for Active; 'I' for Inactive)
REMARK    1  A    between atoms: C1_1  and  C2_2
REMARK    2  A    between atoms: C6_9  and  C18_29
REMARK    3  A    between atoms: C9_15  and  C16_27
REMARK    4  A    between atoms: C11_18  and  O3_20
REMARK    5  A    between atoms: O3_20  and  C12_21
REMARK    6  A    between atoms: C12_21  and  C13_23
REMARK    7  A    between atoms: C13_23  and  C15_25
REMARK    8  A    between atoms: C15_25  and  O5_26
REMARK                            x       y       z     vdW  Elec       q    Type
REMARK                         _______ _______ _______ _____ _____    ______ ____
ROOT
ATOM      1  C   UNL     1      51.423  17.516  19.337  0.00  0.00    +0.078 C 
ATOM      2  C   UNL     1      49.973  17.446  18.838  0.00  0.00    -0.029 C 
ATOM      3  C   UNL     1      49.291  16.169  19.386  0.00  0.00    -0.013 C 
ATOM      4  C   UNL     1      49.596  15.184  18.241  0.00  0.00    +0.184 C 
ATOM      5  O   UNL     1      49.509  15.978  17.046  0.00  0.00    -0.316 OA
ATOM      6  C   UNL     1      48.702  13.961  18.198  0.00  0.00    +0.108 C 
ATOM      7  C   UNL     1      47.548  14.137  17.243  0.00  0.00    -0.063 C 
ATOM     10  C   UNL     1      46.248  13.552  17.714  0.00  0.00    +0.510 C 
ATOM     11  O   UNL     1      45.513  14.332  18.544  0.00  0.00    -0.374 OA
ATOM     12  C   UNL     1      45.629  14.006  19.934  0.00  0.00    +0.235 C 
ATOM     13  C   UNL     1      45.849  15.272  20.770  0.00  0.00    +0.031 C 
ATOM     16  C   UNL     1      47.329  15.627  20.832  0.00  0.00    +0.065 C 
ATOM     17  O   UNL     1      45.884  12.447  17.375  0.00  0.00    -0.437 OA
ATOM     18  C   UNL     1      47.799  16.416  19.606  0.00  0.00    +0.194 C 
ATOM     27  C   UNL     1      49.948  17.210  17.345  0.00  0.00    +0.476 C 
ATOM     28  O   UNL     1      50.290  18.033  16.530  0.00  0.00    -0.442 OA
ENDROOT
BRANCH   7   8
ATOM      8  C   UNL     1      47.909  13.479  15.936  0.00  0.00    +0.468 C 
ATOM      9  O   UNL     1      48.861  12.739  15.874  0.00  0.00    -0.424 OA
ENDBRANCH   7   8
BRANCH  13  14
ATOM     14  C   UNL     1      45.031  16.397  20.205  0.00  0.00    -0.033 C 
ATOM     15  C   UNL     1      44.315  17.150  21.003  0.00  0.00    +0.015 C 
ENDBRANCH  13  14
BRANCH  18  19
ATOM     19  O   UNL     1      47.581  17.812  19.838  0.00  0.00    -0.334 OA
BRANCH  19  20
ATOM     20  C   UNL     1      47.030  18.522  18.834  0.00  0.00    +0.501 C 
ATOM     26  O   UNL     1      46.651  17.955  17.827  0.00  0.00    -0.490 OA
BRANCH  20  21
ATOM     21  C   UNL     1      46.886  19.979  18.955  0.00  0.00    -0.187 C 
ATOM     25  C   UNL     1      47.957  20.737  19.182  0.00  0.00    +0.208 C 
BRANCH  21  22
ATOM     22  C   UNL     1      45.526  20.616  18.824  0.00  0.00    +0.252 C 
BRANCH  22  23
ATOM     23  O   UNL     1      44.580  19.633  18.399  0.00  0.00    -0.571 OA
ATOM     24  H   UNL     1      44.437  19.613  17.442  0.00  0.00    +0.389 HD
ENDBRANCH  22  23
ENDBRANCH  21  22
ENDBRANCH  20  21
ENDBRANCH  19  20
ENDBRANCH  18  19
TORSDOF 7
ENDMDL
MODEL 8
REMARK VINA RESULT:      -4.2      3.923      7.028
REMARK  Name = ZINC95486291
REMARK  8 active torsions:
REMARK  status: ('A' for Active; 'I' for Inactive)
REMARK    1  A    between atoms: C1_1  and  C2_2
REMARK    2  A    between atoms: C6_9  and  C18_29
REMARK    3  A    between atoms: C9_15  and  C16_27
REMARK    4  A    between atoms: C11_18  and  O3_20
REMARK    5  A    between atoms: O3_20  and  C12_21
REMARK    6  A    between atoms: C12_21  and  C13_23
REMARK    7  A    between atoms: C13_23  and  C15_25
REMARK    8  A    between atoms: C15_25  and  O5_26
REMARK                            x       y       z     vdW  Elec       q    Type
REMARK                         _______ _______ _______ _____ _____    ______ ____
ROOT
ATOM      1  C   UNL     1      51.931  14.033  19.191  0.00  0.00    +0.078 C 
ATOM      2  C   UNL     1      50.633  14.535  18.544  0.00  0.00    -0.029 C 
ATOM      3  C   UNL     1      49.446  13.649  18.993  0.00  0.00    -0.013 C 
ATOM      4  C   UNL     1      49.449  12.598  17.867  0.00  0.00    +0.184 C 
ATOM      5  O   UNL     1      49.809  13.333  16.685  0.00  0.00    -0.316 OA
ATOM      6  C   UNL     1      48.151  11.831  17.707  0.00  0.00    +0.108 C 
ATOM      7  C   UNL     1      47.267  12.432  16.642  0.00  0.00    -0.063 C 
ATOM     10  C   UNL     1      45.801  12.424  16.964  0.00  0.00    +0.510 C 
ATOM     11  O   UNL     1      45.357  13.451  17.730  0.00  0.00    -0.374 OA
ATOM     12  C   UNL     1      45.190  13.139  19.117  0.00  0.00    +0.235 C 
ATOM     13  C   UNL     1      45.810  14.230  19.996  0.00  0.00    +0.031 C 
ATOM     16  C   UNL     1      47.294  13.967  20.218  0.00  0.00    +0.065 C 
ATOM     17  O   UNL     1      45.063  11.549  16.567  0.00  0.00    -0.437 OA
ATOM     18  C   UNL     1      48.162  14.475  19.063  0.00  0.00    +0.194 C 
ATOM     27  C   UNL     1      50.669  14.295  17.052  0.00  0.00    +0.476 C 
ATOM     28  O   UNL     1      51.392  14.894  16.293  0.00  0.00    -0.442 OA
ENDROOT
BRANCH   7   8
ATOM      8  C   UNL     1      47.468  11.653  15.366  0.00  0.00    +0.468 C 
ATOM      9  O   UNL     1      47.610  12.237  14.318  0.00  0.00    -0.424 OA
ENDBRANCH   7   8
BRANCH  13  14
ATOM     14  C   UNL     1      45.571  15.576  19.372  0.00  0.00    -0.033 C 
ATOM     15  C   UNL     1      45.052  16.545  20.085  0.00  0.00    +0.015 C 
ENDBRANCH  13  14
BRANCH  18  19
ATOM     19  O   UNL     1      48.496  15.848  19.299  0.00  0.00    -0.334 OA
BRANCH  19  20
ATOM     20  C   UNL     1      48.371  16.697  18.259  0.00  0.00    +0.501 C 
ATOM     26  O   UNL     1      47.883  16.310  17.216  0.00  0.00    -0.490 OA
BRANCH  20  21
ATOM     21  C   UNL     1      48.825  18.088  18.388  0.00  0.00    -0.187 C 
ATOM     25  C   UNL     1      48.006  19.012  18.887  0.00  0.00    +0.208 C 
BRANCH  21  22
ATOM     22  C   UNL     1      50.216  18.470  17.952  0.00  0.00    +0.252 C 
BRANCH  22  23
ATOM     23  O   UNL     1      50.524  17.819  16.717  0.00  0.00    -0.571 OA
ATOM     24  H   UNL     1      50.525  18.409  15.951  0.00  0.00    +0.389 HD
ENDBRANCH  22  23
ENDBRANCH  21  22
ENDBRANCH  20  21
ENDBRANCH  19  20
ENDBRANCH  18  19
TORSDOF 7
ENDMDL
MODEL 9
REMARK VINA RESULT:      -4.2     20.490     23.773
REMARK  Name = ZINC95486291
REMARK  8 active torsions:
REMARK  status: ('A' for Active; 'I' for Inactive)
REMARK    1  A    between atoms: C1_1  and  C2_2
REMARK    2  A    between atoms: C6_9  and  C18_29
REMARK    3  A    between atoms: C9_15  and  C16_27
REMARK    4  A    between atoms: C11_18  and  O3_20
REMARK    5  A    between atoms: O3_20  and  C12_21
REMARK    6  A    between atoms: C12_21  and  C13_23
REMARK    7  A    between atoms: C13_23  and  C15_25
REMARK    8  A    between atoms: C15_25  and  O5_26
REMARK                            x       y       z     vdW  Elec       q    Type
REMARK                         _______ _______ _______ _____ _____    ______ ____
ROOT
ATOM      1  C   UNL     1      53.009  34.275   0.037  0.00  0.00    +0.078 C 
ATOM      2  C   UNL     1      53.333  33.664   1.407  0.00  0.00    -0.029 C 
ATOM      3  C   UNL     1      54.744  34.110   1.860  0.00  0.00    -0.013 C 
ATOM      4  C   UNL     1      55.590  32.955   1.292  0.00  0.00    +0.184 C 
ATOM      5  O   UNL     1      54.767  31.788   1.452  0.00  0.00    -0.316 OA
ATOM      6  C   UNL     1      56.959  32.797   1.922  0.00  0.00    +0.108 C 
ATOM      7  C   UNL     1      56.960  31.765   3.022  0.00  0.00    -0.063 C 
ATOM     10  C   UNL     1      57.810  32.112   4.210  0.00  0.00    +0.510 C 
ATOM     11  O   UNL     1      57.230  32.913   5.138  0.00  0.00    -0.374 OA
ATOM     12  C   UNL     1      57.599  34.294   5.055  0.00  0.00    +0.235 C 
ATOM     13  C   UNL     1      56.361  35.191   5.145  0.00  0.00    +0.031 C 
ATOM     16  C   UNL     1      55.730  35.380   3.770  0.00  0.00    +0.065 C 
ATOM     17  O   UNL     1      58.944  31.705   4.326  0.00  0.00    -0.437 OA
ATOM     18  C   UNL     1      54.802  34.224   3.383  0.00  0.00    +0.194 C 
ATOM     27  C   UNL     1      53.490  32.166   1.285  0.00  0.00    +0.476 C 
ATOM     28  O   UNL     1      52.576  31.410   1.058  0.00  0.00    -0.442 OA
ENDROOT
BRANCH   7   8
ATOM      8  C   UNL     1      57.467  30.464   2.450  0.00  0.00    +0.468 C 
ATOM      9  O   UNL     1      57.972  30.443   1.354  0.00  0.00    -0.424 OA
ENDBRANCH   7   8
BRANCH  13  14
ATOM     14  C   UNL     1      55.387  34.608   6.128  0.00  0.00    -0.033 C 
ATOM     15  C   UNL     1      54.677  35.400   6.893  0.00  0.00    +0.015 C 
ENDBRANCH  13  14
BRANCH  18  19
ATOM     19  O   UNL     1      53.488  34.492   3.888  0.00  0.00    -0.334 OA
BRANCH  19  20
ATOM     20  C   UNL     1      52.864  33.488   4.535  0.00  0.00    +0.501 C 
ATOM     26  O   UNL     1      53.408  32.407   4.646  0.00  0.00    -0.490 OA
BRANCH  20  21
ATOM     21  C   UNL     1      51.527  33.700   5.106  0.00  0.00    -0.187 C 
ATOM     25  C   UNL     1      50.464  33.757   4.308  0.00  0.00    +0.208 C 
BRANCH  21  22
ATOM     22  C   UNL     1      51.360  33.855   6.596  0.00  0.00    +0.252 C 
BRANCH  22  23
ATOM     23  O   UNL     1      50.021  33.517   6.963  0.00  0.00    -0.571 OA
ATOM     24  H   UNL     1      49.748  32.632   6.684  0.00  0.00    +0.389 HD
ENDBRANCH  22  23
ENDBRANCH  21  22
ENDBRANCH  20  21
ENDBRANCH  19  20
ENDBRANCH  18  19
TORSDOF 7
ENDMDL
