MODEL 1
REMARK VINA RESULT:      -6.4      0.000      0.000
REMARK  Name = ZINC95485908
REMARK  17 active torsions:
REMARK  status: ('A' for Active; 'I' for Inactive)
REMARK    1  A    between atoms: C1_1  and  C2_2
REMARK    2  A    between atoms: C3_4  and  O16_53
REMARK    3  A    between atoms: C4_6  and  O15_52
REMARK    4  A    between atoms: C5_8  and  O14_51
REMARK    5  A    between atoms: C6_10  and  O2_13
REMARK    6  A    between atoms: O2_13  and  C7_14
REMARK    7  A    between atoms: C10_17  and  C13_21
REMARK    8  A    between atoms: C12_19  and  O3_20
REMARK    9  A    between atoms: C14_22  and  O8_34
REMARK   10  A    between atoms: C17_26  and  O7_33
REMARK   11  A    between atoms: C19_28  and  O6_32
REMARK   12  A    between atoms: O8_34  and  C22_35
REMARK   13  A    between atoms: C23_37  and  O13_50
REMARK   14  A    between atoms: C24_39  and  O12_49
REMARK   15  A    between atoms: C25_41  and  O11_48
REMARK   16  A    between atoms: C26_43  and  C27_46
REMARK   17  A    between atoms: C27_46  and  O10_47
REMARK                            x       y       z     vdW  Elec       q    Type
REMARK                         _______ _______ _______ _____ _____    ______ ____
ROOT
ATOM     18  C   UNL     1      48.533  15.423  17.687  0.00  0.00    +0.206 A 
ATOM     19  C   UNL     1      49.837  15.705  17.405  0.00  0.00    -0.090 A 
ATOM     36  C   UNL     1      50.582  14.817  16.587  0.00  0.00    +0.412 A 
ATOM     37  C   UNL     1      49.889  13.621  16.080  0.00  0.00    -0.264 A 
ATOM     38  C   UNL     1      50.548  12.690  15.267  0.00  0.00    +0.221 A 
ATOM     41  C   UNL     1      49.864  11.579  14.811  0.00  0.00    -0.055 A 
ATOM     42  C   UNL     1      48.531  11.388  15.159  0.00  0.00    +0.196 A 
ATOM     45  C   UNL     1      47.872  12.305  15.964  0.00  0.00    -0.026 A 
ATOM     46  C   UNL     1      48.542  13.425  16.431  0.00  0.00    +0.183 A 
ATOM     47  O   UNL     1      51.751  15.035  16.314  0.00  0.00    -0.454 OA
ATOM     48  O   UNL     1      47.916  14.324  17.220  0.00  0.00    -0.202 OA
ENDROOT
BRANCH  18  17
ATOM     14  C   UNL     1      46.340  18.117  20.133  0.00  0.00    +0.134 A 
ATOM     15  C   UNL     1      46.104  18.072  18.765  0.00  0.00    -0.028 A 
ATOM     16  C   UNL     1      46.813  17.200  17.969  0.00  0.00    +0.128 A 
ATOM     17  C   UNL     1      47.773  16.357  18.537  0.00  0.00    -0.098 A 
ATOM     49  C   UNL     1      48.012  16.404  19.913  0.00  0.00    +0.098 A 
ATOM     50  C   UNL     1      47.299  17.284  20.705  0.00  0.00    +0.073 A 
BRANCH  50  51
ATOM     51  O   UNL     1      47.532  17.335  22.044  0.00  0.00    -0.480 OA
ATOM     52  H   UNL     1      47.112  18.085  22.488  0.00  0.00    +0.384 HD
ENDBRANCH  50  51
BRANCH  14  13
ATOM     13  O   UNL     1      45.638  18.980  20.912  0.00  0.00    -0.283 OA
BRANCH  13  12
ATOM      1  C   UNL     1      47.461  23.059  22.505  0.00  0.00    +0.074 C 
ATOM      2  C   UNL     1      46.639  22.446  21.370  0.00  0.00    +0.141 C 
ATOM      3  C   UNL     1      45.268  23.125  21.308  0.00  0.00    +0.170 C 
ATOM      6  C   UNL     1      44.429  22.466  20.210  0.00  0.00    +0.203 C 
ATOM      9  C   UNL     1      44.321  20.964  20.497  0.00  0.00    +0.146 C 
ATOM     12  C   UNL     1      45.728  20.368  20.590  0.00  0.00    +0.304 C 
ATOM     53  O   UNL     1      46.466  21.048  21.608  0.00  0.00    -0.377 OA
BRANCH   3   4
ATOM      4  O   UNL     1      45.436  24.513  21.014  0.00  0.00    -0.550 OA
ATOM      5  H   UNL     1      46.085  24.693  20.321  0.00  0.00    +0.381 HD
ENDBRANCH   3   4
BRANCH   6   7
ATOM      7  O   UNL     1      43.122  23.045  20.194  0.00  0.00    -0.535 OA
ATOM      8  H   UNL     1      42.994  23.746  20.847  0.00  0.00    +0.380 HD
ENDBRANCH   6   7
BRANCH   9  10
ATOM     10  O   UNL     1      43.633  20.763  21.733  0.00  0.00    -0.536 OA
ATOM     11  H   UNL     1      44.150  20.285  22.397  0.00  0.00    +0.389 HD
ENDBRANCH   9  10
ENDBRANCH  13  12
ENDBRANCH  14  13
ENDBRANCH  18  17
BRANCH  38  39
ATOM     39  O   UNL     1      51.849  12.878  14.927  0.00  0.00    -0.472 OA
ATOM     40  H   UNL     1      52.469  12.331  15.430  0.00  0.00    +0.403 HD
ENDBRANCH  38  39
BRANCH  42  43
ATOM     43  O   UNL     1      47.868  10.294  14.706  0.00  0.00    -0.487 OA
ATOM     44  H   UNL     1      47.744  10.278  13.747  0.00  0.00    +0.404 HD
ENDBRANCH  42  43
BRANCH  19  20
ATOM     20  O   UNL     1      50.419  16.829  17.905  0.00  0.00    -0.284 OA
BRANCH  20  21
ATOM     21  C   UNL     1      50.400  17.992  17.076  0.00  0.00    +0.326 C 
ATOM     22  C   UNL     1      51.836  18.454  16.811  0.00  0.00    +0.144 C 
ATOM     25  C   UNL     1      52.492  18.841  18.140  0.00  0.00    +0.159 C 
ATOM     28  C   UNL     1      51.648  19.926  18.817  0.00  0.00    +0.176 C 
ATOM     31  C   UNL     1      50.220  19.407  19.003  0.00  0.00    +0.198 C 
ATOM     35  O   UNL     1      49.679  19.036  17.733  0.00  0.00    -0.360 OA
BRANCH  22  23
ATOM     23  O   UNL     1      51.820  19.585  15.938  0.00  0.00    -0.542 OA
ATOM     24  H   UNL     1      51.040  19.631  15.368  0.00  0.00    +0.390 HD
ENDBRANCH  22  23
BRANCH  25  26
ATOM     26  O   UNL     1      52.568  17.693  18.987  0.00  0.00    -0.526 OA
ATOM     27  H   UNL     1      53.470  17.395  19.166  0.00  0.00    +0.378 HD
ENDBRANCH  25  26
BRANCH  28  29
ATOM     29  O   UNL     1      52.212  20.244  20.091  0.00  0.00    -0.550 OA
ATOM     30  H   UNL     1      51.559  20.324  20.800  0.00  0.00    +0.380 HD
ENDBRANCH  28  29
BRANCH  31  32
ATOM     32  C   UNL     1      49.355  20.505  19.625  0.00  0.00    +0.202 C 
BRANCH  32  33
ATOM     33  O   UNL     1      49.349  20.360  21.047  0.00  0.00    -0.561 OA
ATOM     34  H   UNL     1      49.232  21.192  21.526  0.00  0.00    +0.378 HD
ENDBRANCH  32  33
ENDBRANCH  31  32
ENDBRANCH  20  21
ENDBRANCH  19  20
TORSDOF 16
ENDMDL
MODEL 2
REMARK VINA RESULT:      -6.3      2.194      8.775
REMARK  Name = ZINC95485908
REMARK  17 active torsions:
REMARK  status: ('A' for Active; 'I' for Inactive)
REMARK    1  A    between atoms: C1_1  and  C2_2
REMARK    2  A    between atoms: C3_4  and  O16_53
REMARK    3  A    between atoms: C4_6  and  O15_52
REMARK    4  A    between atoms: C5_8  and  O14_51
REMARK    5  A    between atoms: C6_10  and  O2_13
REMARK    6  A    between atoms: O2_13  and  C7_14
REMARK    7  A    between atoms: C10_17  and  C13_21
REMARK    8  A    between atoms: C12_19  and  O3_20
REMARK    9  A    between atoms: C14_22  and  O8_34
REMARK   10  A    between atoms: C17_26  and  O7_33
REMARK   11  A    between atoms: C19_28  and  O6_32
REMARK   12  A    between atoms: O8_34  and  C22_35
REMARK   13  A    between atoms: C23_37  and  O13_50
REMARK   14  A    between atoms: C24_39  and  O12_49
REMARK   15  A    between atoms: C25_41  and  O11_48
REMARK   16  A    between atoms: C26_43  and  C27_46
REMARK   17  A    between atoms: C27_46  and  O10_47
REMARK                            x       y       z     vdW  Elec       q    Type
REMARK                         _______ _______ _______ _____ _____    ______ ____
ROOT
ATOM     18  C   UNL     1      44.894  18.769  19.309  0.00  0.00    +0.206 A 
ATOM     19  C   UNL     1      45.777  19.686  19.796  0.00  0.00    -0.090 A 
ATOM     36  C   UNL     1      45.380  21.043  19.915  0.00  0.00    +0.412 A 
ATOM     37  C   UNL     1      44.011  21.387  19.497  0.00  0.00    -0.264 A 
ATOM     38  C   UNL     1      43.535  22.703  19.579  0.00  0.00    +0.221 A 
ATOM     41  C   UNL     1      42.244  22.986  19.175  0.00  0.00    -0.055 A 
ATOM     42  C   UNL     1      41.424  21.972  18.692  0.00  0.00    +0.196 A 
ATOM     45  C   UNL     1      41.888  20.668  18.609  0.00  0.00    -0.026 A 
ATOM     46  C   UNL     1      43.180  20.364  19.008  0.00  0.00    +0.183 A 
ATOM     47  O   UNL     1      46.143  21.893  20.346  0.00  0.00    -0.454 OA
ATOM     48  O   UNL     1      43.648  19.100  18.926  0.00  0.00    -0.202 OA
ENDROOT
BRANCH  18  17
ATOM     14  C   UNL     1      46.130  14.719  18.970  0.00  0.00    +0.134 A 
ATOM     15  C   UNL     1      46.386  15.612  17.938  0.00  0.00    -0.028 A 
ATOM     16  C   UNL     1      45.986  16.926  18.044  0.00  0.00    +0.128 A 
ATOM     17  C   UNL     1      45.322  17.363  19.194  0.00  0.00    -0.098 A 
ATOM     49  C   UNL     1      45.063  16.465  20.232  0.00  0.00    +0.098 A 
ATOM     50  C   UNL     1      45.463  15.147  20.116  0.00  0.00    +0.073 A 
BRANCH  50  51
ATOM     51  O   UNL     1      45.209  14.268  21.123  0.00  0.00    -0.480 OA
ATOM     52  H   UNL     1      45.115  14.683  21.991  0.00  0.00    +0.384 HD
ENDBRANCH  50  51
BRANCH  14  13
ATOM     13  O   UNL     1      46.526  13.424  18.859  0.00  0.00    -0.283 OA
BRANCH  13  12
ATOM      1  C   UNL     1      45.637  10.463  15.261  0.00  0.00    +0.074 C 
ATOM      2  C   UNL     1      46.621  11.523  15.760  0.00  0.00    +0.141 C 
ATOM      3  C   UNL     1      48.019  10.909  15.871  0.00  0.00    +0.170 C 
ATOM      6  C   UNL     1      48.986  11.958  16.429  0.00  0.00    +0.203 C 
ATOM      9  C   UNL     1      48.460  12.455  17.779  0.00  0.00    +0.146 C 
ATOM     12  C   UNL     1      47.045  13.009  17.594  0.00  0.00    +0.304 C 
ATOM     53  O   UNL     1      46.204  11.993  17.043  0.00  0.00    -0.377 OA
BRANCH   3   4
ATOM      4  O   UNL     1      48.461  10.489  14.579  0.00  0.00    -0.550 OA
ATOM      5  H   UNL     1      47.821  10.651  13.873  0.00  0.00    +0.381 HD
ENDBRANCH   3   4
BRANCH   6   7
ATOM      7  O   UNL     1      50.278  11.373  16.604  0.00  0.00    -0.535 OA
ATOM      8  H   UNL     1      50.990  11.848  16.154  0.00  0.00    +0.380 HD
ENDBRANCH   6   7
BRANCH   9  10
ATOM     10  O   UNL     1      48.431  11.371  18.709  0.00  0.00    -0.536 OA
ATOM     11  H   UNL     1      47.879  11.533  19.486  0.00  0.00    +0.389 HD
ENDBRANCH   9  10
ENDBRANCH  13  12
ENDBRANCH  14  13
ENDBRANCH  18  17
BRANCH  38  39
ATOM     39  O   UNL     1      44.336  23.692  20.051  0.00  0.00    -0.472 OA
ATOM     40  H   UNL     1      45.202  23.385  20.352  0.00  0.00    +0.403 HD
ENDBRANCH  38  39
BRANCH  42  43
ATOM     43  O   UNL     1      40.157  22.261  18.300  0.00  0.00    -0.487 OA
ATOM     44  H   UNL     1      39.749  21.575  17.753  0.00  0.00    +0.404 HD
ENDBRANCH  42  43
BRANCH  19  20
ATOM     20  O   UNL     1      47.029  19.303  20.166  0.00  0.00    -0.284 OA
BRANCH  20  21
ATOM     21  C   UNL     1      48.110  19.724  19.331  0.00  0.00    +0.326 C 
ATOM     22  C   UNL     1      48.896  18.498  18.858  0.00  0.00    +0.144 C 
ATOM     25  C   UNL     1      49.498  17.788  20.075  0.00  0.00    +0.159 C 
ATOM     28  C   UNL     1      50.374  18.778  20.848  0.00  0.00    +0.176 C 
ATOM     31  C   UNL     1      49.530  19.992  21.244  0.00  0.00    +0.198 C 
ATOM     35  O   UNL     1      48.975  20.588  20.069  0.00  0.00    -0.360 OA
BRANCH  22  23
ATOM     23  O   UNL     1      49.943  18.913  17.979  0.00  0.00    -0.542 OA
ATOM     24  H   UNL     1      50.282  18.207  17.411  0.00  0.00    +0.390 HD
ENDBRANCH  22  23
BRANCH  25  26
ATOM     26  O   UNL     1      48.448  17.314  20.920  0.00  0.00    -0.526 OA
ATOM     27  H   UNL     1      47.899  18.017  21.296  0.00  0.00    +0.378 HD
ENDBRANCH  25  26
BRANCH  28  29
ATOM     29  O   UNL     1      50.884  18.146  22.025  0.00  0.00    -0.550 OA
ATOM     30  H   UNL     1      50.248  17.566  22.466  0.00  0.00    +0.380 HD
ENDBRANCH  28  29
BRANCH  31  32
ATOM     32  C   UNL     1      50.412  21.013  21.966  0.00  0.00    +0.202 C 
BRANCH  32  33
ATOM     33  O   UNL     1      51.744  20.940  21.454  0.00  0.00    -0.561 OA
ATOM     34  H   UNL     1      52.049  21.757  21.035  0.00  0.00    +0.378 HD
ENDBRANCH  32  33
ENDBRANCH  31  32
ENDBRANCH  20  21
ENDBRANCH  19  20
TORSDOF 16
ENDMDL
MODEL 3
REMARK VINA RESULT:      -6.1      1.465      2.066
REMARK  Name = ZINC95485908
REMARK  17 active torsions:
REMARK  status: ('A' for Active; 'I' for Inactive)
REMARK    1  A    between atoms: C1_1  and  C2_2
REMARK    2  A    between atoms: C3_4  and  O16_53
REMARK    3  A    between atoms: C4_6  and  O15_52
REMARK    4  A    between atoms: C5_8  and  O14_51
REMARK    5  A    between atoms: C6_10  and  O2_13
REMARK    6  A    between atoms: O2_13  and  C7_14
REMARK    7  A    between atoms: C10_17  and  C13_21
REMARK    8  A    between atoms: C12_19  and  O3_20
REMARK    9  A    between atoms: C14_22  and  O8_34
REMARK   10  A    between atoms: C17_26  and  O7_33
REMARK   11  A    between atoms: C19_28  and  O6_32
REMARK   12  A    between atoms: O8_34  and  C22_35
REMARK   13  A    between atoms: C23_37  and  O13_50
REMARK   14  A    between atoms: C24_39  and  O12_49
REMARK   15  A    between atoms: C25_41  and  O11_48
REMARK   16  A    between atoms: C26_43  and  C27_46
REMARK   17  A    between atoms: C27_46  and  O10_47
REMARK                            x       y       z     vdW  Elec       q    Type
REMARK                         _______ _______ _______ _____ _____    ______ ____
ROOT
ATOM     18  C   UNL     1      48.223  15.570  17.504  0.00  0.00    +0.206 A 
ATOM     19  C   UNL     1      49.544  15.673  17.184  0.00  0.00    -0.090 A 
ATOM     36  C   UNL     1      50.166  14.636  16.443  0.00  0.00    +0.412 A 
ATOM     37  C   UNL     1      49.332  13.487  16.055  0.00  0.00    -0.264 A 
ATOM     38  C   UNL     1      49.864  12.417  15.324  0.00  0.00    +0.221 A 
ATOM     41  C   UNL     1      49.050  11.355  14.979  0.00  0.00    -0.055 A 
ATOM     42  C   UNL     1      47.711  11.351  15.357  0.00  0.00    +0.196 A 
ATOM     45  C   UNL     1      47.177  12.405  16.081  0.00  0.00    -0.026 A 
ATOM     46  C   UNL     1      47.979  13.479  16.436  0.00  0.00    +0.183 A 
ATOM     47  O   UNL     1      51.347  14.693  16.139  0.00  0.00    -0.454 OA
ATOM     48  O   UNL     1      47.475  14.511  17.147  0.00  0.00    -0.202 OA
ENDROOT
BRANCH  18  17
ATOM     14  C   UNL     1      46.402  18.707  19.715  0.00  0.00    +0.134 A 
ATOM     15  C   UNL     1      46.453  18.774  18.329  0.00  0.00    -0.028 A 
ATOM     16  C   UNL     1      47.043  17.759  17.609  0.00  0.00    +0.128 A 
ATOM     17  C   UNL     1      47.591  16.658  18.273  0.00  0.00    -0.098 A 
ATOM     49  C   UNL     1      47.540  16.591  19.668  0.00  0.00    +0.098 A 
ATOM     50  C   UNL     1      46.951  17.615  20.384  0.00  0.00    +0.073 A 
BRANCH  50  51
ATOM     51  O   UNL     1      46.904  17.556  21.742  0.00  0.00    -0.480 OA
ATOM     52  H   UNL     1      46.862  16.656  22.094  0.00  0.00    +0.384 HD
ENDBRANCH  50  51
BRANCH  14  13
ATOM     13  O   UNL     1      45.820  19.712  20.420  0.00  0.00    -0.283 OA
BRANCH  13  12
ATOM      1  C   UNL     1      45.146  24.383  19.941  0.00  0.00    +0.074 C 
ATOM      2  C   UNL     1      44.690  23.020  19.417  0.00  0.00    +0.141 C 
ATOM      3  C   UNL     1      43.183  22.863  19.645  0.00  0.00    +0.170 C 
ATOM      6  C   UNL     1      42.745  21.473  19.174  0.00  0.00    +0.203 C 
ATOM      9  C   UNL     1      43.560  20.412  19.921  0.00  0.00    +0.146 C 
ATOM     12  C   UNL     1      45.051  20.663  19.682  0.00  0.00    +0.304 C 
ATOM     53  O   UNL     1      45.386  21.984  20.113  0.00  0.00    -0.377 OA
BRANCH   3   4
ATOM      4  O   UNL     1      42.481  23.863  18.905  0.00  0.00    -0.550 OA
ATOM      5  H   UNL     1      42.163  24.600  19.444  0.00  0.00    +0.381 HD
ENDBRANCH   3   4
BRANCH   6   7
ATOM      7  O   UNL     1      41.354  21.291  19.449  0.00  0.00    -0.535 OA
ATOM      8  H   UNL     1      41.062  21.690  20.280  0.00  0.00    +0.380 HD
ENDBRANCH   6   7
BRANCH   9  10
ATOM     10  O   UNL     1      43.279  20.492  21.319  0.00  0.00    -0.536 OA
ATOM     11  H   UNL     1      42.592  21.134  21.546  0.00  0.00    +0.389 HD
ENDBRANCH   9  10
ENDBRANCH  13  12
ENDBRANCH  14  13
ENDBRANCH  18  17
BRANCH  38  39
ATOM     39  O   UNL     1      51.171  12.423  14.955  0.00  0.00    -0.472 OA
ATOM     40  H   UNL     1      51.665  11.645  15.247  0.00  0.00    +0.403 HD
ENDBRANCH  38  39
BRANCH  42  43
ATOM     43  O   UNL     1      46.919  10.303  15.013  0.00  0.00    -0.487 OA
ATOM     44  H   UNL     1      47.065   9.978  14.114  0.00  0.00    +0.404 HD
ENDBRANCH  42  43
BRANCH  19  20
ATOM     20  O   UNL     1      50.260  16.763  17.572  0.00  0.00    -0.284 OA
BRANCH  20  21
ATOM     21  C   UNL     1      51.680  16.691  17.430  0.00  0.00    +0.326 C 
ATOM     22  C   UNL     1      52.343  16.960  18.783  0.00  0.00    +0.144 C 
ATOM     25  C   UNL     1      51.994  18.381  19.240  0.00  0.00    +0.159 C 
ATOM     28  C   UNL     1      52.441  19.376  18.165  0.00  0.00    +0.176 C 
ATOM     31  C   UNL     1      51.774  19.013  16.836  0.00  0.00    +0.198 C 
ATOM     35  O   UNL     1      52.115  17.670  16.484  0.00  0.00    -0.360 OA
BRANCH  22  23
ATOM     23  O   UNL     1      53.761  16.835  18.653  0.00  0.00    -0.542 OA
ATOM     24  H   UNL     1      54.248  17.641  18.875  0.00  0.00    +0.390 HD
ENDBRANCH  22  23
BRANCH  25  26
ATOM     26  O   UNL     1      50.582  18.486  19.434  0.00  0.00    -0.526 OA
ATOM     27  H   UNL     1      50.291  19.356  19.741  0.00  0.00    +0.378 HD
ENDBRANCH  25  26
BRANCH  28  29
ATOM     29  O   UNL     1      52.056  20.698  18.548  0.00  0.00    -0.550 OA
ATOM     30  H   UNL     1      52.719  21.162  19.077  0.00  0.00    +0.380 HD
ENDBRANCH  28  29
BRANCH  31  32
ATOM     32  C   UNL     1      52.261  19.967  15.743  0.00  0.00    +0.202 C 
BRANCH  32  33
ATOM     33  O   UNL     1      51.537  21.196  15.826  0.00  0.00    -0.561 OA
ATOM     34  H   UNL     1      52.052  21.931  16.185  0.00  0.00    +0.378 HD
ENDBRANCH  32  33
ENDBRANCH  31  32
ENDBRANCH  20  21
ENDBRANCH  19  20
TORSDOF 16
ENDMDL
MODEL 4
REMARK VINA RESULT:      -6.1      3.152      8.823
REMARK  Name = ZINC95485908
REMARK  17 active torsions:
REMARK  status: ('A' for Active; 'I' for Inactive)
REMARK    1  A    between atoms: C1_1  and  C2_2
REMARK    2  A    between atoms: C3_4  and  O16_53
REMARK    3  A    between atoms: C4_6  and  O15_52
REMARK    4  A    between atoms: C5_8  and  O14_51
REMARK    5  A    between atoms: C6_10  and  O2_13
REMARK    6  A    between atoms: O2_13  and  C7_14
REMARK    7  A    between atoms: C10_17  and  C13_21
REMARK    8  A    between atoms: C12_19  and  O3_20
REMARK    9  A    between atoms: C14_22  and  O8_34
REMARK   10  A    between atoms: C17_26  and  O7_33
REMARK   11  A    between atoms: C19_28  and  O6_32
REMARK   12  A    between atoms: O8_34  and  C22_35
REMARK   13  A    between atoms: C23_37  and  O13_50
REMARK   14  A    between atoms: C24_39  and  O12_49
REMARK   15  A    between atoms: C25_41  and  O11_48
REMARK   16  A    between atoms: C26_43  and  C27_46
REMARK   17  A    between atoms: C27_46  and  O10_47
REMARK                            x       y       z     vdW  Elec       q    Type
REMARK                         _______ _______ _______ _____ _____    ______ ____
ROOT
ATOM     18  C   UNL     1      44.889  18.734  19.453  0.00  0.00    +0.206 A 
ATOM     19  C   UNL     1      44.386  17.983  20.474  0.00  0.00    -0.090 A 
ATOM     36  C   UNL     1      43.049  18.192  20.901  0.00  0.00    +0.412 A 
ATOM     37  C   UNL     1      42.269  19.227  20.203  0.00  0.00    -0.264 A 
ATOM     38  C   UNL     1      40.942  19.501  20.560  0.00  0.00    +0.221 A 
ATOM     41  C   UNL     1      40.243  20.482  19.882  0.00  0.00    -0.055 A 
ATOM     42  C   UNL     1      40.854  21.190  18.852  0.00  0.00    +0.196 A 
ATOM     45  C   UNL     1      42.166  20.925  18.494  0.00  0.00    -0.026 A 
ATOM     46  C   UNL     1      42.884  19.945  19.163  0.00  0.00    +0.183 A 
ATOM     47  O   UNL     1      42.564  17.539  21.811  0.00  0.00    -0.454 OA
ATOM     48  O   UNL     1      44.165  19.680  18.830  0.00  0.00    -0.202 OA
ENDROOT
BRANCH  18  17
ATOM     14  C   UNL     1      48.898  18.073  18.212  0.00  0.00    +0.134 A 
ATOM     15  C   UNL     1      48.632  18.927  19.274  0.00  0.00    -0.028 A 
ATOM     16  C   UNL     1      47.333  19.143  19.679  0.00  0.00    +0.128 A 
ATOM     17  C   UNL     1      46.279  18.503  19.021  0.00  0.00    -0.098 A 
ATOM     49  C   UNL     1      46.547  17.644  17.951  0.00  0.00    +0.098 A 
ATOM     50  C   UNL     1      47.852  17.435  17.547  0.00  0.00    +0.073 A 
BRANCH  50  51
ATOM     51  O   UNL     1      48.116  16.604  16.504  0.00  0.00    -0.480 OA
ATOM     52  H   UNL     1      48.013  17.018  15.637  0.00  0.00    +0.384 HD
ENDBRANCH  50  51
BRANCH  14  13
ATOM     13  O   UNL     1      50.180  17.864  17.817  0.00  0.00    -0.283 OA
BRANCH  13  12
ATOM      1  C   UNL     1      51.160  16.488  22.249  0.00  0.00    +0.074 C 
ATOM      2  C   UNL     1      51.450  16.180  20.779  0.00  0.00    +0.141 C 
ATOM      3  C   UNL     1      52.955  16.294  20.521  0.00  0.00    +0.170 C 
ATOM      6  C   UNL     1      53.231  16.043  19.036  0.00  0.00    +0.203 C 
ATOM      9  C   UNL     1      52.421  17.042  18.202  0.00  0.00    +0.146 C 
ATOM     12  C   UNL     1      50.937  16.899  18.549  0.00  0.00    +0.304 C 
ATOM     53  O   UNL     1      50.754  17.112  19.950  0.00  0.00    -0.377 OA
BRANCH   3   4
ATOM      4  O   UNL     1      53.650  15.323  21.307  0.00  0.00    -0.550 OA
ATOM      5  H   UNL     1      53.758  15.573  22.235  0.00  0.00    +0.381 HD
ENDBRANCH   3   4
BRANCH   6   7
ATOM      7  O   UNL     1      54.625  16.219  18.772  0.00  0.00    -0.535 OA
ATOM      8  H   UNL     1      55.088  15.402  18.541  0.00  0.00    +0.380 HD
ENDBRANCH   6   7
BRANCH   9  10
ATOM     10  O   UNL     1      52.855  18.371  18.494  0.00  0.00    -0.536 OA
ATOM     11  H   UNL     1      53.816  18.483  18.478  0.00  0.00    +0.389 HD
ENDBRANCH   9  10
ENDBRANCH  13  12
ENDBRANCH  14  13
ENDBRANCH  18  17
BRANCH  38  39
ATOM     39  O   UNL     1      40.347  18.808  21.564  0.00  0.00    -0.472 OA
ATOM     40  H   UNL     1      40.661  19.048  22.447  0.00  0.00    +0.403 HD
ENDBRANCH  38  39
BRANCH  42  43
ATOM     43  O   UNL     1      40.158  22.151  18.192  0.00  0.00    -0.487 OA
ATOM     44  H   UNL     1      39.431  21.810  17.654  0.00  0.00    +0.404 HD
ENDBRANCH  42  43
BRANCH  19  20
ATOM     20  O   UNL     1      45.159  17.040  21.077  0.00  0.00    -0.284 OA
BRANCH  20  21
ATOM     21  C   UNL     1      44.643  15.708  21.120  0.00  0.00    +0.326 C 
ATOM     22  C   UNL     1      45.050  15.045  22.439  0.00  0.00    +0.144 C 
ATOM     25  C   UNL     1      46.578  14.954  22.505  0.00  0.00    +0.159 C 
ATOM     28  C   UNL     1      47.086  14.180  21.285  0.00  0.00    +0.176 C 
ATOM     31  C   UNL     1      46.600  14.877  20.011  0.00  0.00    +0.198 C 
ATOM     35  O   UNL     1      45.173  14.956  20.026  0.00  0.00    -0.360 OA
BRANCH  22  23
ATOM     23  O   UNL     1      44.489  13.732  22.505  0.00  0.00    -0.542 OA
ATOM     24  H   UNL     1      43.872  13.605  23.240  0.00  0.00    +0.390 HD
ENDBRANCH  22  23
BRANCH  25  26
ATOM     26  O   UNL     1      47.135  16.269  22.505  0.00  0.00    -0.526 OA
ATOM     27  H   UNL     1      46.837  16.822  23.241  0.00  0.00    +0.378 HD
ENDBRANCH  25  26
BRANCH  28  29
ATOM     29  O   UNL     1      48.515  14.151  21.299  0.00  0.00    -0.550 OA
ATOM     30  H   UNL     1      48.918  14.896  21.765  0.00  0.00    +0.380 HD
ENDBRANCH  28  29
BRANCH  31  32
ATOM     32  C   UNL     1      47.054  14.078  18.787  0.00  0.00    +0.202 C 
BRANCH  32  33
ATOM     33  O   UNL     1      48.420  14.381  18.500  0.00  0.00    -0.561 OA
ATOM     34  H   UNL     1      49.034  14.131  19.204  0.00  0.00    +0.378 HD
ENDBRANCH  32  33
ENDBRANCH  31  32
ENDBRANCH  20  21
ENDBRANCH  19  20
TORSDOF 16
ENDMDL
MODEL 5
REMARK VINA RESULT:      -6.1      1.882      8.663
REMARK  Name = ZINC95485908
REMARK  17 active torsions:
REMARK  status: ('A' for Active; 'I' for Inactive)
REMARK    1  A    between atoms: C1_1  and  C2_2
REMARK    2  A    between atoms: C3_4  and  O16_53
REMARK    3  A    between atoms: C4_6  and  O15_52
REMARK    4  A    between atoms: C5_8  and  O14_51
REMARK    5  A    between atoms: C6_10  and  O2_13
REMARK    6  A    between atoms: O2_13  and  C7_14
REMARK    7  A    between atoms: C10_17  and  C13_21
REMARK    8  A    between atoms: C12_19  and  O3_20
REMARK    9  A    between atoms: C14_22  and  O8_34
REMARK   10  A    between atoms: C17_26  and  O7_33
REMARK   11  A    between atoms: C19_28  and  O6_32
REMARK   12  A    between atoms: O8_34  and  C22_35
REMARK   13  A    between atoms: C23_37  and  O13_50
REMARK   14  A    between atoms: C24_39  and  O12_49
REMARK   15  A    between atoms: C25_41  and  O11_48
REMARK   16  A    between atoms: C26_43  and  C27_46
REMARK   17  A    between atoms: C27_46  and  O10_47
REMARK                            x       y       z     vdW  Elec       q    Type
REMARK                         _______ _______ _______ _____ _____    ______ ____
ROOT
ATOM     18  C   UNL     1      46.145  18.250  18.760  0.00  0.00    +0.206 A 
ATOM     19  C   UNL     1      47.083  19.132  19.208  0.00  0.00    -0.090 A 
ATOM     36  C   UNL     1      46.683  20.435  19.602  0.00  0.00    +0.412 A 
ATOM     37  C   UNL     1      45.251  20.764  19.501  0.00  0.00    -0.264 A 
ATOM     38  C   UNL     1      44.769  22.028  19.867  0.00  0.00    +0.221 A 
ATOM     41  C   UNL     1      43.418  22.298  19.756  0.00  0.00    -0.055 A 
ATOM     42  C   UNL     1      42.546  21.322  19.285  0.00  0.00    +0.196 A 
ATOM     45  C   UNL     1      43.016  20.070  18.921  0.00  0.00    -0.026 A 
ATOM     46  C   UNL     1      44.368  19.780  19.024  0.00  0.00    +0.183 A 
ATOM     47  O   UNL     1      47.493  21.253  20.009  0.00  0.00    -0.454 OA
ATOM     48  O   UNL     1      44.842  18.567  18.668  0.00  0.00    -0.202 OA
ENDROOT
BRANCH  18  17
ATOM     14  C   UNL     1      47.394  14.358  17.603  0.00  0.00    +0.134 A 
ATOM     15  C   UNL     1      47.545  14.772  18.919  0.00  0.00    -0.028 A 
ATOM     16  C   UNL     1      47.141  16.034  19.298  0.00  0.00    +0.128 A 
ATOM     17  C   UNL     1      46.578  16.899  18.356  0.00  0.00    -0.098 A 
ATOM     49  C   UNL     1      46.426  16.483  17.031  0.00  0.00    +0.098 A 
ATOM     50  C   UNL     1      46.838  15.217  16.657  0.00  0.00    +0.073 A 
BRANCH  50  51
ATOM     51  O   UNL     1      46.696  14.810  15.367  0.00  0.00    -0.480 OA
ATOM     52  H   UNL     1      47.422  14.257  15.048  0.00  0.00    +0.384 HD
ENDBRANCH  50  51
BRANCH  14  13
ATOM     13  O   UNL     1      47.794  13.113  17.235  0.00  0.00    -0.283 OA
BRANCH  13  12
ATOM      1  C   UNL     1      50.162  12.868  13.132  0.00  0.00    +0.074 C 
ATOM      2  C   UNL     1      50.341  12.859  14.652  0.00  0.00    +0.141 C 
ATOM      3  C   UNL     1      51.018  11.553  15.078  0.00  0.00    +0.170 C 
ATOM      6  C   UNL     1      51.138  11.523  16.604  0.00  0.00    +0.203 C 
ATOM      9  C   UNL     1      49.744  11.683  17.218  0.00  0.00    +0.146 C 
ATOM     12  C   UNL     1      49.116  12.984  16.710  0.00  0.00    +0.304 C 
ATOM     53  O   UNL     1      49.063  12.959  15.282  0.00  0.00    -0.377 OA
BRANCH   3   4
ATOM      4  O   UNL     1      52.319  11.476  14.493  0.00  0.00    -0.550 OA
ATOM      5  H   UNL     1      52.544  12.232  13.934  0.00  0.00    +0.381 HD
ENDBRANCH   3   4
BRANCH   6   7
ATOM      7  O   UNL     1      51.703  10.277  17.015  0.00  0.00    -0.535 OA
ATOM      8  H   UNL     1      51.091   9.530  16.961  0.00  0.00    +0.380 HD
ENDBRANCH   6   7
BRANCH   9  10
ATOM     10  O   UNL     1      48.925  10.576  16.838  0.00  0.00    -0.536 OA
ATOM     11  H   UNL     1      48.788  10.498  15.883  0.00  0.00    +0.389 HD
ENDBRANCH   9  10
ENDBRANCH  13  12
ENDBRANCH  14  13
ENDBRANCH  18  17
BRANCH  38  39
ATOM     39  O   UNL     1      45.621  22.979  20.327  0.00  0.00    -0.472 OA
ATOM     40  H   UNL     1      46.554  22.773  20.183  0.00  0.00    +0.403 HD
ENDBRANCH  38  39
BRANCH  42  43
ATOM     43  O   UNL     1      41.221  21.598  19.181  0.00  0.00    -0.487 OA
ATOM     44  H   UNL     1      40.695  20.873  18.816  0.00  0.00    +0.404 HD
ENDBRANCH  42  43
BRANCH  19  20
ATOM     20  O   UNL     1      48.391  18.766  19.279  0.00  0.00    -0.284 OA
BRANCH  20  21
ATOM     21  C   UNL     1      49.202  19.032  18.133  0.00  0.00    +0.326 C 
ATOM     22  C   UNL     1      50.058  17.803  17.816  0.00  0.00    +0.144 C 
ATOM     25  C   UNL     1      50.997  17.528  18.996  0.00  0.00    +0.159 C 
ATOM     28  C   UNL     1      51.846  18.775  19.261  0.00  0.00    +0.176 C 
ATOM     31  C   UNL     1      50.920  19.966  19.521  0.00  0.00    +0.198 C 
ATOM     35  O   UNL     1      50.053  20.149  18.399  0.00  0.00    -0.360 OA
BRANCH  22  23
ATOM     23  O   UNL     1      50.829  18.048  16.639  0.00  0.00    -0.542 OA
ATOM     24  H   UNL     1      51.008  18.985  16.474  0.00  0.00    +0.390 HD
ENDBRANCH  22  23
BRANCH  25  26
ATOM     26  O   UNL     1      50.225  17.216  20.157  0.00  0.00    -0.526 OA
ATOM     27  H   UNL     1      49.554  17.879  20.373  0.00  0.00    +0.378 HD
ENDBRANCH  25  26
BRANCH  28  29
ATOM     29  O   UNL     1      52.674  18.554  20.404  0.00  0.00    -0.550 OA
ATOM     30  H   UNL     1      53.605  18.399  20.190  0.00  0.00    +0.380 HD
ENDBRANCH  28  29
BRANCH  31  32
ATOM     32  C   UNL     1      51.759  21.229  19.728  0.00  0.00    +0.202 C 
BRANCH  32  33
ATOM     33  O   UNL     1      52.882  21.205  18.845  0.00  0.00    -0.561 OA
ATOM     34  H   UNL     1      53.658  21.673  19.184  0.00  0.00    +0.378 HD
ENDBRANCH  32  33
ENDBRANCH  31  32
ENDBRANCH  20  21
ENDBRANCH  19  20
TORSDOF 16
ENDMDL
MODEL 6
REMARK VINA RESULT:      -5.8      1.661      2.485
REMARK  Name = ZINC95485908
REMARK  17 active torsions:
REMARK  status: ('A' for Active; 'I' for Inactive)
REMARK    1  A    between atoms: C1_1  and  C2_2
REMARK    2  A    between atoms: C3_4  and  O16_53
REMARK    3  A    between atoms: C4_6  and  O15_52
REMARK    4  A    between atoms: C5_8  and  O14_51
REMARK    5  A    between atoms: C6_10  and  O2_13
REMARK    6  A    between atoms: O2_13  and  C7_14
REMARK    7  A    between atoms: C10_17  and  C13_21
REMARK    8  A    between atoms: C12_19  and  O3_20
REMARK    9  A    between atoms: C14_22  and  O8_34
REMARK   10  A    between atoms: C17_26  and  O7_33
REMARK   11  A    between atoms: C19_28  and  O6_32
REMARK   12  A    between atoms: O8_34  and  C22_35
REMARK   13  A    between atoms: C23_37  and  O13_50
REMARK   14  A    between atoms: C24_39  and  O12_49
REMARK   15  A    between atoms: C25_41  and  O11_48
REMARK   16  A    between atoms: C26_43  and  C27_46
REMARK   17  A    between atoms: C27_46  and  O10_47
REMARK                            x       y       z     vdW  Elec       q    Type
REMARK                         _______ _______ _______ _____ _____    ______ ____
ROOT
ATOM     18  C   UNL     1      47.484  15.836  18.171  0.00  0.00    +0.206 A 
ATOM     19  C   UNL     1      48.794  15.560  17.915  0.00  0.00    -0.090 A 
ATOM     36  C   UNL     1      49.141  14.329  17.302  0.00  0.00    +0.412 A 
ATOM     37  C   UNL     1      48.045  13.404  16.972  0.00  0.00    -0.264 A 
ATOM     38  C   UNL     1      48.296  12.166  16.366  0.00  0.00    +0.221 A 
ATOM     41  C   UNL     1      47.240  11.324  16.073  0.00  0.00    -0.055 A 
ATOM     42  C   UNL     1      45.937  11.706  16.377  0.00  0.00    +0.196 A 
ATOM     45  C   UNL     1      45.681  12.929  16.976  0.00  0.00    -0.026 A 
ATOM     46  C   UNL     1      46.728  13.786  17.279  0.00  0.00    +0.183 A 
ATOM     47  O   UNL     1      50.304  14.047  17.057  0.00  0.00    -0.454 OA
ATOM     48  O   UNL     1      46.495  14.978  17.868  0.00  0.00    -0.202 OA
ENDROOT
BRANCH  18  17
ATOM     14  C   UNL     1      46.494  19.541  19.998  0.00  0.00    +0.134 A 
ATOM     15  C   UNL     1      46.464  19.419  18.615  0.00  0.00    -0.028 A 
ATOM     16  C   UNL     1      46.785  18.220  18.019  0.00  0.00    +0.128 A 
ATOM     17  C   UNL     1      47.141  17.121  18.807  0.00  0.00    -0.098 A 
ATOM     49  C   UNL     1      47.173  17.244  20.199  0.00  0.00    +0.098 A 
ATOM     50  C   UNL     1      46.854  18.452  20.790  0.00  0.00    +0.073 A 
BRANCH  50  51
ATOM     51  O   UNL     1      46.888  18.577  22.143  0.00  0.00    -0.480 OA
ATOM     52  H   UNL     1      46.261  18.004  22.606  0.00  0.00    +0.384 HD
ENDBRANCH  50  51
BRANCH  14  13
ATOM     13  O   UNL     1      46.178  20.727  20.580  0.00  0.00    -0.283 OA
BRANCH  13  12
ATOM      1  C   UNL     1      41.897  19.184  19.241  0.00  0.00    +0.074 C 
ATOM      2  C   UNL     1      42.624  20.355  19.905  0.00  0.00    +0.141 C 
ATOM      3  C   UNL     1      42.375  21.634  19.100  0.00  0.00    +0.170 C 
ATOM      6  C   UNL     1      43.154  22.789  19.735  0.00  0.00    +0.203 C 
ATOM      9  C   UNL     1      44.640  22.417  19.792  0.00  0.00    +0.146 C 
ATOM     12  C   UNL     1      44.802  21.110  20.570  0.00  0.00    +0.304 C 
ATOM     53  O   UNL     1      44.026  20.085  19.945  0.00  0.00    -0.377 OA
BRANCH   3   4
ATOM      4  O   UNL     1      40.978  21.938  19.106  0.00  0.00    -0.550 OA
ATOM      5  H   UNL     1      40.570  21.893  19.981  0.00  0.00    +0.381 HD
ENDBRANCH   3   4
BRANCH   6   7
ATOM      7  O   UNL     1      42.985  23.970  18.949  0.00  0.00    -0.535 OA
ATOM      8  H   UNL     1      42.365  24.609  19.326  0.00  0.00    +0.380 HD
ENDBRANCH   6   7
BRANCH   9  10
ATOM     10  O   UNL     1      45.140  22.250  18.464  0.00  0.00    -0.536 OA
ATOM     11  H   UNL     1      44.458  22.285  17.780  0.00  0.00    +0.389 HD
ENDBRANCH   9  10
ENDBRANCH  13  12
ENDBRANCH  14  13
ENDBRANCH  18  17
BRANCH  38  39
ATOM     39  O   UNL     1      49.568  11.795  16.068  0.00  0.00    -0.472 OA
ATOM     40  H   UNL     1      49.654  10.871  15.799  0.00  0.00    +0.403 HD
ENDBRANCH  38  39
BRANCH  42  43
ATOM     43  O   UNL     1      44.907  10.872  16.084  0.00  0.00    -0.487 OA
ATOM     44  H   UNL     1      44.209  11.280  15.554  0.00  0.00    +0.404 HD
ENDBRANCH  42  43
BRANCH  19  20
ATOM     20  O   UNL     1      49.762  16.459  18.244  0.00  0.00    -0.284 OA
BRANCH  20  21
ATOM     21  C   UNL     1      50.295  17.256  17.183  0.00  0.00    +0.326 C 
ATOM     22  C   UNL     1      51.818  17.104  17.147  0.00  0.00    +0.144 C 
ATOM     25  C   UNL     1      52.406  17.627  18.462  0.00  0.00    +0.159 C 
ATOM     28  C   UNL     1      51.971  19.082  18.661  0.00  0.00    +0.176 C 
ATOM     31  C   UNL     1      50.442  19.156  18.638  0.00  0.00    +0.198 C 
ATOM     35  O   UNL     1      49.959  18.627  17.401  0.00  0.00    -0.360 OA
BRANCH  22  23
ATOM     23  O   UNL     1      52.347  17.857  16.054  0.00  0.00    -0.542 OA
ATOM     24  H   UNL     1      52.597  17.318  15.291  0.00  0.00    +0.390 HD
ENDBRANCH  22  23
BRANCH  25  26
ATOM     26  O   UNL     1      51.929  16.830  19.548  0.00  0.00    -0.526 OA
ATOM     27  H   UNL     1      50.989  16.607  19.489  0.00  0.00    +0.378 HD
ENDBRANCH  25  26
BRANCH  28  29
ATOM     29  O   UNL     1      52.455  19.557  19.919  0.00  0.00    -0.550 OA
ATOM     30  H   UNL     1      52.572  18.863  20.582  0.00  0.00    +0.380 HD
ENDBRANCH  28  29
BRANCH  31  32
ATOM     32  C   UNL     1      50.000  20.615  18.777  0.00  0.00    +0.202 C 
BRANCH  32  33
ATOM     33  O   UNL     1      51.073  21.477  18.394  0.00  0.00    -0.561 OA
ATOM     34  H   UNL     1      51.876  21.363  18.922  0.00  0.00    +0.378 HD
ENDBRANCH  32  33
ENDBRANCH  31  32
ENDBRANCH  20  21
ENDBRANCH  19  20
TORSDOF 16
ENDMDL
MODEL 7
REMARK VINA RESULT:      -5.7      1.945      8.655
REMARK  Name = ZINC95485908
REMARK  17 active torsions:
REMARK  status: ('A' for Active; 'I' for Inactive)
REMARK    1  A    between atoms: C1_1  and  C2_2
REMARK    2  A    between atoms: C3_4  and  O16_53
REMARK    3  A    between atoms: C4_6  and  O15_52
REMARK    4  A    between atoms: C5_8  and  O14_51
REMARK    5  A    between atoms: C6_10  and  O2_13
REMARK    6  A    between atoms: O2_13  and  C7_14
REMARK    7  A    between atoms: C10_17  and  C13_21
REMARK    8  A    between atoms: C12_19  and  O3_20
REMARK    9  A    between atoms: C14_22  and  O8_34
REMARK   10  A    between atoms: C17_26  and  O7_33
REMARK   11  A    between atoms: C19_28  and  O6_32
REMARK   12  A    between atoms: O8_34  and  C22_35
REMARK   13  A    between atoms: C23_37  and  O13_50
REMARK   14  A    between atoms: C24_39  and  O12_49
REMARK   15  A    between atoms: C25_41  and  O11_48
REMARK   16  A    between atoms: C26_43  and  C27_46
REMARK   17  A    between atoms: C27_46  and  O10_47
REMARK                            x       y       z     vdW  Elec       q    Type
REMARK                         _______ _______ _______ _____ _____    ______ ____
ROOT
ATOM     18  C   UNL     1      45.585  18.609  18.475  0.00  0.00    +0.206 A 
ATOM     19  C   UNL     1      46.536  19.527  18.808  0.00  0.00    -0.090 A 
ATOM     36  C   UNL     1      46.142  20.841  19.170  0.00  0.00    +0.412 A 
ATOM     37  C   UNL     1      44.701  21.141  19.163  0.00  0.00    -0.264 A 
ATOM     38  C   UNL     1      44.223  22.414  19.506  0.00  0.00    +0.221 A 
ATOM     41  C   UNL     1      42.863  22.657  19.487  0.00  0.00    -0.055 A 
ATOM     42  C   UNL     1      41.976  21.646  19.131  0.00  0.00    +0.196 A 
ATOM     45  C   UNL     1      42.442  20.385  18.791  0.00  0.00    -0.026 A 
ATOM     46  C   UNL     1      43.803  20.122  18.803  0.00  0.00    +0.183 A 
ATOM     47  O   UNL     1      46.965  21.690  19.474  0.00  0.00    -0.454 OA
ATOM     48  O   UNL     1      44.272  18.901  18.469  0.00  0.00    -0.202 OA
ENDROOT
BRANCH  18  17
ATOM     14  C   UNL     1      46.816  14.689  17.397  0.00  0.00    +0.134 A 
ATOM     15  C   UNL     1      46.986  15.740  16.505  0.00  0.00    -0.028 A 
ATOM     16  C   UNL     1      46.588  17.012  16.852  0.00  0.00    +0.128 A 
ATOM     17  C   UNL     1      46.011  17.248  18.103  0.00  0.00    -0.098 A 
ATOM     49  C   UNL     1      45.838  16.190  19.000  0.00  0.00    +0.098 A 
ATOM     50  C   UNL     1      46.236  14.915  18.644  0.00  0.00    +0.073 A 
BRANCH  50  51
ATOM     51  O   UNL     1      46.065  13.883  19.512  0.00  0.00    -0.480 OA
ATOM     52  H   UNL     1      45.963  13.022  19.084  0.00  0.00    +0.384 HD
ENDBRANCH  50  51
BRANCH  14  13
ATOM     13  O   UNL     1      47.210  13.436  17.050  0.00  0.00    -0.283 OA
BRANCH  13  12
ATOM      1  C   UNL     1      49.894  10.363  14.630  0.00  0.00    +0.074 C 
ATOM      2  C   UNL     1      49.884  11.769  15.234  0.00  0.00    +0.141 C 
ATOM      3  C   UNL     1      51.014  11.892  16.260  0.00  0.00    +0.170 C 
ATOM      6  C   UNL     1      50.960  13.281  16.904  0.00  0.00    +0.203 C 
ATOM      9  C   UNL     1      49.578  13.486  17.534  0.00  0.00    +0.146 C 
ATOM     12  C   UNL     1      48.503  13.301  16.459  0.00  0.00    +0.304 C 
ATOM     53  O   UNL     1      48.630  12.001  15.879  0.00  0.00    -0.377 OA
BRANCH   3   4
ATOM      4  O   UNL     1      52.273  11.716  15.608  0.00  0.00    -0.550 OA
ATOM      5  H   UNL     1      53.025  12.071  16.102  0.00  0.00    +0.381 HD
ENDBRANCH   3   4
BRANCH   6   7
ATOM      7  O   UNL     1      51.966  13.379  17.914  0.00  0.00    -0.535 OA
ATOM      8  H   UNL     1      52.702  13.961  17.681  0.00  0.00    +0.380 HD
ENDBRANCH   6   7
BRANCH   9  10
ATOM     10  O   UNL     1      49.382  12.528  18.576  0.00  0.00    -0.536 OA
ATOM     11  H   UNL     1      48.983  11.699  18.278  0.00  0.00    +0.389 HD
ENDBRANCH   9  10
ENDBRANCH  13  12
ENDBRANCH  14  13
ENDBRANCH  18  17
BRANCH  38  39
ATOM     39  O   UNL     1      45.088  23.399  19.854  0.00  0.00    -0.472 OA
ATOM     40  H   UNL     1      45.503  23.842  19.101  0.00  0.00    +0.403 HD
ENDBRANCH  38  39
BRANCH  42  43
ATOM     43  O   UNL     1      40.642  21.896  19.116  0.00  0.00    -0.487 OA
ATOM     44  H   UNL     1      40.111  21.227  19.570  0.00  0.00    +0.404 HD
ENDBRANCH  42  43
BRANCH  19  20
ATOM     20  O   UNL     1      47.853  19.185  18.795  0.00  0.00    -0.284 OA
BRANCH  20  21
ATOM     21  C   UNL     1      48.369  18.546  19.965  0.00  0.00    +0.326 C 
ATOM     22  C   UNL     1      49.071  19.584  20.845  0.00  0.00    +0.144 C 
ATOM     25  C   UNL     1      50.258  20.175  20.077  0.00  0.00    +0.159 C 
ATOM     28  C   UNL     1      51.195  19.040  19.656  0.00  0.00    +0.176 C 
ATOM     31  C   UNL     1      50.411  18.024  18.822  0.00  0.00    +0.198 C 
ATOM     35  O   UNL     1      49.304  17.536  19.583  0.00  0.00    -0.360 OA
BRANCH  22  23
ATOM     23  O   UNL     1      49.540  18.956  22.040  0.00  0.00    -0.542 OA
ATOM     24  H   UNL     1      49.632  19.560  22.791  0.00  0.00    +0.390 HD
ENDBRANCH  22  23
BRANCH  25  26
ATOM     26  O   UNL     1      49.781  20.859  18.917  0.00  0.00    -0.526 OA
ATOM     27  H   UNL     1      48.829  20.769  18.770  0.00  0.00    +0.378 HD
ENDBRANCH  25  26
BRANCH  28  29
ATOM     29  O   UNL     1      52.269  19.572  18.876  0.00  0.00    -0.550 OA
ATOM     30  H   UNL     1      53.132  19.187  19.082  0.00  0.00    +0.380 HD
ENDBRANCH  28  29
BRANCH  31  32
ATOM     32  C   UNL     1      51.326  16.856  18.446  0.00  0.00    +0.202 C 
BRANCH  32  33
ATOM     33  O   UNL     1      52.177  17.246  17.366  0.00  0.00    -0.561 OA
ATOM     34  H   UNL     1      52.441  16.515  16.790  0.00  0.00    +0.378 HD
ENDBRANCH  32  33
ENDBRANCH  31  32
ENDBRANCH  20  21
ENDBRANCH  19  20
TORSDOF 16
ENDMDL
MODEL 8
REMARK VINA RESULT:      -5.6      1.871      8.590
REMARK  Name = ZINC95485908
REMARK  17 active torsions:
REMARK  status: ('A' for Active; 'I' for Inactive)
REMARK    1  A    between atoms: C1_1  and  C2_2
REMARK    2  A    between atoms: C3_4  and  O16_53
REMARK    3  A    between atoms: C4_6  and  O15_52
REMARK    4  A    between atoms: C5_8  and  O14_51
REMARK    5  A    between atoms: C6_10  and  O2_13
REMARK    6  A    between atoms: O2_13  and  C7_14
REMARK    7  A    between atoms: C10_17  and  C13_21
REMARK    8  A    between atoms: C12_19  and  O3_20
REMARK    9  A    between atoms: C14_22  and  O8_34
REMARK   10  A    between atoms: C17_26  and  O7_33
REMARK   11  A    between atoms: C19_28  and  O6_32
REMARK   12  A    between atoms: O8_34  and  C22_35
REMARK   13  A    between atoms: C23_37  and  O13_50
REMARK   14  A    between atoms: C24_39  and  O12_49
REMARK   15  A    between atoms: C25_41  and  O11_48
REMARK   16  A    between atoms: C26_43  and  C27_46
REMARK   17  A    between atoms: C27_46  and  O10_47
REMARK                            x       y       z     vdW  Elec       q    Type
REMARK                         _______ _______ _______ _____ _____    ______ ____
ROOT
ATOM     18  C   UNL     1      46.310  17.751  18.585  0.00  0.00    +0.206 A 
ATOM     19  C   UNL     1      47.350  18.573  18.906  0.00  0.00    -0.090 A 
ATOM     36  C   UNL     1      47.085  19.905  19.317  0.00  0.00    +0.412 A 
ATOM     37  C   UNL     1      45.677  20.329  19.373  0.00  0.00    -0.264 A 
ATOM     38  C   UNL     1      45.325  21.627  19.767  0.00  0.00    +0.221 A 
ATOM     41  C   UNL     1      43.991  21.988  19.807  0.00  0.00    -0.055 A 
ATOM     42  C   UNL     1      43.008  21.068  19.458  0.00  0.00    +0.196 A 
ATOM     45  C   UNL     1      43.349  19.783  19.067  0.00  0.00    -0.026 A 
ATOM     46  C   UNL     1      44.681  19.402  19.021  0.00  0.00    +0.183 A 
ATOM     47  O   UNL     1      47.990  20.669  19.612  0.00  0.00    -0.454 OA
ATOM     48  O   UNL     1      45.029  18.156  18.636  0.00  0.00    -0.202 OA
ENDROOT
BRANCH  18  17
ATOM     14  C   UNL     1      47.153  13.768  17.370  0.00  0.00    +0.134 A 
ATOM     15  C   UNL     1      47.168  14.101  18.718  0.00  0.00    -0.028 A 
ATOM     16  C   UNL     1      46.895  15.391  19.116  0.00  0.00    +0.128 A 
ATOM     17  C   UNL     1      46.603  16.369  18.161  0.00  0.00    -0.098 A 
ATOM     49  C   UNL     1      46.589  16.035  16.805  0.00  0.00    +0.098 A 
ATOM     50  C   UNL     1      46.868  14.740  16.413  0.00  0.00    +0.073 A 
BRANCH  50  51
ATOM     51  O   UNL     1      46.860  14.412  15.093  0.00  0.00    -0.480 OA
ATOM     52  H   UNL     1      45.976  14.266  14.730  0.00  0.00    +0.384 HD
ENDBRANCH  50  51
BRANCH  14  13
ATOM     13  O   UNL     1      47.424  12.494  16.984  0.00  0.00    -0.283 OA
BRANCH  13  12
ATOM      1  C   UNL     1      51.414  14.632  15.567  0.00  0.00    +0.074 C 
ATOM      2  C   UNL     1      50.793  13.264  15.853  0.00  0.00    +0.141 C 
ATOM      3  C   UNL     1      50.848  12.404  14.587  0.00  0.00    +0.170 C 
ATOM      6  C   UNL     1      50.171  11.058  14.863  0.00  0.00    +0.203 C 
ATOM      9  C   UNL     1      48.734  11.309  15.335  0.00  0.00    +0.146 C 
ATOM     12  C   UNL     1      48.761  12.210  16.571  0.00  0.00    +0.304 C 
ATOM     53  O   UNL     1      49.433  13.432  16.255  0.00  0.00    -0.377 OA
BRANCH   3   4
ATOM      4  O   UNL     1      52.210  12.187  14.215  0.00  0.00    -0.550 OA
ATOM      5  H   UNL     1      52.329  11.513  13.532  0.00  0.00    +0.381 HD
ENDBRANCH   3   4
BRANCH   6   7
ATOM      7  O   UNL     1      50.153  10.277  13.667  0.00  0.00    -0.535 OA
ATOM      8  H   UNL     1      50.750  10.598  12.978  0.00  0.00    +0.380 HD
ENDBRANCH   6   7
BRANCH   9  10
ATOM     10  O   UNL     1      47.995  11.948  14.292  0.00  0.00    -0.536 OA
ATOM     11  H   UNL     1      47.702  12.843  14.511  0.00  0.00    +0.389 HD
ENDBRANCH   9  10
ENDBRANCH  13  12
ENDBRANCH  14  13
ENDBRANCH  18  17
BRANCH  38  39
ATOM     39  O   UNL     1      46.285  22.523  20.108  0.00  0.00    -0.472 OA
ATOM     40  H   UNL     1      46.086  23.432  19.845  0.00  0.00    +0.403 HD
ENDBRANCH  38  39
BRANCH  42  43
ATOM     43  O   UNL     1      41.701  21.433  19.501  0.00  0.00    -0.487 OA
ATOM     44  H   UNL     1      41.526  22.314  19.143  0.00  0.00    +0.404 HD
ENDBRANCH  42  43
BRANCH  19  20
ATOM     20  O   UNL     1      48.630  18.119  18.834  0.00  0.00    -0.284 OA
BRANCH  20  21
ATOM     21  C   UNL     1      49.319  17.921  20.070  0.00  0.00    +0.326 C 
ATOM     22  C   UNL     1      50.524  18.863  20.140  0.00  0.00    +0.144 C 
ATOM     25  C   UNL     1      51.496  18.520  19.006  0.00  0.00    +0.159 C 
ATOM     28  C   UNL     1      51.902  17.048  19.124  0.00  0.00    +0.176 C 
ATOM     31  C   UNL     1      50.644  16.176  19.094  0.00  0.00    +0.198 C 
ATOM     35  O   UNL     1      49.769  16.567  20.155  0.00  0.00    -0.360 OA
BRANCH  22  23
ATOM     23  O   UNL     1      51.182  18.704  21.398  0.00  0.00    -0.542 OA
ATOM     24  H   UNL     1      51.667  17.872  21.486  0.00  0.00    +0.390 HD
ENDBRANCH  22  23
BRANCH  25  26
ATOM     26  O   UNL     1      50.859  18.743  17.747  0.00  0.00    -0.526 OA
ATOM     27  H   UNL     1      51.415  19.198  17.100  0.00  0.00    +0.378 HD
ENDBRANCH  25  26
BRANCH  28  29
ATOM     29  O   UNL     1      52.752  16.697  18.030  0.00  0.00    -0.550 OA
ATOM     30  H   UNL     1      53.003  15.764  18.011  0.00  0.00    +0.380 HD
ENDBRANCH  28  29
BRANCH  31  32
ATOM     32  C   UNL     1      51.035  14.707  19.271  0.00  0.00    +0.202 C 
BRANCH  32  33
ATOM     33  O   UNL     1      52.200  14.620  20.093  0.00  0.00    -0.561 OA
ATOM     34  H   UNL     1      52.735  15.426  20.102  0.00  0.00    +0.378 HD
ENDBRANCH  32  33
ENDBRANCH  31  32
ENDBRANCH  20  21
ENDBRANCH  19  20
TORSDOF 16
ENDMDL
MODEL 9
REMARK VINA RESULT:      -5.6      2.243      5.497
REMARK  Name = ZINC95485908
REMARK  17 active torsions:
REMARK  status: ('A' for Active; 'I' for Inactive)
REMARK    1  A    between atoms: C1_1  and  C2_2
REMARK    2  A    between atoms: C3_4  and  O16_53
REMARK    3  A    between atoms: C4_6  and  O15_52
REMARK    4  A    between atoms: C5_8  and  O14_51
REMARK    5  A    between atoms: C6_10  and  O2_13
REMARK    6  A    between atoms: O2_13  and  C7_14
REMARK    7  A    between atoms: C10_17  and  C13_21
REMARK    8  A    between atoms: C12_19  and  O3_20
REMARK    9  A    between atoms: C14_22  and  O8_34
REMARK   10  A    between atoms: C17_26  and  O7_33
REMARK   11  A    between atoms: C19_28  and  O6_32
REMARK   12  A    between atoms: O8_34  and  C22_35
REMARK   13  A    between atoms: C23_37  and  O13_50
REMARK   14  A    between atoms: C24_39  and  O12_49
REMARK   15  A    between atoms: C25_41  and  O11_48
REMARK   16  A    between atoms: C26_43  and  C27_46
REMARK   17  A    between atoms: C27_46  and  O10_47
REMARK                            x       y       z     vdW  Elec       q    Type
REMARK                         _______ _______ _______ _____ _____    ______ ____
ROOT
ATOM     18  C   UNL     1      50.013  15.975  19.432  0.00  0.00    +0.206 A 
ATOM     19  C   UNL     1      49.954  14.722  18.900  0.00  0.00    -0.090 A 
ATOM     36  C   UNL     1      51.127  13.926  18.858  0.00  0.00    +0.412 A 
ATOM     37  C   UNL     1      52.363  14.511  19.404  0.00  0.00    -0.264 A 
ATOM     38  C   UNL     1      53.568  13.795  19.403  0.00  0.00    +0.221 A 
ATOM     41  C   UNL     1      54.707  14.380  19.923  0.00  0.00    -0.055 A 
ATOM     42  C   UNL     1      54.656  15.669  20.444  0.00  0.00    +0.196 A 
ATOM     45  C   UNL     1      53.467  16.382  20.449  0.00  0.00    -0.026 A 
ATOM     46  C   UNL     1      52.314  15.813  19.930  0.00  0.00    +0.183 A 
ATOM     47  O   UNL     1      51.113  12.799  18.389  0.00  0.00    -0.454 OA
ATOM     48  O   UNL     1      51.151  16.498  19.922  0.00  0.00    -0.202 OA
ENDROOT
BRANCH  18  17
ATOM     14  C   UNL     1      46.475  18.326  19.532  0.00  0.00    +0.134 A 
ATOM     15  C   UNL     1      47.456  18.588  18.585  0.00  0.00    -0.028 A 
ATOM     16  C   UNL     1      48.605  17.828  18.550  0.00  0.00    +0.128 A 
ATOM     17  C   UNL     1      48.784  16.790  19.469  0.00  0.00    -0.098 A 
ATOM     49  C   UNL     1      47.797  16.526  20.422  0.00  0.00    +0.098 A 
ATOM     50  C   UNL     1      46.650  17.296  20.454  0.00  0.00    +0.073 A 
BRANCH  50  51
ATOM     51  O   UNL     1      45.689  17.045  21.384  0.00  0.00    -0.480 OA
ATOM     52  H   UNL     1      44.874  16.678  21.016  0.00  0.00    +0.384 HD
ENDBRANCH  50  51
BRANCH  14  13
ATOM     13  O   UNL     1      45.345  19.079  19.562  0.00  0.00    -0.283 OA
BRANCH  13  12
ATOM      1  C   UNL     1      47.183  22.384  22.425  0.00  0.00    +0.074 C 
ATOM      2  C   UNL     1      46.430  22.186  21.108  0.00  0.00    +0.141 C 
ATOM      3  C   UNL     1      45.093  22.931  21.168  0.00  0.00    +0.170 C 
ATOM      6  C   UNL     1      44.319  22.679  19.871  0.00  0.00    +0.203 C 
ATOM      9  C   UNL     1      44.136  21.169  19.683  0.00  0.00    +0.146 C 
ATOM     12  C   UNL     1      45.509  20.493  19.681  0.00  0.00    +0.304 C 
ATOM     53  O   UNL     1      46.190  20.793  20.901  0.00  0.00    -0.377 OA
BRANCH   3   4
ATOM      4  O   UNL     1      45.332  24.331  21.318  0.00  0.00    -0.550 OA
ATOM      5  H   UNL     1      45.504  24.605  22.229  0.00  0.00    +0.381 HD
ENDBRANCH   3   4
BRANCH   6   7
ATOM      7  O   UNL     1      43.039  23.310  19.947  0.00  0.00    -0.535 OA
ATOM      8  H   UNL     1      43.079  24.275  20.002  0.00  0.00    +0.380 HD
ENDBRANCH   6   7
BRANCH   9  10
ATOM     10  O   UNL     1      43.348  20.647  20.755  0.00  0.00    -0.536 OA
ATOM     11  H   UNL     1      42.394  20.737  20.621  0.00  0.00    +0.389 HD
ENDBRANCH   9  10
ENDBRANCH  13  12
ENDBRANCH  14  13
ENDBRANCH  18  17
BRANCH  38  39
ATOM     39  O   UNL     1      53.616  12.537  18.895  0.00  0.00    -0.472 OA
ATOM     40  H   UNL     1      53.089  11.894  19.388  0.00  0.00    +0.403 HD
ENDBRANCH  38  39
BRANCH  42  43
ATOM     43  O   UNL     1      55.780  16.233  20.954  0.00  0.00    -0.487 OA
ATOM     44  H   UNL     1      55.686  16.544  21.865  0.00  0.00    +0.404 HD
ENDBRANCH  42  43
BRANCH  19  20
ATOM     20  O   UNL     1      48.779  14.239  18.412  0.00  0.00    -0.284 OA
BRANCH  20  21
ATOM     21  C   UNL     1      48.473  14.534  17.047  0.00  0.00    +0.326 C 
ATOM     22  C   UNL     1      46.964  14.743  16.897  0.00  0.00    +0.144 C 
ATOM     25  C   UNL     1      46.237  13.445  17.266  0.00  0.00    +0.159 C 
ATOM     28  C   UNL     1      46.758  12.311  16.379  0.00  0.00    +0.176 C 
ATOM     31  C   UNL     1      48.275  12.197  16.549  0.00  0.00    +0.198 C 
ATOM     35  O   UNL     1      48.887  13.446  16.219  0.00  0.00    -0.360 OA
BRANCH  22  23
ATOM     23  O   UNL     1      46.663  15.092  15.544  0.00  0.00    -0.542 OA
ATOM     24  H   UNL     1      46.141  14.426  15.074  0.00  0.00    +0.390 HD
ENDBRANCH  22  23
BRANCH  25  26
ATOM     26  O   UNL     1      46.485  13.134  18.638  0.00  0.00    -0.526 OA
ATOM     27  H   UNL     1      45.758  13.368  19.232  0.00  0.00    +0.378 HD
ENDBRANCH  25  26
BRANCH  28  29
ATOM     29  O   UNL     1      46.140  11.082  16.763  0.00  0.00    -0.550 OA
ATOM     30  H   UNL     1      46.664  10.555  17.382  0.00  0.00    +0.380 HD
ENDBRANCH  28  29
BRANCH  31  32
ATOM     32  C   UNL     1      48.813  11.104  15.621  0.00  0.00    +0.202 C 
BRANCH  32  33
ATOM     33  O   UNL     1      47.994  11.027  14.453  0.00  0.00    -0.561 OA
ATOM     34  H   UNL     1      48.490  10.882  13.635  0.00  0.00    +0.378 HD
ENDBRANCH  32  33
ENDBRANCH  31  32
ENDBRANCH  20  21
ENDBRANCH  19  20
TORSDOF 16
ENDMDL
