MODEL 1
REMARK VINA RESULT:      -6.3      0.000      0.000
REMARK  Name = ZINC56871274
REMARK  10 active torsions:
REMARK  status: ('A' for Active; 'I' for Inactive)
REMARK    1  A    between atoms: C1_1  and  C2_2
REMARK    2  A    between atoms: C2_2  and  C3_4
REMARK    3  A    between atoms: C6_8  and  C29_37
REMARK    4  A    between atoms: C12_17  and  C28_36
REMARK    5  A    between atoms: C15_20  and  O2_35
REMARK    6  A    between atoms: C16_22  and  C26_33
REMARK    7  A    between atoms: C16_22  and  C27_34
REMARK    8  A    between atoms: C20_27  and  C25_32
REMARK    9  A    between atoms: C21_28  and  C24_31
REMARK   10  A    between atoms: C29_37  and  O3_38
REMARK                            x       y       z     vdW  Elec       q    Type
REMARK                         _______ _______ _______ _____ _____    ______ ____
ROOT
ATOM      3  C   UNL     1      44.860  18.671  21.691  0.00  0.00    -0.042 C 
ATOM      4  C   UNL     1      45.081  20.143  22.138  0.00  0.00    +0.029 C 
ATOM      5  C   UNL     1      46.184  20.725  21.220  0.00  0.00    +0.035 C 
ATOM      6  C   UNL     1      46.892  19.471  20.689  0.00  0.00    -0.053 C 
ATOM     10  C   UNL     1      47.676  19.645  19.409  0.00  0.00    +0.030 C 
ATOM     11  C   UNL     1      48.201  18.275  18.954  0.00  0.00    +0.016 C 
ATOM     12  C   UNL     1      47.084  17.245  18.816  0.00  0.00    -0.032 C 
ATOM     13  C   UNL     1      46.210  17.688  17.636  0.00  0.00    +0.017 C 
ATOM     14  C   UNL     1      47.675  15.857  18.511  0.00  0.00    -0.026 C 
ATOM     15  C   UNL     1      48.547  15.457  19.712  0.00  0.00    +0.017 C 
ATOM     16  C   UNL     1      48.583  15.941  17.283  0.00  0.00    +0.014 C 
ATOM     17  C   UNL     1      49.076  14.536  16.901  0.00  0.00    +0.016 C 
ATOM     18  C   UNL     1      47.853  13.691  16.551  0.00  0.00    -0.001 C 
ATOM     19  C   UNL     1      48.197  12.437  15.780  0.00  0.00    -0.038 C 
ATOM     20  C   UNL     1      49.301  11.614  16.443  0.00  0.00    +0.034 C 
ATOM     21  C   UNL     1      48.727  12.860  14.387  0.00  0.00    +0.017 C 
ATOM     22  C   UNL     1      46.972  11.561  15.523  0.00  0.00    +0.166 C 
ATOM     25  C   UNL     1      46.110  11.380  16.762  0.00  0.00    -0.018 C 
ATOM     26  C   UNL     1      45.711  12.732  17.344  0.00  0.00    +0.017 C 
ATOM     27  C   UNL     1      46.978  13.494  17.783  0.00  0.00    -0.036 C 
ATOM     28  C   UNL     1      47.652  12.683  18.880  0.00  0.00    +0.026 C 
ATOM     29  C   UNL     1      46.539  14.871  18.288  0.00  0.00    +0.003 C 
ATOM     30  C   UNL     1      45.658  14.767  19.528  0.00  0.00    +0.011 C 
ATOM     31  C   UNL     1      45.095  16.147  19.885  0.00  0.00    +0.001 C 
ATOM     32  C   UNL     1      46.226  17.153  20.084  0.00  0.00    +0.011 C 
ATOM     33  C   UNL     1      45.693  18.531  20.412  0.00  0.00    +0.024 C 
ENDROOT
BRANCH   3   2
ATOM      1  C   UNL     1      42.738  19.192  20.257  0.00  0.00    +0.057 C 
ATOM      2  C   UNL     1      43.393  18.454  21.396  0.00  0.00    +0.359 C 
ATOM     34  O   UNL     1      42.746  17.691  22.072  0.00  0.00    -0.450 OA
ENDBRANCH   3   2
BRANCH  22  23
ATOM     23  O   UNL     1      47.411  10.277  15.061  0.00  0.00    -0.566 OA
ATOM     24  H   UNL     1      47.373   9.582  15.733  0.00  0.00    +0.374 HD
ENDBRANCH  22  23
BRANCH   6   7
ATOM      7  C   UNL     1      47.794  18.932  21.799  0.00  0.00    +0.178 C 
BRANCH   7   8
ATOM      8  O   UNL     1      48.774  19.915  22.138  0.00  0.00    -0.569 OA
ATOM      9  H   UNL     1      49.415  20.090  21.436  0.00  0.00    +0.377 HD
ENDBRANCH   7   8
ENDBRANCH   6   7
TORSDOF 4
ENDMDL
MODEL 2
REMARK VINA RESULT:      -6.0      3.275      7.653
REMARK  Name = ZINC56871274
REMARK  10 active torsions:
REMARK  status: ('A' for Active; 'I' for Inactive)
REMARK    1  A    between atoms: C1_1  and  C2_2
REMARK    2  A    between atoms: C2_2  and  C3_4
REMARK    3  A    between atoms: C6_8  and  C29_37
REMARK    4  A    between atoms: C12_17  and  C28_36
REMARK    5  A    between atoms: C15_20  and  O2_35
REMARK    6  A    between atoms: C16_22  and  C26_33
REMARK    7  A    between atoms: C16_22  and  C27_34
REMARK    8  A    between atoms: C20_27  and  C25_32
REMARK    9  A    between atoms: C21_28  and  C24_31
REMARK   10  A    between atoms: C29_37  and  O3_38
REMARK                            x       y       z     vdW  Elec       q    Type
REMARK                         _______ _______ _______ _____ _____    ______ ____
ROOT
ATOM      3  C   UNL     1      52.000  18.266  18.990  0.00  0.00    -0.042 C 
ATOM      4  C   UNL     1      52.996  17.097  18.754  0.00  0.00    +0.029 C 
ATOM      5  C   UNL     1      52.143  15.840  18.455  0.00  0.00    +0.035 C 
ATOM      6  C   UNL     1      50.773  16.200  19.045  0.00  0.00    -0.053 C 
ATOM     10  C   UNL     1      49.594  15.427  18.502  0.00  0.00    +0.030 C 
ATOM     11  C   UNL     1      48.301  16.004  19.098  0.00  0.00    +0.016 C 
ATOM     12  C   UNL     1      48.173  17.505  18.856  0.00  0.00    -0.032 C 
ATOM     13  C   UNL     1      47.974  17.699  17.347  0.00  0.00    +0.017 C 
ATOM     14  C   UNL     1      46.946  18.062  19.600  0.00  0.00    -0.026 C 
ATOM     15  C   UNL     1      47.184  17.840  21.102  0.00  0.00    +0.017 C 
ATOM     16  C   UNL     1      45.699  17.271  19.204  0.00  0.00    +0.014 C 
ATOM     17  C   UNL     1      44.454  17.901  19.849  0.00  0.00    +0.016 C 
ATOM     18  C   UNL     1      44.323  19.326  19.315  0.00  0.00    -0.001 C 
ATOM     19  C   UNL     1      42.950  19.920  19.536  0.00  0.00    -0.038 C 
ATOM     20  C   UNL     1      42.474  19.796  20.983  0.00  0.00    +0.034 C 
ATOM     21  C   UNL     1      41.940  19.135  18.662  0.00  0.00    +0.017 C 
ATOM     22  C   UNL     1      42.868  21.376  19.081  0.00  0.00    +0.166 C 
ATOM     25  C   UNL     1      44.052  22.205  19.554  0.00  0.00    -0.018 C 
ATOM     26  C   UNL     1      45.367  21.563  19.125  0.00  0.00    +0.017 C 
ATOM     27  C   UNL     1      45.497  20.175  19.784  0.00  0.00    -0.036 C 
ATOM     28  C   UNL     1      45.534  20.377  21.291  0.00  0.00    +0.026 C 
ATOM     29  C   UNL     1      46.790  19.537  19.267  0.00  0.00    +0.003 C 
ATOM     30  C   UNL     1      48.023  20.325  19.697  0.00  0.00    +0.011 C 
ATOM     31  C   UNL     1      49.269  19.759  19.006  0.00  0.00    +0.001 C 
ATOM     32  C   UNL     1      49.421  18.271  19.311  0.00  0.00    +0.011 C 
ATOM     33  C   UNL     1      50.632  17.683  18.619  0.00  0.00    +0.024 C 
ENDROOT
BRANCH   3   2
ATOM      1  C   UNL     1      52.059  19.320  16.599  0.00  0.00    +0.057 C 
ATOM      2  C   UNL     1      52.353  19.416  18.074  0.00  0.00    +0.359 C 
ATOM     34  O   UNL     1      52.872  20.409  18.523  0.00  0.00    -0.450 OA
ENDBRANCH   3   2
BRANCH  22  23
ATOM     23  O   UNL     1      41.656  21.951  19.584  0.00  0.00    -0.566 OA
ATOM     24  H   UNL     1      41.162  22.464  18.930  0.00  0.00    +0.374 HD
ENDBRANCH  22  23
BRANCH   6   7
ATOM      7  C   UNL     1      50.859  16.050  20.564  0.00  0.00    +0.178 C 
BRANCH   7   8
ATOM      8  O   UNL     1      51.326  14.740  20.888  0.00  0.00    -0.569 OA
ATOM      9  H   UNL     1      51.541  14.619  21.823  0.00  0.00    +0.377 HD
ENDBRANCH   7   8
ENDBRANCH   6   7
TORSDOF 4
ENDMDL
MODEL 3
REMARK VINA RESULT:      -5.7      3.521      8.188
REMARK  Name = ZINC56871274
REMARK  10 active torsions:
REMARK  status: ('A' for Active; 'I' for Inactive)
REMARK    1  A    between atoms: C1_1  and  C2_2
REMARK    2  A    between atoms: C2_2  and  C3_4
REMARK    3  A    between atoms: C6_8  and  C29_37
REMARK    4  A    between atoms: C12_17  and  C28_36
REMARK    5  A    between atoms: C15_20  and  O2_35
REMARK    6  A    between atoms: C16_22  and  C26_33
REMARK    7  A    between atoms: C16_22  and  C27_34
REMARK    8  A    between atoms: C20_27  and  C25_32
REMARK    9  A    between atoms: C21_28  and  C24_31
REMARK   10  A    between atoms: C29_37  and  O3_38
REMARK                            x       y       z     vdW  Elec       q    Type
REMARK                         _______ _______ _______ _____ _____    ______ ____
ROOT
ATOM      3  C   UNL     1      49.306  11.517  16.001  0.00  0.00    -0.042 C 
ATOM      4  C   UNL     1      48.394  10.277  16.217  0.00  0.00    +0.029 C 
ATOM      5  C   UNL     1      47.425  10.634  17.371  0.00  0.00    +0.035 C 
ATOM      6  C   UNL     1      48.148  11.780  18.090  0.00  0.00    -0.053 C 
ATOM     10  C   UNL     1      47.281  12.681  18.938  0.00  0.00    +0.030 C 
ATOM     11  C   UNL     1      48.135  13.841  19.469  0.00  0.00    +0.016 C 
ATOM     12  C   UNL     1      48.840  14.601  18.350  0.00  0.00    -0.032 C 
ATOM     13  C   UNL     1      47.751  15.317  17.540  0.00  0.00    +0.017 C 
ATOM     14  C   UNL     1      49.800  15.650  18.938  0.00  0.00    -0.026 C 
ATOM     15  C   UNL     1      50.866  14.891  19.744  0.00  0.00    +0.017 C 
ATOM     16  C   UNL     1      49.041  16.558  19.907  0.00  0.00    +0.014 C 
ATOM     17  C   UNL     1      49.966  17.681  20.402  0.00  0.00    +0.016 C 
ATOM     18  C   UNL     1      50.391  18.504  19.188  0.00  0.00    -0.001 C 
ATOM     19  C   UNL     1      50.958  19.857  19.556  0.00  0.00    -0.038 C 
ATOM     20  C   UNL     1      52.056  19.774  20.616  0.00  0.00    +0.034 C 
ATOM     21  C   UNL     1      49.814  20.709  20.160  0.00  0.00    +0.017 C 
ATOM     22  C   UNL     1      51.464  20.625  18.336  0.00  0.00    +0.166 C 
ATOM     25  C   UNL     1      52.309  19.763  17.411  0.00  0.00    -0.018 C 
ATOM     26  C   UNL     1      51.549  18.506  16.999  0.00  0.00    +0.017 C 
ATOM     27  C   UNL     1      51.245  17.659  18.251  0.00  0.00    -0.036 C 
ATOM     28  C   UNL     1      52.573  17.235  18.860  0.00  0.00    +0.026 C 
ATOM     29  C   UNL     1      50.418  16.451  17.804  0.00  0.00    +0.003 C 
ATOM     30  C   UNL     1      51.201  15.544  16.861  0.00  0.00    +0.011 C 
ATOM     31  C   UNL     1      50.279  14.458  16.296  0.00  0.00    +0.001 C 
ATOM     32  C   UNL     1      49.631  13.664  17.428  0.00  0.00    +0.011 C 
ATOM     33  C   UNL     1      48.695  12.601  16.895  0.00  0.00    +0.024 C 
ENDROOT
BRANCH   3   2
ATOM      1  C   UNL     1      48.019  12.618  14.010  0.00  0.00    +0.057 C 
ATOM      2  C   UNL     1      49.249  11.931  14.548  0.00  0.00    +0.359 C 
ATOM     34  O   UNL     1      50.186  11.712  13.819  0.00  0.00    -0.450 OA
ENDBRANCH   3   2
BRANCH  22  23
ATOM     23  O   UNL     1      52.241  21.743  18.782  0.00  0.00    -0.566 OA
ATOM     24  H   UNL     1      52.886  21.525  19.470  0.00  0.00    +0.374 HD
ENDBRANCH  22  23
BRANCH   6   7
ATOM      7  C   UNL     1      49.274  11.177  18.929  0.00  0.00    +0.178 C 
BRANCH   7   8
ATOM      8  O   UNL     1      48.722  10.279  19.893  0.00  0.00    -0.569 OA
ATOM      9  H   UNL     1      49.382   9.853  20.458  0.00  0.00    +0.377 HD
ENDBRANCH   7   8
ENDBRANCH   6   7
TORSDOF 4
ENDMDL
MODEL 4
REMARK VINA RESULT:      -5.6      2.315      3.429
REMARK  Name = ZINC56871274
REMARK  10 active torsions:
REMARK  status: ('A' for Active; 'I' for Inactive)
REMARK    1  A    between atoms: C1_1  and  C2_2
REMARK    2  A    between atoms: C2_2  and  C3_4
REMARK    3  A    between atoms: C6_8  and  C29_37
REMARK    4  A    between atoms: C12_17  and  C28_36
REMARK    5  A    between atoms: C15_20  and  O2_35
REMARK    6  A    between atoms: C16_22  and  C26_33
REMARK    7  A    between atoms: C16_22  and  C27_34
REMARK    8  A    between atoms: C20_27  and  C25_32
REMARK    9  A    between atoms: C21_28  and  C24_31
REMARK   10  A    between atoms: C29_37  and  O3_38
REMARK                            x       y       z     vdW  Elec       q    Type
REMARK                         _______ _______ _______ _____ _____    ______ ____
ROOT
ATOM      3  C   UNL     1      49.107  19.691  20.875  0.00  0.00    -0.042 C 
ATOM      4  C   UNL     1      49.957  20.908  21.336  0.00  0.00    +0.029 C 
ATOM      5  C   UNL     1      51.264  20.876  20.506  0.00  0.00    +0.035 C 
ATOM      6  C   UNL     1      51.342  19.418  20.034  0.00  0.00    -0.053 C 
ATOM     10  C   UNL     1      52.202  19.161  18.819  0.00  0.00    +0.030 C 
ATOM     11  C   UNL     1      52.058  17.687  18.409  0.00  0.00    +0.016 C 
ATOM     12  C   UNL     1      50.603  17.288  18.185  0.00  0.00    -0.032 C 
ATOM     13  C   UNL     1      50.118  18.042  16.940  0.00  0.00    +0.017 C 
ATOM     14  C   UNL     1      50.498  15.774  17.929  0.00  0.00    -0.026 C 
ATOM     15  C   UNL     1      50.999  15.061  19.195  0.00  0.00    +0.017 C 
ATOM     16  C   UNL     1      51.422  15.381  16.776  0.00  0.00    +0.014 C 
ATOM     17  C   UNL     1      51.230  13.894  16.436  0.00  0.00    +0.016 C 
ATOM     18  C   UNL     1      49.781  13.702  15.993  0.00  0.00    -0.001 C 
ATOM     19  C   UNL     1      49.554  12.403  15.252  0.00  0.00    -0.038 C 
ATOM     20  C   UNL     1      50.099  11.187  16.001  0.00  0.00    +0.034 C 
ATOM     21  C   UNL     1      50.314  12.479  13.904  0.00  0.00    +0.017 C 
ATOM     22  C   UNL     1      48.082  12.186  14.901  0.00  0.00    +0.166 C 
ATOM     25  C   UNL     1      47.153  12.473  16.070  0.00  0.00    -0.018 C 
ATOM     26  C   UNL     1      47.391  13.877  16.617  0.00  0.00    +0.017 C 
ATOM     27  C   UNL     1      48.833  13.979  17.153  0.00  0.00    -0.036 C 
ATOM     28  C   UNL     1      48.975  12.990  18.300  0.00  0.00    +0.026 C 
ATOM     29  C   UNL     1      49.053  15.421  17.620  0.00  0.00    +0.003 C 
ATOM     30  C   UNL     1      48.142  15.784  18.787  0.00  0.00    +0.011 C 
ATOM     31  C   UNL     1      48.263  17.280  19.097  0.00  0.00    +0.001 C 
ATOM     32  C   UNL     1      49.716  17.653  19.382  0.00  0.00    +0.011 C 
ATOM     33  C   UNL     1      49.864  19.132  19.665  0.00  0.00    +0.024 C 
ENDROOT
BRANCH   3   2
ATOM      1  C   UNL     1      47.523  20.788  19.108  0.00  0.00    +0.057 C 
ATOM      2  C   UNL     1      47.732  20.169  20.467  0.00  0.00    +0.359 C 
ATOM     34  O   UNL     1      46.802  20.056  21.227  0.00  0.00    -0.450 OA
ENDBRANCH   3   2
BRANCH  22  23
ATOM     23  O   UNL     1      47.903  10.828  14.477  0.00  0.00    -0.566 OA
ATOM     24  H   UNL     1      47.513  10.739  13.597  0.00  0.00    +0.374 HD
ENDBRANCH  22  23
BRANCH   6   7
ATOM      7  C   UNL     1      51.810  18.564  21.212  0.00  0.00    +0.178 C 
BRANCH   7   8
ATOM      8  O   UNL     1      52.895  19.218  21.873  0.00  0.00    -0.569 OA
ATOM      9  H   UNL     1      52.624  19.782  22.610  0.00  0.00    +0.377 HD
ENDBRANCH   7   8
ENDBRANCH   6   7
TORSDOF 4
ENDMDL
MODEL 5
REMARK VINA RESULT:      -5.5      2.309      8.130
REMARK  Name = ZINC56871274
REMARK  10 active torsions:
REMARK  status: ('A' for Active; 'I' for Inactive)
REMARK    1  A    between atoms: C1_1  and  C2_2
REMARK    2  A    between atoms: C2_2  and  C3_4
REMARK    3  A    between atoms: C6_8  and  C29_37
REMARK    4  A    between atoms: C12_17  and  C28_36
REMARK    5  A    between atoms: C15_20  and  O2_35
REMARK    6  A    between atoms: C16_22  and  C26_33
REMARK    7  A    between atoms: C16_22  and  C27_34
REMARK    8  A    between atoms: C20_27  and  C25_32
REMARK    9  A    between atoms: C21_28  and  C24_31
REMARK   10  A    between atoms: C29_37  and  O3_38
REMARK                            x       y       z     vdW  Elec       q    Type
REMARK                         _______ _______ _______ _____ _____    ______ ____
ROOT
ATOM      3  C   UNL     1      50.863  15.074  18.103  0.00  0.00    -0.042 C 
ATOM      4  C   UNL     1      50.964  13.752  17.292  0.00  0.00    +0.029 C 
ATOM      5  C   UNL     1      49.558  13.487  16.699  0.00  0.00    +0.035 C 
ATOM      6  C   UNL     1      48.637  14.320  17.601  0.00  0.00    -0.053 C 
ATOM     10  C   UNL     1      47.291  14.685  17.017  0.00  0.00    +0.030 C 
ATOM     11  C   UNL     1      46.563  15.623  17.991  0.00  0.00    +0.016 C 
ATOM     12  C   UNL     1      47.396  16.853  18.341  0.00  0.00    -0.032 C 
ATOM     13  C   UNL     1      47.506  17.697  17.065  0.00  0.00    +0.017 C 
ATOM     14  C   UNL     1      46.692  17.680  19.431  0.00  0.00    -0.026 C 
ATOM     15  C   UNL     1      46.597  16.796  20.685  0.00  0.00    +0.017 C 
ATOM     16  C   UNL     1      45.268  18.015  18.987  0.00  0.00    +0.014 C 
ATOM     17  C   UNL     1      44.604  18.944  20.016  0.00  0.00    +0.016 C 
ATOM     18  C   UNL     1      45.418  20.235  20.072  0.00  0.00    -0.001 C 
ATOM     19  C   UNL     1      44.673  21.379  20.722  0.00  0.00    -0.038 C 
ATOM     20  C   UNL     1      44.079  21.007  22.081  0.00  0.00    +0.034 C 
ATOM     21  C   UNL     1      43.487  21.765  19.803  0.00  0.00    +0.017 C 
ATOM     22  C   UNL     1      45.537  22.633  20.853  0.00  0.00    +0.166 C 
ATOM     25  C   UNL     1      46.927  22.332  21.393  0.00  0.00    -0.018 C 
ATOM     26  C   UNL     1      47.618  21.269  20.545  0.00  0.00    +0.017 C 
ATOM     27  C   UNL     1      46.813  19.956  20.617  0.00  0.00    -0.036 C 
ATOM     28  C   UNL     1      46.815  19.487  22.064  0.00  0.00    +0.026 C 
ATOM     29  C   UNL     1      47.497  18.943  19.694  0.00  0.00    +0.003 C 
ATOM     30  C   UNL     1      48.905  18.602  20.170  0.00  0.00    +0.011 C 
ATOM     31  C   UNL     1      49.613  17.736  19.122  0.00  0.00    +0.001 C 
ATOM     32  C   UNL     1      48.800  16.477  18.830  0.00  0.00    +0.011 C 
ATOM     33  C   UNL     1      49.467  15.617  17.778  0.00  0.00    +0.024 C 
ENDROOT
BRANCH   3   2
ATOM      1  C   UNL     1      51.787  16.716  16.291  0.00  0.00    +0.057 C 
ATOM      2  C   UNL     1      51.930  16.034  17.627  0.00  0.00    +0.359 C 
ATOM     34  O   UNL     1      52.897  16.253  18.316  0.00  0.00    -0.450 OA
ENDBRANCH   3   2
BRANCH  22  23
ATOM     23  O   UNL     1      44.880  23.558  21.728  0.00  0.00    -0.566 OA
ATOM     24  H   UNL     1      44.311  23.140  22.389  0.00  0.00    +0.374 HD
ENDBRANCH  22  23
BRANCH   6   7
ATOM      7  C   UNL     1      48.463  13.571  18.921  0.00  0.00    +0.178 C 
BRANCH   7   8
ATOM      8  O   UNL     1      47.793  12.332  18.682  0.00  0.00    -0.569 OA
ATOM      9  H   UNL     1      47.228  12.335  17.898  0.00  0.00    +0.377 HD
ENDBRANCH   7   8
ENDBRANCH   6   7
TORSDOF 4
ENDMDL
MODEL 6
REMARK VINA RESULT:      -5.5      3.573      5.521
REMARK  Name = ZINC56871274
REMARK  10 active torsions:
REMARK  status: ('A' for Active; 'I' for Inactive)
REMARK    1  A    between atoms: C1_1  and  C2_2
REMARK    2  A    between atoms: C2_2  and  C3_4
REMARK    3  A    between atoms: C6_8  and  C29_37
REMARK    4  A    between atoms: C12_17  and  C28_36
REMARK    5  A    between atoms: C15_20  and  O2_35
REMARK    6  A    between atoms: C16_22  and  C26_33
REMARK    7  A    between atoms: C16_22  and  C27_34
REMARK    8  A    between atoms: C20_27  and  C25_32
REMARK    9  A    between atoms: C21_28  and  C24_31
REMARK   10  A    between atoms: C29_37  and  O3_38
REMARK                            x       y       z     vdW  Elec       q    Type
REMARK                         _______ _______ _______ _____ _____    ______ ____
ROOT
ATOM      3  C   UNL     1      44.579  21.982  19.664  0.00  0.00    -0.042 C 
ATOM      4  C   UNL     1      43.051  21.987  19.949  0.00  0.00    +0.029 C 
ATOM      5  C   UNL     1      42.657  20.528  20.285  0.00  0.00    +0.035 C 
ATOM      6  C   UNL     1      43.799  19.708  19.670  0.00  0.00    -0.053 C 
ATOM     10  C   UNL     1      43.993  18.318  20.230  0.00  0.00    +0.030 C 
ATOM     11  C   UNL     1      45.250  17.698  19.603  0.00  0.00    +0.016 C 
ATOM     12  C   UNL     1      46.484  18.576  19.792  0.00  0.00    -0.032 C 
ATOM     13  C   UNL     1      46.809  18.575  21.291  0.00  0.00    +0.017 C 
ATOM     14  C   UNL     1      47.678  17.991  19.018  0.00  0.00    -0.026 C 
ATOM     15  C   UNL     1      47.307  18.004  17.526  0.00  0.00    +0.017 C 
ATOM     16  C   UNL     1      47.898  16.535  19.431  0.00  0.00    +0.014 C 
ATOM     17  C   UNL     1      49.163  15.984  18.754  0.00  0.00    +0.016 C 
ATOM     18  C   UNL     1      50.349  16.816  19.236  0.00  0.00    -0.001 C 
ATOM     19  C   UNL     1      51.684  16.152  18.982  0.00  0.00    -0.038 C 
ATOM     20  C   UNL     1      51.851  15.686  17.536  0.00  0.00    +0.034 C 
ATOM     21  C   UNL     1      51.769  14.889  19.875  0.00  0.00    +0.017 C 
ATOM     22  C   UNL     1      52.859  17.041  19.385  0.00  0.00    +0.166 C 
ATOM     25  C   UNL     1      52.708  18.471  18.893  0.00  0.00    -0.018 C 
ATOM     26  C   UNL     1      51.381  19.065  19.356  0.00  0.00    +0.017 C 
ATOM     27  C   UNL     1      50.219  18.253  18.748  0.00  0.00    -0.036 C 
ATOM     28  C   UNL     1      50.300  18.388  17.234  0.00  0.00    +0.026 C 
ATOM     29  C   UNL     1      48.913  18.833  19.297  0.00  0.00    +0.003 C 
ATOM     30  C   UNL     1      48.699  20.275  18.851  0.00  0.00    +0.011 C 
ATOM     31  C   UNL     1      47.484  20.869  19.571  0.00  0.00    +0.001 C 
ATOM     32  C   UNL     1      46.243  20.016  19.320  0.00  0.00    +0.011 C 
ATOM     33  C   UNL     1      45.033  20.568  20.043  0.00  0.00    +0.024 C 
ENDROOT
BRANCH   3   2
ATOM      1  C   UNL     1      45.705  22.635  21.930  0.00  0.00    +0.057 C 
ATOM      2  C   UNL     1      45.253  23.011  20.542  0.00  0.00    +0.359 C 
ATOM     34  O   UNL     1      45.431  24.132  20.132  0.00  0.00    -0.450 OA
ENDBRANCH   3   2
BRANCH  22  23
ATOM     23  O   UNL     1      54.066  16.482  18.851  0.00  0.00    -0.566 OA
ATOM     24  H   UNL     1      54.644  16.083  19.517  0.00  0.00    +0.374 HD
ENDBRANCH  22  23
BRANCH   6   7
ATOM      7  C   UNL     1      43.581  19.651  18.159  0.00  0.00    +0.178 C 
BRANCH   7   8
ATOM      8  O   UNL     1      42.253  20.079  17.852  0.00  0.00    -0.569 OA
ATOM      9  H   UNL     1      41.873  20.683  18.505  0.00  0.00    +0.377 HD
ENDBRANCH   7   8
ENDBRANCH   6   7
TORSDOF 4
ENDMDL
MODEL 7
REMARK VINA RESULT:      -5.3      2.141      7.965
REMARK  Name = ZINC56871274
REMARK  10 active torsions:
REMARK  status: ('A' for Active; 'I' for Inactive)
REMARK    1  A    between atoms: C1_1  and  C2_2
REMARK    2  A    between atoms: C2_2  and  C3_4
REMARK    3  A    between atoms: C6_8  and  C29_37
REMARK    4  A    between atoms: C12_17  and  C28_36
REMARK    5  A    between atoms: C15_20  and  O2_35
REMARK    6  A    between atoms: C16_22  and  C26_33
REMARK    7  A    between atoms: C16_22  and  C27_34
REMARK    8  A    between atoms: C20_27  and  C25_32
REMARK    9  A    between atoms: C21_28  and  C24_31
REMARK   10  A    between atoms: C29_37  and  O3_38
REMARK                            x       y       z     vdW  Elec       q    Type
REMARK                         _______ _______ _______ _____ _____    ______ ____
ROOT
ATOM      3  C   UNL     1      49.183  13.290  18.728  0.00  0.00    -0.042 C 
ATOM      4  C   UNL     1      49.206  12.184  17.636  0.00  0.00    +0.029 C 
ATOM      5  C   UNL     1      48.420  12.742  16.424  0.00  0.00    +0.035 C 
ATOM      6  C   UNL     1      47.561  13.851  17.046  0.00  0.00    -0.053 C 
ATOM     10  C   UNL     1      47.058  14.911  16.093  0.00  0.00    +0.030 C 
ATOM     11  C   UNL     1      46.339  16.004  16.898  0.00  0.00    +0.016 C 
ATOM     12  C   UNL     1      47.220  16.585  17.999  0.00  0.00    -0.032 C 
ATOM     13  C   UNL     1      48.352  17.355  17.308  0.00  0.00    +0.017 C 
ATOM     14  C   UNL     1      46.409  17.561  18.871  0.00  0.00    -0.026 C 
ATOM     15  C   UNL     1      45.284  16.752  19.537  0.00  0.00    +0.017 C 
ATOM     16  C   UNL     1      45.758  18.625  17.987  0.00  0.00    +0.014 C 
ATOM     17  C   UNL     1      45.050  19.671  18.863  0.00  0.00    +0.016 C 
ATOM     18  C   UNL     1      46.108  20.339  19.737  0.00  0.00    -0.001 C 
ATOM     19  C   UNL     1      45.641  21.643  20.344  0.00  0.00    -0.038 C 
ATOM     20  C   UNL     1      44.293  21.520  21.055  0.00  0.00    +0.034 C 
ATOM     21  C   UNL     1      45.452  22.667  19.197  0.00  0.00    +0.017 C 
ATOM     22  C   UNL     1      46.679  22.247  21.289  0.00  0.00    +0.166 C 
ATOM     25  C   UNL     1      47.263  21.223  22.249  0.00  0.00    -0.018 C 
ATOM     26  C   UNL     1      47.836  20.033  21.485  0.00  0.00    +0.017 C 
ATOM     27  C   UNL     1      46.703  19.329  20.711  0.00  0.00    -0.036 C 
ATOM     28  C   UNL     1      45.700  18.806  21.728  0.00  0.00    +0.026 C 
ATOM     29  C   UNL     1      47.332  18.192  19.901  0.00  0.00    +0.003 C 
ATOM     30  C   UNL     1      47.951  17.129  20.801  0.00  0.00    +0.011 C 
ATOM     31  C   UNL     1      48.726  16.114  19.953  0.00  0.00    +0.001 C 
ATOM     32  C   UNL     1      47.815  15.493  18.897  0.00  0.00    +0.011 C 
ATOM     33  C   UNL     1      48.564  14.505  18.028  0.00  0.00    +0.024 C 
ENDROOT
BRANCH   3   2
ATOM      1  C   UNL     1      51.523  14.350  18.245  0.00  0.00    +0.057 C 
ATOM      2  C   UNL     1      50.599  13.591  19.163  0.00  0.00    +0.359 C 
ATOM     34  O   UNL     1      50.991  13.223  20.244  0.00  0.00    -0.450 OA
ENDBRANCH   3   2
BRANCH  22  23
ATOM     23  O   UNL     1      46.062  23.301  22.041  0.00  0.00    -0.566 OA
ATOM     24  H   UNL     1      45.386  22.998  22.662  0.00  0.00    +0.374 HD
ENDBRANCH  22  23
BRANCH   6   7
ATOM      7  C   UNL     1      46.394  13.192  17.778  0.00  0.00    +0.178 C 
BRANCH   7   8
ATOM      8  O   UNL     1      45.536  12.552  16.832  0.00  0.00    -0.569 OA
ATOM      9  H   UNL     1      45.479  11.593  16.938  0.00  0.00    +0.377 HD
ENDBRANCH   7   8
ENDBRANCH   6   7
TORSDOF 4
ENDMDL
MODEL 8
REMARK VINA RESULT:      -5.3      2.411      7.620
REMARK  Name = ZINC56871274
REMARK  10 active torsions:
REMARK  status: ('A' for Active; 'I' for Inactive)
REMARK    1  A    between atoms: C1_1  and  C2_2
REMARK    2  A    between atoms: C2_2  and  C3_4
REMARK    3  A    between atoms: C6_8  and  C29_37
REMARK    4  A    between atoms: C12_17  and  C28_36
REMARK    5  A    between atoms: C15_20  and  O2_35
REMARK    6  A    between atoms: C16_22  and  C26_33
REMARK    7  A    between atoms: C16_22  and  C27_34
REMARK    8  A    between atoms: C20_27  and  C25_32
REMARK    9  A    between atoms: C21_28  and  C24_31
REMARK   10  A    between atoms: C29_37  and  O3_38
REMARK                            x       y       z     vdW  Elec       q    Type
REMARK                         _______ _______ _______ _____ _____    ______ ____
ROOT
ATOM      3  C   UNL     1      50.280  13.750  18.126  0.00  0.00    -0.042 C 
ATOM      4  C   UNL     1      50.840  12.322  18.373  0.00  0.00    +0.029 C 
ATOM      5  C   UNL     1      49.820  11.598  19.287  0.00  0.00    +0.035 C 
ATOM      6  C   UNL     1      49.049  12.756  19.935  0.00  0.00    -0.053 C 
ATOM     10  C   UNL     1      47.683  12.416  20.485  0.00  0.00    +0.030 C 
ATOM     11  C   UNL     1      47.005  13.707  20.968  0.00  0.00    +0.016 C 
ATOM     12  C   UNL     1      46.943  14.772  19.878  0.00  0.00    -0.032 C 
ATOM     13  C   UNL     1      45.977  14.256  18.803  0.00  0.00    +0.017 C 
ATOM     14  C   UNL     1      46.399  16.092  20.452  0.00  0.00    -0.026 C 
ATOM     15  C   UNL     1      47.390  16.567  21.526  0.00  0.00    +0.017 C 
ATOM     16  C   UNL     1      45.054  15.842  21.136  0.00  0.00    +0.014 C 
ATOM     17  C   UNL     1      44.449  17.175  21.602  0.00  0.00    +0.016 C 
ATOM     18  C   UNL     1      44.217  18.039  20.364  0.00  0.00    -0.001 C 
ATOM     19  C   UNL     1      43.270  19.192  20.613  0.00  0.00    -0.038 C 
ATOM     20  C   UNL     1      43.651  20.022  21.838  0.00  0.00    +0.034 C 
ATOM     21  C   UNL     1      41.862  18.606  20.887  0.00  0.00    +0.017 C 
ATOM     22  C   UNL     1      43.126  20.097  19.390  0.00  0.00    +0.166 C 
ATOM     25  C   UNL     1      44.464  20.442  18.755  0.00  0.00    -0.018 C 
ATOM     26  C   UNL     1      45.244  19.176  18.418  0.00  0.00    +0.017 C 
ATOM     27  C   UNL     1      45.548  18.401  19.717  0.00  0.00    -0.036 C 
ATOM     28  C   UNL     1      46.426  19.284  20.591  0.00  0.00    +0.026 C 
ATOM     29  C   UNL     1      46.262  17.104  19.326  0.00  0.00    +0.003 C 
ATOM     30  C   UNL     1      47.612  17.375  18.671  0.00  0.00    +0.011 C 
ATOM     31  C   UNL     1      48.201  16.067  18.132  0.00  0.00    +0.001 C 
ATOM     32  C   UNL     1      48.318  15.032  19.249  0.00  0.00    +0.011 C 
ATOM     33  C   UNL     1      48.874  13.721  18.736  0.00  0.00    +0.024 C 
ENDROOT
BRANCH   3   2
ATOM      1  C   UNL     1      49.171  13.304  15.802  0.00  0.00    +0.057 C 
ATOM      2  C   UNL     1      50.209  14.008  16.638  0.00  0.00    +0.359 C 
ATOM     34  O   UNL     1      50.983  14.775  16.120  0.00  0.00    -0.450 OA
ENDBRANCH   3   2
BRANCH  22  23
ATOM     23  O   UNL     1      42.464  21.305  19.784  0.00  0.00    -0.566 OA
ATOM     24  H   UNL     1      41.680  21.516  19.257  0.00  0.00    +0.374 HD
ENDBRANCH  22  23
BRANCH   6   7
ATOM      7  C   UNL     1      49.932  13.359  21.027  0.00  0.00    +0.178 C 
BRANCH   7   8
ATOM      8  O   UNL     1      50.351  12.329  21.924  0.00  0.00    -0.569 OA
ATOM      9  H   UNL     1      50.044  11.445  21.680  0.00  0.00    +0.377 HD
ENDBRANCH   7   8
ENDBRANCH   6   7
TORSDOF 4
ENDMDL
MODEL 9
REMARK VINA RESULT:      -5.3      1.651      3.813
REMARK  Name = ZINC56871274
REMARK  10 active torsions:
REMARK  status: ('A' for Active; 'I' for Inactive)
REMARK    1  A    between atoms: C1_1  and  C2_2
REMARK    2  A    between atoms: C2_2  and  C3_4
REMARK    3  A    between atoms: C6_8  and  C29_37
REMARK    4  A    between atoms: C12_17  and  C28_36
REMARK    5  A    between atoms: C15_20  and  O2_35
REMARK    6  A    between atoms: C16_22  and  C26_33
REMARK    7  A    between atoms: C16_22  and  C27_34
REMARK    8  A    between atoms: C20_27  and  C25_32
REMARK    9  A    between atoms: C21_28  and  C24_31
REMARK   10  A    between atoms: C29_37  and  O3_38
REMARK                            x       y       z     vdW  Elec       q    Type
REMARK                         _______ _______ _______ _____ _____    ______ ____
ROOT
ATOM      3  C   UNL     1      48.370  20.466  19.798  0.00  0.00    -0.042 C 
ATOM      4  C   UNL     1      48.027  21.382  21.005  0.00  0.00    +0.029 C 
ATOM      5  C   UNL     1      47.505  20.455  22.131  0.00  0.00    +0.035 C 
ATOM      6  C   UNL     1      47.074  19.194  21.372  0.00  0.00    -0.053 C 
ATOM     10  C   UNL     1      46.986  17.926  22.190  0.00  0.00    +0.030 C 
ATOM     11  C   UNL     1      46.677  16.748  21.254  0.00  0.00    +0.016 C 
ATOM     12  C   UNL     1      47.685  16.635  20.114  0.00  0.00    -0.032 C 
ATOM     13  C   UNL     1      49.026  16.234  20.741  0.00  0.00    +0.017 C 
ATOM     14  C   UNL     1      47.248  15.542  19.122  0.00  0.00    -0.026 C 
ATOM     15  C   UNL     1      45.900  15.980  18.525  0.00  0.00    +0.017 C 
ATOM     16  C   UNL     1      47.022  14.227  19.869  0.00  0.00    +0.014 C 
ATOM     17  C   UNL     1      46.705  13.105  18.867  0.00  0.00    +0.016 C 
ATOM     18  C   UNL     1      47.914  12.947  17.947  0.00  0.00    -0.001 C 
ATOM     19  C   UNL     1      47.917  11.638  17.190  0.00  0.00    -0.038 C 
ATOM     20  C   UNL     1      46.598  11.365  16.468  0.00  0.00    +0.034 C 
ATOM     21  C   UNL     1      48.116  10.492  18.213  0.00  0.00    +0.017 C 
ATOM     22  C   UNL     1      49.083  11.541  16.207  0.00  0.00    +0.166 C 
ATOM     25  C   UNL     1      49.259  12.805  15.380  0.00  0.00    -0.018 C 
ATOM     26  C   UNL     1      49.397  14.026  16.283  0.00  0.00    +0.017 C 
ATOM     27  C   UNL     1      48.104  14.202  17.105  0.00  0.00    -0.036 C 
ATOM     28  C   UNL     1      46.963  14.455  16.131  0.00  0.00    +0.026 C 
ATOM     29  C   UNL     1      48.314  15.389  18.049  0.00  0.00    +0.003 C 
ATOM     30  C   UNL     1      48.509  16.694  17.286  0.00  0.00    +0.011 C 
ATOM     31  C   UNL     1      48.899  17.813  18.258  0.00  0.00    +0.001 C 
ATOM     32  C   UNL     1      47.848  17.959  19.356  0.00  0.00    +0.011 C 
ATOM     33  C   UNL     1      48.224  19.042  20.345  0.00  0.00    +0.024 C 
ENDROOT
BRANCH   3   2
ATOM      1  C   UNL     1      50.932  20.452  20.314  0.00  0.00    +0.057 C 
ATOM      2  C   UNL     1      49.794  20.725  19.363  0.00  0.00    +0.359 C 
ATOM     34  O   UNL     1      50.021  21.152  18.257  0.00  0.00    -0.450 OA
ENDBRANCH   3   2
BRANCH  22  23
ATOM     23  O   UNL     1      48.857  10.430  15.330  0.00  0.00    -0.566 OA
ATOM     24  H   UNL     1      48.234  10.613  14.614  0.00  0.00    +0.374 HD
ENDBRANCH  22  23
BRANCH   6   7
ATOM      7  C   UNL     1      45.737  19.485  20.691  0.00  0.00    +0.178 C 
BRANCH   7   8
ATOM      8  O   UNL     1      44.743  19.745  21.683  0.00  0.00    -0.569 OA
ATOM      9  H   UNL     1      43.880  19.356  21.487  0.00  0.00    +0.377 HD
ENDBRANCH   7   8
ENDBRANCH   6   7
TORSDOF 4
ENDMDL
