MODEL 1
REMARK VINA RESULT:      -6.3      0.000      0.000
REMARK  Name = ZINC95485906
REMARK  8 active torsions:
REMARK  status: ('A' for Active; 'I' for Inactive)
REMARK    1  A    between atoms: C1_1  and  C2_2
REMARK    2  A    between atoms: C7_7  and  C13_15
REMARK    3  A    between atoms: C8_8  and  O2_14
REMARK    4  A    between atoms: C11_11  and  O1_12
REMARK    5  A    between atoms: O1_12  and  C12_13
REMARK    6  A    between atoms: C18_20  and  O3_21
REMARK    7  A    between atoms: C19_22  and  C23_29
REMARK    8  A    between atoms: C20_25  and  C22_28
REMARK                            x       y       z     vdW  Elec       q    Type
REMARK                         _______ _______ _______ _____ _____    ______ ____
ROOT
ATOM      1  C   UNL     1      42.867  19.364  21.052  0.00  0.00    +0.102 C 
ATOM      2  C   UNL     1      43.887  18.601  20.245  0.00  0.00    -0.092 A 
ATOM      3  C   UNL     1      44.187  17.318  20.585  0.00  0.00    +0.059 A 
ATOM      4  C   UNL     1      45.136  16.602  19.836  0.00  0.00    -0.061 A 
ATOM      5  C   UNL     1      45.463  15.274  20.163  0.00  0.00    +0.027 A 
ATOM      6  C   UNL     1      46.384  14.597  19.426  0.00  0.00    +0.025 A 
ATOM      7  C   UNL     1      47.021  15.205  18.333  0.00  0.00    -0.065 A 
ATOM     23  C   UNL     1      46.722  16.514  17.982  0.00  0.00    +0.138 A 
ATOM     26  C   UNL     1      45.770  17.230  18.734  0.00  0.00    -0.040 A 
ATOM     27  C   UNL     1      45.438  18.556  18.411  0.00  0.00    -0.062 A 
ATOM     28  C   UNL     1      44.507  19.221  19.157  0.00  0.00    +0.134 A 
ENDROOT
BRANCH   7   8
ATOM      8  C   UNL     1      48.021  14.443  17.548  0.00  0.00    -0.075 A 
ATOM      9  C   UNL     1      49.378  14.551  17.847  0.00  0.00    +0.037 A 
ATOM     10  C   UNL     1      50.298  13.836  17.111  0.00  0.00    -0.004 A 
ATOM     11  C   UNL     1      49.888  13.011  16.073  0.00  0.00    -0.060 A 
ATOM     12  C   UNL     1      48.549  12.900  15.766  0.00  0.00    -0.138 A 
ATOM     13  C   UNL     1      48.060  12.025  14.641  0.00  0.00    +0.225 C 
ATOM     14  C   UNL     1      47.714  12.902  13.436  0.00  0.00    +0.042 C 
ATOM     15  N   UNL     1      49.093  11.059  14.256  0.00  0.00    -0.669 NA
ATOM     16  H   UNL     1      49.213  10.354  14.967  0.00  0.00    +0.343 HD
ATOM     17  C   UNL     1      50.362  11.752  13.981  0.00  0.00    +0.163 C 
ATOM     18  C   UNL     1      51.344  10.783  13.318  0.00  0.00    +0.039 C 
ATOM     19  C   UNL     1      50.940  12.249  15.306  0.00  0.00    +0.047 C 
ATOM     20  C   UNL     1      47.609  13.608  16.507  0.00  0.00    +0.145 A 
BRANCH  20  21
ATOM     21  O   UNL     1      46.288  13.493  16.213  0.00  0.00    -0.480 OA
ATOM     22  H   UNL     1      45.716  14.066  16.739  0.00  0.00    +0.384 HD
ENDBRANCH  20  21
ENDBRANCH   7   8
BRANCH  23  24
ATOM     24  O   UNL     1      47.341  17.098  16.925  0.00  0.00    -0.477 OA
ATOM     25  H   UNL     1      47.088  18.021  16.781  0.00  0.00    +0.384 HD
ENDBRANCH  23  24
BRANCH  28  29
ATOM     29  O   UNL     1      44.184  20.502  18.840  0.00  0.00    -0.313 OA
ATOM     30  C   UNL     1      45.156  21.507  19.131  0.00  0.00    +0.242 C 
ENDBRANCH  28  29
TORSDOF 4
ENDMDL
MODEL 2
REMARK VINA RESULT:      -6.0      2.427      4.457
REMARK  Name = ZINC95485906
REMARK  8 active torsions:
REMARK  status: ('A' for Active; 'I' for Inactive)
REMARK    1  A    between atoms: C1_1  and  C2_2
REMARK    2  A    between atoms: C7_7  and  C13_15
REMARK    3  A    between atoms: C8_8  and  O2_14
REMARK    4  A    between atoms: C11_11  and  O1_12
REMARK    5  A    between atoms: O1_12  and  C12_13
REMARK    6  A    between atoms: C18_20  and  O3_21
REMARK    7  A    between atoms: C19_22  and  C23_29
REMARK    8  A    between atoms: C20_25  and  C22_28
REMARK                            x       y       z     vdW  Elec       q    Type
REMARK                         _______ _______ _______ _____ _____    ______ ____
ROOT
ATOM      1  C   UNL     1      45.930  24.629  21.107  0.00  0.00    +0.102 C 
ATOM      2  C   UNL     1      45.777  23.196  20.666  0.00  0.00    -0.092 A 
ATOM      3  C   UNL     1      46.629  22.251  21.149  0.00  0.00    +0.059 A 
ATOM      4  C   UNL     1      46.490  20.913  20.743  0.00  0.00    -0.061 A 
ATOM      5  C   UNL     1      47.356  19.916  21.228  0.00  0.00    +0.027 A 
ATOM      6  C   UNL     1      47.206  18.627  20.822  0.00  0.00    +0.025 A 
ATOM      7  C   UNL     1      46.192  18.267  19.920  0.00  0.00    -0.065 A 
ATOM     23  C   UNL     1      45.321  19.225  19.421  0.00  0.00    +0.138 A 
ATOM     26  C   UNL     1      45.461  20.567  19.831  0.00  0.00    -0.040 A 
ATOM     27  C   UNL     1      44.599  21.565  19.351  0.00  0.00    -0.062 A 
ATOM     28  C   UNL     1      44.759  22.855  19.771  0.00  0.00    +0.134 A 
ENDROOT
BRANCH   7   8
ATOM      8  C   UNL     1      46.053  16.854  19.496  0.00  0.00    -0.075 A 
ATOM      9  C   UNL     1      45.367  15.945  20.300  0.00  0.00    +0.037 A 
ATOM     10  C   UNL     1      45.242  14.634  19.894  0.00  0.00    -0.004 A 
ATOM     11  C   UNL     1      45.794  14.208  18.694  0.00  0.00    -0.060 A 
ATOM     12  C   UNL     1      46.478  15.098  17.893  0.00  0.00    -0.138 A 
ATOM     13  C   UNL     1      47.103  14.677  16.589  0.00  0.00    +0.225 C 
ATOM     14  C   UNL     1      48.612  14.517  16.781  0.00  0.00    +0.042 C 
ATOM     15  N   UNL     1      46.536  13.403  16.136  0.00  0.00    -0.669 NA
ATOM     16  H   UNL     1      45.583  13.520  15.826  0.00  0.00    +0.343 HD
ATOM     17  C   UNL     1      46.624  12.397  17.205  0.00  0.00    +0.163 C 
ATOM     18  C   UNL     1      46.292  11.014  16.639  0.00  0.00    +0.039 C 
ATOM     19  C   UNL     1      45.621  12.762  18.300  0.00  0.00    +0.047 C 
ATOM     20  C   UNL     1      46.603  16.426  18.286  0.00  0.00    +0.145 A 
BRANCH  20  21
ATOM     21  O   UNL     1      47.268  17.307  17.494  0.00  0.00    -0.480 OA
ATOM     22  H   UNL     1      46.982  18.224  17.599  0.00  0.00    +0.384 HD
ENDBRANCH  20  21
ENDBRANCH   7   8
BRANCH  23  24
ATOM     24  O   UNL     1      44.343  18.874  18.549  0.00  0.00    -0.477 OA
ATOM     25  H   UNL     1      43.450  19.086  18.852  0.00  0.00    +0.384 HD
ENDBRANCH  23  24
BRANCH  28  29
ATOM     29  O   UNL     1      43.921  23.820  19.309  0.00  0.00    -0.313 OA
ATOM     30  C   UNL     1      42.573  23.432  19.034  0.00  0.00    +0.242 C 
ENDBRANCH  28  29
TORSDOF 4
ENDMDL
MODEL 3
REMARK VINA RESULT:      -5.9      1.469      2.223
REMARK  Name = ZINC95485906
REMARK  8 active torsions:
REMARK  status: ('A' for Active; 'I' for Inactive)
REMARK    1  A    between atoms: C1_1  and  C2_2
REMARK    2  A    between atoms: C7_7  and  C13_15
REMARK    3  A    between atoms: C8_8  and  O2_14
REMARK    4  A    between atoms: C11_11  and  O1_12
REMARK    5  A    between atoms: O1_12  and  C12_13
REMARK    6  A    between atoms: C18_20  and  O3_21
REMARK    7  A    between atoms: C19_22  and  C23_29
REMARK    8  A    between atoms: C20_25  and  C22_28
REMARK                            x       y       z     vdW  Elec       q    Type
REMARK                         _______ _______ _______ _____ _____    ______ ____
ROOT
ATOM      1  C   UNL     1      42.855  19.079  22.505  0.00  0.00    +0.102 C 
ATOM      2  C   UNL     1      43.636  18.311  21.469  0.00  0.00    -0.092 A 
ATOM      3  C   UNL     1      43.999  17.024  21.722  0.00  0.00    +0.059 A 
ATOM      4  C   UNL     1      44.727  16.302  20.760  0.00  0.00    -0.061 A 
ATOM      5  C   UNL     1      45.114  14.971  20.994  0.00  0.00    +0.027 A 
ATOM      6  C   UNL     1      45.817  14.289  20.052  0.00  0.00    +0.025 A 
ATOM      7  C   UNL     1      46.168  14.896  18.835  0.00  0.00    -0.065 A 
ATOM     23  C   UNL     1      45.803  16.208  18.571  0.00  0.00    +0.138 A 
ATOM     26  C   UNL     1      45.073  16.929  19.537  0.00  0.00    -0.040 A 
ATOM     27  C   UNL     1      44.683  18.258  19.307  0.00  0.00    -0.062 A 
ATOM     28  C   UNL     1      43.972  18.929  20.262  0.00  0.00    +0.134 A 
ENDROOT
BRANCH   7   8
ATOM      8  C   UNL     1      46.935  14.128  17.825  0.00  0.00    -0.075 A 
ATOM      9  C   UNL     1      46.316  13.116  17.094  0.00  0.00    +0.037 A 
ATOM     10  C   UNL     1      47.039  12.411  16.157  0.00  0.00    -0.004 A 
ATOM     11  C   UNL     1      48.379  12.695  15.934  0.00  0.00    -0.060 A 
ATOM     12  C   UNL     1      49.003  13.692  16.655  0.00  0.00    -0.138 A 
ATOM     13  C   UNL     1      50.458  14.027  16.455  0.00  0.00    +0.225 C 
ATOM     14  C   UNL     1      51.275  13.426  17.599  0.00  0.00    +0.042 C 
ATOM     15  N   UNL     1      50.939  13.485  15.180  0.00  0.00    -0.669 NA
ATOM     16  H   UNL     1      50.548  13.992  14.400  0.00  0.00    +0.343 HD
ATOM     17  C   UNL     1      50.626  12.050  15.086  0.00  0.00    +0.163 C 
ATOM     18  C   UNL     1      51.368  11.439  13.895  0.00  0.00    +0.039 C 
ATOM     19  C   UNL     1      49.117  11.894  14.892  0.00  0.00    +0.047 C 
ATOM     20  C   UNL     1      48.282  14.418  17.597  0.00  0.00    +0.145 A 
BRANCH  20  21
ATOM     21  O   UNL     1      48.892  15.407  18.301  0.00  0.00    -0.480 OA
ATOM     22  H   UNL     1      48.550  15.519  19.198  0.00  0.00    +0.384 HD
ENDBRANCH  20  21
ENDBRANCH   7   8
BRANCH  23  24
ATOM     24  O   UNL     1      46.144  16.791  17.394  0.00  0.00    -0.477 OA
ATOM     25  H   UNL     1      45.677  17.617  17.213  0.00  0.00    +0.384 HD
ENDBRANCH  23  24
BRANCH  28  29
ATOM     29  O   UNL     1      43.591  20.214  20.037  0.00  0.00    -0.313 OA
ATOM     30  C   UNL     1      42.577  20.427  19.053  0.00  0.00    +0.242 C 
ENDBRANCH  28  29
TORSDOF 4
ENDMDL
MODEL 4
REMARK VINA RESULT:      -5.9      3.119      8.353
REMARK  Name = ZINC95485906
REMARK  8 active torsions:
REMARK  status: ('A' for Active; 'I' for Inactive)
REMARK    1  A    between atoms: C1_1  and  C2_2
REMARK    2  A    between atoms: C7_7  and  C13_15
REMARK    3  A    between atoms: C8_8  and  O2_14
REMARK    4  A    between atoms: C11_11  and  O1_12
REMARK    5  A    between atoms: O1_12  and  C12_13
REMARK    6  A    between atoms: C18_20  and  O3_21
REMARK    7  A    between atoms: C19_22  and  C23_29
REMARK    8  A    between atoms: C20_25  and  C22_28
REMARK                            x       y       z     vdW  Elec       q    Type
REMARK                         _______ _______ _______ _____ _____    ______ ____
ROOT
ATOM      1  C   UNL     1      46.340  10.818  16.392  0.00  0.00    +0.102 C 
ATOM      2  C   UNL     1      46.448  12.250  16.849  0.00  0.00    -0.092 A 
ATOM      3  C   UNL     1      45.860  12.626  18.017  0.00  0.00    +0.059 A 
ATOM      4  C   UNL     1      45.959  13.960  18.450  0.00  0.00    -0.061 A 
ATOM      5  C   UNL     1      45.362  14.376  19.654  0.00  0.00    +0.027 A 
ATOM      6  C   UNL     1      45.468  15.670  20.055  0.00  0.00    +0.025 A 
ATOM      7  C   UNL     1      46.171  16.610  19.284  0.00  0.00    -0.065 A 
ATOM     23  C   UNL     1      46.771  16.234  18.091  0.00  0.00    +0.138 A 
ATOM     26  C   UNL     1      46.672  14.896  17.659  0.00  0.00    -0.040 A 
ATOM     27  C   UNL     1      47.266  14.475  16.459  0.00  0.00    -0.062 A 
ATOM     28  C   UNL     1      47.155  13.170  16.071  0.00  0.00    +0.134 A 
ENDROOT
BRANCH   7   8
ATOM      8  C   UNL     1      46.270  18.014  19.747  0.00  0.00    -0.075 A 
ATOM      9  C   UNL     1      47.153  18.355  20.770  0.00  0.00    +0.037 A 
ATOM     10  C   UNL     1      47.239  19.664  21.191  0.00  0.00    -0.004 A 
ATOM     11  C   UNL     1      46.452  20.649  20.608  0.00  0.00    -0.060 A 
ATOM     12  C   UNL     1      45.572  20.322  19.598  0.00  0.00    -0.138 A 
ATOM     13  C   UNL     1      44.691  21.355  18.945  0.00  0.00    +0.225 C 
ATOM     14  C   UNL     1      43.271  21.227  19.496  0.00  0.00    +0.042 C 
ATOM     15  N   UNL     1      45.195  22.705  19.217  0.00  0.00    -0.669 NA
ATOM     16  H   UNL     1      46.051  22.881  18.712  0.00  0.00    +0.343 HD
ATOM     17  C   UNL     1      45.387  22.895  20.663  0.00  0.00    +0.163 C 
ATOM     18  C   UNL     1      45.642  24.376  20.958  0.00  0.00    +0.039 C 
ATOM     19  C   UNL     1      46.593  22.065  21.106  0.00  0.00    +0.047 C 
ATOM     20  C   UNL     1      45.484  19.006  19.157  0.00  0.00    +0.145 A 
BRANCH  20  21
ATOM     21  O   UNL     1      44.624  18.684  18.156  0.00  0.00    -0.480 OA
ATOM     22  H   UNL     1      45.031  18.666  17.279  0.00  0.00    +0.384 HD
ENDBRANCH  20  21
ENDBRANCH   7   8
BRANCH  23  24
ATOM     24  O   UNL     1      47.449  17.145  17.347  0.00  0.00    -0.477 OA
ATOM     25  H   UNL     1      48.374  16.914  17.188  0.00  0.00    +0.384 HD
ENDBRANCH  23  24
BRANCH  28  29
ATOM     29  O   UNL     1      47.735  12.763  14.912  0.00  0.00    -0.313 OA
ATOM     30  C   UNL     1      49.160  12.847  14.834  0.00  0.00    +0.242 C 
ENDBRANCH  28  29
TORSDOF 4
ENDMDL
MODEL 5
REMARK VINA RESULT:      -5.5      1.565      2.325
REMARK  Name = ZINC95485906
REMARK  8 active torsions:
REMARK  status: ('A' for Active; 'I' for Inactive)
REMARK    1  A    between atoms: C1_1  and  C2_2
REMARK    2  A    between atoms: C7_7  and  C13_15
REMARK    3  A    between atoms: C8_8  and  O2_14
REMARK    4  A    between atoms: C11_11  and  O1_12
REMARK    5  A    between atoms: O1_12  and  C12_13
REMARK    6  A    between atoms: C18_20  and  O3_21
REMARK    7  A    between atoms: C19_22  and  C23_29
REMARK    8  A    between atoms: C20_25  and  C22_28
REMARK                            x       y       z     vdW  Elec       q    Type
REMARK                         _______ _______ _______ _____ _____    ______ ____
ROOT
ATOM      1  C   UNL     1      40.905  19.425  21.705  0.00  0.00    +0.102 C 
ATOM      2  C   UNL     1      42.117  18.941  20.950  0.00  0.00    -0.092 A 
ATOM      3  C   UNL     1      42.879  17.943  21.475  0.00  0.00    +0.059 A 
ATOM      4  C   UNL     1      44.009  17.487  20.775  0.00  0.00    -0.061 A 
ATOM      5  C   UNL     1      44.814  16.457  21.292  0.00  0.00    +0.027 A 
ATOM      6  C   UNL     1      45.904  16.029  20.600  0.00  0.00    +0.025 A 
ATOM      7  C   UNL     1      46.244  16.603  19.365  0.00  0.00    -0.065 A 
ATOM     23  C   UNL     1      45.473  17.622  18.825  0.00  0.00    +0.138 A 
ATOM     26  C   UNL     1      44.339  18.077  19.528  0.00  0.00    -0.040 A 
ATOM     27  C   UNL     1      43.532  19.105  19.015  0.00  0.00    -0.062 A 
ATOM     28  C   UNL     1      42.438  19.520  19.720  0.00  0.00    +0.134 A 
ENDROOT
BRANCH   7   8
ATOM      8  C   UNL     1      47.438  16.117  18.633  0.00  0.00    -0.075 A 
ATOM      9  C   UNL     1      48.600  16.884  18.598  0.00  0.00    +0.037 A 
ATOM     10  C   UNL     1      49.704  16.421  17.916  0.00  0.00    -0.004 A 
ATOM     11  C   UNL     1      49.670  15.197  17.260  0.00  0.00    -0.060 A 
ATOM     12  C   UNL     1      48.523  14.432  17.284  0.00  0.00    -0.138 A 
ATOM     13  C   UNL     1      48.438  13.104  16.578  0.00  0.00    +0.225 C 
ATOM     14  C   UNL     1      47.653  13.277  15.276  0.00  0.00    +0.042 C 
ATOM     15  N   UNL     1      49.779  12.599  16.270  0.00  0.00    -0.669 NA
ATOM     16  H   UNL     1      50.256  12.304  17.109  0.00  0.00    +0.343 HD
ATOM     17  C   UNL     1      50.557  13.622  15.553  0.00  0.00    +0.163 C 
ATOM     18  C   UNL     1      51.839  12.997  14.997  0.00  0.00    +0.039 C 
ATOM     19  C   UNL     1      50.910  14.740  16.534  0.00  0.00    +0.047 C 
ATOM     20  C   UNL     1      47.406  14.884  17.978  0.00  0.00    +0.145 A 
BRANCH  20  21
ATOM     21  O   UNL     1      46.279  14.126  18.012  0.00  0.00    -0.480 OA
ATOM     22  H   UNL     1      46.123  13.616  17.206  0.00  0.00    +0.384 HD
ENDBRANCH  20  21
ENDBRANCH   7   8
BRANCH  23  24
ATOM     24  O   UNL     1      45.805  18.174  17.631  0.00  0.00    -0.477 OA
ATOM     25  H   UNL     1      46.238  17.562  17.020  0.00  0.00    +0.384 HD
ENDBRANCH  23  24
BRANCH  28  29
ATOM     29  O   UNL     1      41.654  20.512  19.220  0.00  0.00    -0.313 OA
ATOM     30  C   UNL     1      40.872  20.201  18.065  0.00  0.00    +0.242 C 
ENDBRANCH  28  29
TORSDOF 4
ENDMDL
MODEL 6
REMARK VINA RESULT:      -5.4      4.305      5.485
REMARK  Name = ZINC95485906
REMARK  8 active torsions:
REMARK  status: ('A' for Active; 'I' for Inactive)
REMARK    1  A    between atoms: C1_1  and  C2_2
REMARK    2  A    between atoms: C7_7  and  C13_15
REMARK    3  A    between atoms: C8_8  and  O2_14
REMARK    4  A    between atoms: C11_11  and  O1_12
REMARK    5  A    between atoms: O1_12  and  C12_13
REMARK    6  A    between atoms: C18_20  and  O3_21
REMARK    7  A    between atoms: C19_22  and  C23_29
REMARK    8  A    between atoms: C20_25  and  C22_28
REMARK                            x       y       z     vdW  Elec       q    Type
REMARK                         _______ _______ _______ _____ _____    ______ ____
ROOT
ATOM      1  C   UNL     1      41.138  21.449  19.004  0.00  0.00    +0.102 C 
ATOM      2  C   UNL     1      42.470  20.783  19.238  0.00  0.00    -0.092 A 
ATOM      3  C   UNL     1      43.617  21.463  18.964  0.00  0.00    +0.059 A 
ATOM      4  C   UNL     1      44.861  20.848  19.181  0.00  0.00    -0.061 A 
ATOM      5  C   UNL     1      46.062  21.527  18.907  0.00  0.00    +0.027 A 
ATOM      6  C   UNL     1      47.256  20.915  19.124  0.00  0.00    +0.025 A 
ATOM      7  C   UNL     1      47.315  19.604  19.622  0.00  0.00    -0.065 A 
ATOM     23  C   UNL     1      46.150  18.904  19.902  0.00  0.00    +0.138 A 
ATOM     26  C   UNL     1      44.903  19.523  19.684  0.00  0.00    -0.040 A 
ATOM     27  C   UNL     1      43.702  18.849  19.957  0.00  0.00    -0.062 A 
ATOM     28  C   UNL     1      42.509  19.479  19.739  0.00  0.00    +0.134 A 
ENDROOT
BRANCH   7   8
ATOM      8  C   UNL     1      48.632  18.962  19.848  0.00  0.00    -0.075 A 
ATOM      9  C   UNL     1      49.257  19.062  21.090  0.00  0.00    +0.037 A 
ATOM     10  C   UNL     1      50.480  18.459  21.290  0.00  0.00    -0.004 A 
ATOM     11  C   UNL     1      51.098  17.754  20.265  0.00  0.00    -0.060 A 
ATOM     12  C   UNL     1      50.491  17.652  19.032  0.00  0.00    -0.138 A 
ATOM     13  C   UNL     1      51.130  16.908  17.889  0.00  0.00    +0.225 C 
ATOM     14  C   UNL     1      51.738  17.914  16.910  0.00  0.00    +0.042 C 
ATOM     15  N   UNL     1      52.184  16.017  18.383  0.00  0.00    -0.669 NA
ATOM     16  H   UNL     1      51.791  15.234  18.885  0.00  0.00    +0.343 HD
ATOM     17  C   UNL     1      53.129  16.764  19.228  0.00  0.00    +0.163 C 
ATOM     18  C   UNL     1      54.363  15.901  19.506  0.00  0.00    +0.039 C 
ATOM     19  C   UNL     1      52.434  17.111  20.544  0.00  0.00    +0.047 C 
ATOM     20  C   UNL     1      49.252  18.248  18.821  0.00  0.00    +0.145 A 
BRANCH  20  21
ATOM     21  O   UNL     1      48.647  18.140  17.609  0.00  0.00    -0.480 OA
ATOM     22  H   UNL     1      48.585  17.234  17.279  0.00  0.00    +0.384 HD
ENDBRANCH  20  21
ENDBRANCH   7   8
BRANCH  23  24
ATOM     24  O   UNL     1      46.211  17.636  20.383  0.00  0.00    -0.477 OA
ATOM     25  H   UNL     1      45.378  17.150  20.319  0.00  0.00    +0.384 HD
ENDBRANCH  23  24
BRANCH  28  29
ATOM     29  O   UNL     1      41.347  18.828  20.008  0.00  0.00    -0.313 OA
ATOM     30  C   UNL     1      40.964  18.724  21.380  0.00  0.00    +0.242 C 
ENDBRANCH  28  29
TORSDOF 4
ENDMDL
MODEL 7
REMARK VINA RESULT:      -5.3      2.900      3.861
REMARK  Name = ZINC95485906
REMARK  8 active torsions:
REMARK  status: ('A' for Active; 'I' for Inactive)
REMARK    1  A    between atoms: C1_1  and  C2_2
REMARK    2  A    between atoms: C7_7  and  C13_15
REMARK    3  A    between atoms: C8_8  and  O2_14
REMARK    4  A    between atoms: C11_11  and  O1_12
REMARK    5  A    between atoms: O1_12  and  C12_13
REMARK    6  A    between atoms: C18_20  and  O3_21
REMARK    7  A    between atoms: C19_22  and  C23_29
REMARK    8  A    between atoms: C20_25  and  C22_28
REMARK                            x       y       z     vdW  Elec       q    Type
REMARK                         _______ _______ _______ _____ _____    ______ ____
ROOT
ATOM      1  C   UNL     1      43.576  22.983  19.881  0.00  0.00    +0.102 C 
ATOM      2  C   UNL     1      44.427  21.799  19.499  0.00  0.00    -0.092 A 
ATOM      3  C   UNL     1      45.773  21.851  19.694  0.00  0.00    +0.059 A 
ATOM      4  C   UNL     1      46.573  20.751  19.342  0.00  0.00    -0.061 A 
ATOM      5  C   UNL     1      47.966  20.777  19.534  0.00  0.00    +0.027 A 
ATOM      6  C   UNL     1      48.722  19.702  19.186  0.00  0.00    +0.025 A 
ATOM      7  C   UNL     1      48.133  18.554  18.634  0.00  0.00    -0.065 A 
ATOM     23  C   UNL     1      46.762  18.494  18.430  0.00  0.00    +0.138 A 
ATOM     26  C   UNL     1      45.962  19.598  18.785  0.00  0.00    -0.040 A 
ATOM     27  C   UNL     1      44.571  19.577  18.596  0.00  0.00    -0.062 A 
ATOM     28  C   UNL     1      43.824  20.663  18.955  0.00  0.00    +0.134 A 
ENDROOT
BRANCH   7   8
ATOM      8  C   UNL     1      48.983  17.397  18.264  0.00  0.00    -0.075 A 
ATOM      9  C   UNL     1      49.893  17.502  17.213  0.00  0.00    +0.037 A 
ATOM     10  C   UNL     1      50.679  16.420  16.881  0.00  0.00    -0.004 A 
ATOM     11  C   UNL     1      50.573  15.225  17.580  0.00  0.00    -0.060 A 
ATOM     12  C   UNL     1      49.674  15.109  18.618  0.00  0.00    -0.138 A 
ATOM     13  C   UNL     1      49.517  13.829  19.397  0.00  0.00    +0.225 C 
ATOM     14  C   UNL     1      48.253  13.107  18.929  0.00  0.00    +0.042 C 
ATOM     15  N   UNL     1      50.677  12.957  19.188  0.00  0.00    -0.669 NA
ATOM     16  H   UNL     1      51.496  13.326  19.648  0.00  0.00    +0.343 HD
ATOM     17  C   UNL     1      50.921  12.769  17.749  0.00  0.00    +0.163 C 
ATOM     18  C   UNL     1      51.945  11.649  17.543  0.00  0.00    +0.039 C 
ATOM     19  C   UNL     1      51.463  14.077  17.173  0.00  0.00    +0.047 C 
ATOM     20  C   UNL     1      48.882  16.197  18.971  0.00  0.00    +0.145 A 
BRANCH  20  21
ATOM     21  O   UNL     1      48.002  16.088  20.000  0.00  0.00    -0.480 OA
ATOM     22  H   UNL     1      47.862  16.910  20.487  0.00  0.00    +0.384 HD
ENDBRANCH  20  21
ENDBRANCH   7   8
BRANCH  23  24
ATOM     24  O   UNL     1      46.197  17.382  17.895  0.00  0.00    -0.477 OA
ATOM     25  H   UNL     1      46.274  16.595  18.450  0.00  0.00    +0.384 HD
ENDBRANCH  23  24
BRANCH  28  29
ATOM     29  O   UNL     1      42.477  20.639  18.776  0.00  0.00    -0.313 OA
ATOM     30  C   UNL     1      41.743  19.653  19.505  0.00  0.00    +0.242 C 
ENDBRANCH  28  29
TORSDOF 4
ENDMDL
MODEL 8
REMARK VINA RESULT:      -5.2      4.448      5.181
REMARK  Name = ZINC95485906
REMARK  8 active torsions:
REMARK  status: ('A' for Active; 'I' for Inactive)
REMARK    1  A    between atoms: C1_1  and  C2_2
REMARK    2  A    between atoms: C7_7  and  C13_15
REMARK    3  A    between atoms: C8_8  and  O2_14
REMARK    4  A    between atoms: C11_11  and  O1_12
REMARK    5  A    between atoms: O1_12  and  C12_13
REMARK    6  A    between atoms: C18_20  and  O3_21
REMARK    7  A    between atoms: C19_22  and  C23_29
REMARK    8  A    between atoms: C20_25  and  C22_28
REMARK                            x       y       z     vdW  Elec       q    Type
REMARK                         _______ _______ _______ _____ _____    ______ ____
ROOT
ATOM      1  C   UNL     1      41.688  21.779  19.021  0.00  0.00    +0.102 C 
ATOM      2  C   UNL     1      43.075  21.234  19.251  0.00  0.00    -0.092 A 
ATOM      3  C   UNL     1      43.312  19.906  19.067  0.00  0.00    +0.059 A 
ATOM      4  C   UNL     1      44.603  19.393  19.278  0.00  0.00    -0.061 A 
ATOM      5  C   UNL     1      44.877  18.025  19.093  0.00  0.00    +0.027 A 
ATOM      6  C   UNL     1      46.132  17.547  19.303  0.00  0.00    +0.025 A 
ATOM      7  C   UNL     1      47.172  18.401  19.703  0.00  0.00    -0.065 A 
ATOM     23  C   UNL     1      46.937  19.755  19.895  0.00  0.00    +0.138 A 
ATOM     26  C   UNL     1      45.642  20.269  19.681  0.00  0.00    -0.040 A 
ATOM     27  C   UNL     1      45.364  21.633  19.863  0.00  0.00    -0.062 A 
ATOM     28  C   UNL     1      44.099  22.099  19.644  0.00  0.00    +0.134 A 
ENDROOT
BRANCH   7   8
ATOM      8  C   UNL     1      48.531  17.852  19.924  0.00  0.00    -0.075 A 
ATOM      9  C   UNL     1      48.882  17.326  21.165  0.00  0.00    +0.037 A 
ATOM     10  C   UNL     1      50.148  16.816  21.358  0.00  0.00    -0.004 A 
ATOM     11  C   UNL     1      51.079  16.823  20.328  0.00  0.00    -0.060 A 
ATOM     12  C   UNL     1      50.743  17.345  19.097  0.00  0.00    -0.138 A 
ATOM     13  C   UNL     1      51.725  17.384  17.955  0.00  0.00    +0.225 C 
ATOM     14  C   UNL     1      52.274  18.805  17.811  0.00  0.00    +0.042 C 
ATOM     15  N   UNL     1      52.837  16.460  18.202  0.00  0.00    -0.669 NA
ATOM     16  H   UNL     1      52.534  15.501  18.121  0.00  0.00    +0.343 HD
ATOM     17  C   UNL     1      53.429  16.717  19.524  0.00  0.00    +0.163 C 
ATOM     18  C   UNL     1      54.746  15.947  19.655  0.00  0.00    +0.039 C 
ATOM     19  C   UNL     1      52.446  16.247  20.596  0.00  0.00    +0.047 C 
ATOM     20  C   UNL     1      49.467  17.854  18.887  0.00  0.00    +0.145 A 
BRANCH  20  21
ATOM     21  O   UNL     1      49.131  18.360  17.671  0.00  0.00    -0.480 OA
ATOM     22  H   UNL     1      49.861  18.793  17.210  0.00  0.00    +0.384 HD
ENDBRANCH  20  21
ENDBRANCH   7   8
BRANCH  23  24
ATOM     24  O   UNL     1      47.945  20.578  20.282  0.00  0.00    -0.477 OA
ATOM     25  H   UNL     1      48.789  20.401  19.844  0.00  0.00    +0.384 HD
ENDBRANCH  23  24
BRANCH  28  29
ATOM     29  O   UNL     1      43.832  23.421  19.815  0.00  0.00    -0.313 OA
ATOM     30  C   UNL     1      44.482  24.334  18.930  0.00  0.00    +0.242 C 
ENDBRANCH  28  29
TORSDOF 4
ENDMDL
MODEL 9
REMARK VINA RESULT:      -5.2      4.753      5.425
REMARK  Name = ZINC95485906
REMARK  8 active torsions:
REMARK  status: ('A' for Active; 'I' for Inactive)
REMARK    1  A    between atoms: C1_1  and  C2_2
REMARK    2  A    between atoms: C7_7  and  C13_15
REMARK    3  A    between atoms: C8_8  and  O2_14
REMARK    4  A    between atoms: C11_11  and  O1_12
REMARK    5  A    between atoms: O1_12  and  C12_13
REMARK    6  A    between atoms: C18_20  and  O3_21
REMARK    7  A    between atoms: C19_22  and  C23_29
REMARK    8  A    between atoms: C20_25  and  C22_28
REMARK                            x       y       z     vdW  Elec       q    Type
REMARK                         _______ _______ _______ _____ _____    ______ ____
ROOT
ATOM      1  C   UNL     1      41.942  21.421  19.122  0.00  0.00    +0.102 C 
ATOM      2  C   UNL     1      43.392  21.010  19.130  0.00  0.00    -0.092 A 
ATOM      3  C   UNL     1      43.732  19.745  18.764  0.00  0.00    +0.059 A 
ATOM      4  C   UNL     1      45.083  19.356  18.768  0.00  0.00    -0.061 A 
ATOM      5  C   UNL     1      45.463  18.055  18.392  0.00  0.00    +0.027 A 
ATOM      6  C   UNL     1      46.775  17.698  18.403  0.00  0.00    +0.025 A 
ATOM      7  C   UNL     1      47.768  18.614  18.785  0.00  0.00    -0.065 A 
ATOM     23  C   UNL     1      47.429  19.905  19.162  0.00  0.00    +0.138 A 
ATOM     26  C   UNL     1      46.074  20.293  19.156  0.00  0.00    -0.040 A 
ATOM     27  C   UNL     1      45.689  21.590  19.529  0.00  0.00    -0.062 A 
ATOM     28  C   UNL     1      44.368  21.936  19.508  0.00  0.00    +0.134 A 
ENDROOT
BRANCH   7   8
ATOM      8  C   UNL     1      49.191  18.197  18.786  0.00  0.00    -0.075 A 
ATOM      9  C   UNL     1      49.965  18.341  17.637  0.00  0.00    +0.037 A 
ATOM     10  C   UNL     1      51.287  17.952  17.651  0.00  0.00    -0.004 A 
ATOM     11  C   UNL     1      51.855  17.414  18.798  0.00  0.00    -0.060 A 
ATOM     12  C   UNL     1      51.097  17.263  19.940  0.00  0.00    -0.138 A 
ATOM     13  C   UNL     1      51.668  16.674  21.203  0.00  0.00    +0.225 C 
ATOM     14  C   UNL     1      51.196  15.226  21.342  0.00  0.00    +0.042 C 
ATOM     15  N   UNL     1      53.134  16.703  21.165  0.00  0.00    -0.669 NA
ATOM     16  H   UNL     1      53.479  17.647  21.257  0.00  0.00    +0.343 HD
ATOM     17  C   UNL     1      53.625  16.079  19.926  0.00  0.00    +0.163 C 
ATOM     18  C   UNL     1      55.137  15.865  20.023  0.00  0.00    +0.039 C 
ATOM     19  C   UNL     1      53.308  17.011  18.756  0.00  0.00    +0.047 C 
ATOM     20  C   UNL     1      49.765  17.661  19.941  0.00  0.00    +0.145 A 
BRANCH  20  21
ATOM     21  O   UNL     1      49.018  17.522  21.068  0.00  0.00    -0.480 OA
ATOM     22  H   UNL     1      49.210  18.178  21.751  0.00  0.00    +0.384 HD
ENDBRANCH  20  21
ENDBRANCH   7   8
BRANCH  23  24
ATOM     24  O   UNL     1      48.392  20.787  19.531  0.00  0.00    -0.477 OA
ATOM     25  H   UNL     1      49.293  20.480  19.362  0.00  0.00    +0.384 HD
ENDBRANCH  23  24
BRANCH  28  29
ATOM     29  O   UNL     1      43.997  23.194  19.865  0.00  0.00    -0.313 OA
ATOM     30  C   UNL     1      44.576  24.274  19.130  0.00  0.00    +0.242 C 
ENDBRANCH  28  29
TORSDOF 4
ENDMDL
