MODEL 1
REMARK VINA RESULT:      -4.6      0.000      0.000
REMARK  Name = ZINC05962585
REMARK  20 active torsions:
REMARK  status: ('A' for Active; 'I' for Inactive)
REMARK    1  A    between atoms: C1_1  and  C2_2
REMARK    2  A    between atoms: C2_2  and  C3_4
REMARK    3  A    between atoms: C2_2  and  C14_16
REMARK    4  A    between atoms: C3_4  and  C4_5
REMARK    5  A    between atoms: C4_5  and  C5_6
REMARK    6  A    between atoms: C5_6  and  C6_7
REMARK    7  A    between atoms: C6_7  and  C7_9
REMARK    8  A    between atoms: C6_7  and  C8_10
REMARK    9  A    between atoms: C8_10  and  C9_11
REMARK   10  A    between atoms: C9_11  and  C10_12
REMARK   11  A    between atoms: C10_12  and  C11_13
REMARK   12  A    between atoms: C11_13  and  C12_14
REMARK   13  A    between atoms: C11_13  and  C13_15
REMARK   14  A    between atoms: C14_16  and  C15_17
REMARK   15  A    between atoms: C15_17  and  C16_18
REMARK   16  A    between atoms: C16_18  and  C17_19
REMARK   17  A    between atoms: C17_19  and  C18_21
REMARK   18  A    between atoms: C17_19  and  C19_22
REMARK   19  A    between atoms: C19_22  and  C20_23
REMARK   20  A    between atoms: C20_23  and  O1_24
REMARK                            x       y       z     vdW  Elec       q    Type
REMARK                         _______ _______ _______ _____ _____    ______ ____
ROOT
ATOM      1  C   UNL     1      45.104  22.304  19.137  0.00  0.00    +0.012 C 
ATOM      2  C   UNL     1      44.619  22.271  20.588  0.00  0.00    -0.024 C 
ENDROOT
BRANCH   2   3
ATOM      3  C   UNL     1      44.493  20.818  21.052  0.00  0.00    +0.005 C 
BRANCH   3   4
ATOM      4  C   UNL     1      44.467  19.894  19.832  0.00  0.00    +0.005 C 
BRANCH   4   5
ATOM      5  C   UNL     1      43.224  19.004  19.893  0.00  0.00    +0.010 C 
BRANCH   5   6
ATOM      6  C   UNL     1      41.977  19.880  20.026  0.00  0.00    -0.019 C 
ATOM     11  C   UNL     1      40.902  19.120  20.806  0.00  0.00    +0.015 C 
BRANCH   6   7
ATOM      7  C   UNL     1      41.447  20.227  18.634  0.00  0.00    +0.022 C 
BRANCH   7   8
ATOM      8  C   UNL     1      40.581  21.487  18.717  0.00  0.00    +0.164 C 
BRANCH   8   9
ATOM      9  O   UNL     1      39.436  21.335  17.876  0.00  0.00    -0.577 OA
ATOM     10  H   UNL     1      39.579  21.619  16.963  0.00  0.00    +0.380 HD
ENDBRANCH   8   9
ENDBRANCH   7   8
ENDBRANCH   6   7
ENDBRANCH   5   6
ENDBRANCH   4   5
ENDBRANCH   3   4
ENDBRANCH   2   3
BRANCH   2  12
ATOM     12  C   UNL     1      45.624  23.005  21.478  0.00  0.00    +0.005 C 
BRANCH  12  13
ATOM     13  C   UNL     1      46.369  21.990  22.349  0.00  0.00    +0.003 C 
BRANCH  13  14
ATOM     14  C   UNL     1      47.851  21.981  21.965  0.00  0.00    +0.005 C 
BRANCH  14  15
ATOM     15  C   UNL     1      48.204  20.636  21.327  0.00  0.00    -0.024 C 
ATOM     22  C   UNL     1      49.483  20.089  21.963  0.00  0.00    +0.012 C 
BRANCH  15  16
ATOM     16  C   UNL     1      48.421  20.825  19.825  0.00  0.00    +0.005 C 
BRANCH  16  17
ATOM     17  C   UNL     1      49.769  20.222  19.425  0.00  0.00    +0.003 C 
BRANCH  17  18
ATOM     18  C   UNL     1      50.342  20.998  18.237  0.00  0.00    +0.005 C 
BRANCH  18  19
ATOM     19  C   UNL     1      51.865  21.080  18.367  0.00  0.00    -0.031 C 
ATOM     20  C   UNL     1      52.481  19.722  18.026  0.00  0.00    +0.012 C 
ATOM     21  C   UNL     1      52.233  21.461  19.803  0.00  0.00    +0.012 C 
ENDBRANCH  18  19
ENDBRANCH  17  18
ENDBRANCH  16  17
ENDBRANCH  15  16
ENDBRANCH  14  15
ENDBRANCH  13  14
ENDBRANCH  12  13
ENDBRANCH   2  12
TORSDOF 15
ENDMDL
MODEL 2
REMARK VINA RESULT:      -4.6      3.461      8.385
REMARK  Name = ZINC05962585
REMARK  20 active torsions:
REMARK  status: ('A' for Active; 'I' for Inactive)
REMARK    1  A    between atoms: C1_1  and  C2_2
REMARK    2  A    between atoms: C2_2  and  C3_4
REMARK    3  A    between atoms: C2_2  and  C14_16
REMARK    4  A    between atoms: C3_4  and  C4_5
REMARK    5  A    between atoms: C4_5  and  C5_6
REMARK    6  A    between atoms: C5_6  and  C6_7
REMARK    7  A    between atoms: C6_7  and  C7_9
REMARK    8  A    between atoms: C6_7  and  C8_10
REMARK    9  A    between atoms: C8_10  and  C9_11
REMARK   10  A    between atoms: C9_11  and  C10_12
REMARK   11  A    between atoms: C10_12  and  C11_13
REMARK   12  A    between atoms: C11_13  and  C12_14
REMARK   13  A    between atoms: C11_13  and  C13_15
REMARK   14  A    between atoms: C14_16  and  C15_17
REMARK   15  A    between atoms: C15_17  and  C16_18
REMARK   16  A    between atoms: C16_18  and  C17_19
REMARK   17  A    between atoms: C17_19  and  C18_21
REMARK   18  A    between atoms: C17_19  and  C19_22
REMARK   19  A    between atoms: C19_22  and  C20_23
REMARK   20  A    between atoms: C20_23  and  O1_24
REMARK                            x       y       z     vdW  Elec       q    Type
REMARK                         _______ _______ _______ _____ _____    ______ ____
ROOT
ATOM      1  C   UNL     1      45.936  21.518  18.767  0.00  0.00    +0.012 C 
ATOM      2  C   UNL     1      47.026  20.445  18.817  0.00  0.00    -0.024 C 
ENDROOT
BRANCH   2   3
ATOM      3  C   UNL     1      47.673  20.438  20.204  0.00  0.00    +0.005 C 
BRANCH   3   4
ATOM      4  C   UNL     1      49.168  20.735  20.071  0.00  0.00    +0.005 C 
BRANCH   4   5
ATOM      5  C   UNL     1      49.511  20.973  18.599  0.00  0.00    +0.010 C 
BRANCH   5   6
ATOM      6  C   UNL     1      50.881  20.365  18.291  0.00  0.00    -0.019 C 
ATOM     11  C   UNL     1      51.468  21.036  17.048  0.00  0.00    +0.015 C 
BRANCH   6   7
ATOM      7  C   UNL     1      50.727  18.864  18.035  0.00  0.00    +0.022 C 
BRANCH   7   8
ATOM      8  C   UNL     1      51.684  18.091  18.944  0.00  0.00    +0.164 C 
BRANCH   8   9
ATOM      9  O   UNL     1      52.922  17.880  18.262  0.00  0.00    -0.577 OA
ATOM     10  H   UNL     1      52.891  17.177  17.599  0.00  0.00    +0.380 HD
ENDBRANCH   8   9
ENDBRANCH   7   8
ENDBRANCH   6   7
ENDBRANCH   5   6
ENDBRANCH   4   5
ENDBRANCH   3   4
ENDBRANCH   2   3
BRANCH   2  12
ATOM     12  C   UNL     1      46.406  19.074  18.537  0.00  0.00    +0.005 C 
BRANCH  12  13
ATOM     13  C   UNL     1      44.881  19.177  18.626  0.00  0.00    +0.003 C 
BRANCH  13  14
ATOM     14  C   UNL     1      44.383  18.348  19.813  0.00  0.00    +0.005 C 
BRANCH  14  15
ATOM     15  C   UNL     1      43.549  19.235  20.740  0.00  0.00    -0.024 C 
ATOM     22  C   UNL     1      44.410  19.692  21.919  0.00  0.00    +0.012 C 
BRANCH  15  16
ATOM     16  C   UNL     1      42.350  18.441  21.261  0.00  0.00    +0.005 C 
BRANCH  16  17
ATOM     17  C   UNL     1      41.069  19.244  21.029  0.00  0.00    +0.003 C 
BRANCH  17  18
ATOM     18  C   UNL     1      40.906  19.525  19.534  0.00  0.00    +0.005 C 
BRANCH  18  19
ATOM     19  C   UNL     1      40.553  21.000  19.327  0.00  0.00    -0.031 C 
ATOM     20  C   UNL     1      39.482  21.121  18.241  0.00  0.00    +0.012 C 
ATOM     21  C   UNL     1      41.805  21.768  18.897  0.00  0.00    +0.012 C 
ENDBRANCH  18  19
ENDBRANCH  17  18
ENDBRANCH  16  17
ENDBRANCH  15  16
ENDBRANCH  14  15
ENDBRANCH  13  14
ENDBRANCH  12  13
ENDBRANCH   2  12
TORSDOF 15
ENDMDL
MODEL 3
REMARK VINA RESULT:      -4.6      1.564      2.580
REMARK  Name = ZINC05962585
REMARK  20 active torsions:
REMARK  status: ('A' for Active; 'I' for Inactive)
REMARK    1  A    between atoms: C1_1  and  C2_2
REMARK    2  A    between atoms: C2_2  and  C3_4
REMARK    3  A    between atoms: C2_2  and  C14_16
REMARK    4  A    between atoms: C3_4  and  C4_5
REMARK    5  A    between atoms: C4_5  and  C5_6
REMARK    6  A    between atoms: C5_6  and  C6_7
REMARK    7  A    between atoms: C6_7  and  C7_9
REMARK    8  A    between atoms: C6_7  and  C8_10
REMARK    9  A    between atoms: C8_10  and  C9_11
REMARK   10  A    between atoms: C9_11  and  C10_12
REMARK   11  A    between atoms: C10_12  and  C11_13
REMARK   12  A    between atoms: C11_13  and  C12_14
REMARK   13  A    between atoms: C11_13  and  C13_15
REMARK   14  A    between atoms: C14_16  and  C15_17
REMARK   15  A    between atoms: C15_17  and  C16_18
REMARK   16  A    between atoms: C16_18  and  C17_19
REMARK   17  A    between atoms: C17_19  and  C18_21
REMARK   18  A    between atoms: C17_19  and  C19_22
REMARK   19  A    between atoms: C19_22  and  C20_23
REMARK   20  A    between atoms: C20_23  and  O1_24
REMARK                            x       y       z     vdW  Elec       q    Type
REMARK                         _______ _______ _______ _____ _____    ______ ____
ROOT
ATOM      1  C   UNL     1      45.166  23.075  20.691  0.00  0.00    +0.012 C 
ATOM      2  C   UNL     1      45.755  21.786  21.265  0.00  0.00    -0.024 C 
ENDROOT
BRANCH   2   3
ATOM      3  C   UNL     1      45.188  20.583  20.508  0.00  0.00    +0.005 C 
BRANCH   3   4
ATOM      4  C   UNL     1      44.296  21.074  19.366  0.00  0.00    +0.005 C 
BRANCH   4   5
ATOM      5  C   UNL     1      43.491  19.900  18.807  0.00  0.00    +0.010 C 
BRANCH   5   6
ATOM      6  C   UNL     1      42.048  20.344  18.557  0.00  0.00    -0.019 C 
ATOM     11  C   UNL     1      41.871  21.789  19.027  0.00  0.00    +0.015 C 
BRANCH   6   7
ATOM      7  C   UNL     1      41.093  19.435  19.333  0.00  0.00    +0.022 C 
BRANCH   7   8
ATOM      8  C   UNL     1      41.612  19.250  20.761  0.00  0.00    +0.164 C 
BRANCH   8   9
ATOM      9  O   UNL     1      40.524  19.365  21.681  0.00  0.00    -0.577 OA
ATOM     10  H   UNL     1      40.056  18.535  21.842  0.00  0.00    +0.380 HD
ENDBRANCH   8   9
ENDBRANCH   7   8
ENDBRANCH   6   7
ENDBRANCH   5   6
ENDBRANCH   4   5
ENDBRANCH   3   4
ENDBRANCH   2   3
BRANCH   2  12
ATOM     12  C   UNL     1      47.278  21.810  21.116  0.00  0.00    +0.005 C 
BRANCH  12  13
ATOM     13  C   UNL     1      47.749  20.496  20.486  0.00  0.00    +0.003 C 
BRANCH  13  14
ATOM     14  C   UNL     1      48.694  20.800  19.321  0.00  0.00    +0.005 C 
BRANCH  14  15
ATOM     15  C   UNL     1      49.927  19.900  19.417  0.00  0.00    -0.024 C 
ATOM     22  C   UNL     1      49.661  18.774  20.418  0.00  0.00    +0.012 C 
BRANCH  15  16
ATOM     16  C   UNL     1      51.126  20.726  19.885  0.00  0.00    +0.005 C 
BRANCH  16  17
ATOM     17  C   UNL     1      51.989  21.099  18.678  0.00  0.00    +0.003 C 
BRANCH  17  18
ATOM     18  C   UNL     1      52.492  19.825  17.998  0.00  0.00    +0.005 C 
BRANCH  18  19
ATOM     19  C   UNL     1      52.196  19.896  16.498  0.00  0.00    -0.031 C 
ATOM     20  C   UNL     1      51.503  21.222  16.176  0.00  0.00    +0.012 C 
ATOM     21  C   UNL     1      51.282  18.734  16.104  0.00  0.00    +0.012 C 
ENDBRANCH  18  19
ENDBRANCH  17  18
ENDBRANCH  16  17
ENDBRANCH  15  16
ENDBRANCH  14  15
ENDBRANCH  13  14
ENDBRANCH  12  13
ENDBRANCH   2  12
TORSDOF 15
ENDMDL
MODEL 4
REMARK VINA RESULT:      -4.5      1.871      3.085
REMARK  Name = ZINC05962585
REMARK  20 active torsions:
REMARK  status: ('A' for Active; 'I' for Inactive)
REMARK    1  A    between atoms: C1_1  and  C2_2
REMARK    2  A    between atoms: C2_2  and  C3_4
REMARK    3  A    between atoms: C2_2  and  C14_16
REMARK    4  A    between atoms: C3_4  and  C4_5
REMARK    5  A    between atoms: C4_5  and  C5_6
REMARK    6  A    between atoms: C5_6  and  C6_7
REMARK    7  A    between atoms: C6_7  and  C7_9
REMARK    8  A    between atoms: C6_7  and  C8_10
REMARK    9  A    between atoms: C8_10  and  C9_11
REMARK   10  A    between atoms: C9_11  and  C10_12
REMARK   11  A    between atoms: C10_12  and  C11_13
REMARK   12  A    between atoms: C11_13  and  C12_14
REMARK   13  A    between atoms: C11_13  and  C13_15
REMARK   14  A    between atoms: C14_16  and  C15_17
REMARK   15  A    between atoms: C15_17  and  C16_18
REMARK   16  A    between atoms: C16_18  and  C17_19
REMARK   17  A    between atoms: C17_19  and  C18_21
REMARK   18  A    between atoms: C17_19  and  C19_22
REMARK   19  A    between atoms: C19_22  and  C20_23
REMARK   20  A    between atoms: C20_23  and  O1_24
REMARK                            x       y       z     vdW  Elec       q    Type
REMARK                         _______ _______ _______ _____ _____    ______ ____
ROOT
ATOM      1  C   UNL     1      44.975  16.107  20.274  0.00  0.00    +0.012 C 
ATOM      2  C   UNL     1      44.711  17.611  20.178  0.00  0.00    -0.024 C 
ENDROOT
BRANCH   2   3
ATOM      3  C   UNL     1      43.603  17.999  21.160  0.00  0.00    +0.005 C 
BRANCH   3   4
ATOM      4  C   UNL     1      43.266  19.482  20.988  0.00  0.00    +0.005 C 
BRANCH   4   5
ATOM      5  C   UNL     1      42.242  19.645  19.864  0.00  0.00    +0.010 C 
BRANCH   5   6
ATOM      6  C   UNL     1      42.635  20.833  18.984  0.00  0.00    -0.019 C 
ATOM     11  C   UNL     1      43.832  21.553  19.606  0.00  0.00    +0.015 C 
BRANCH   6   7
ATOM      7  C   UNL     1      41.456  21.802  18.878  0.00  0.00    +0.022 C 
BRANCH   7   8
ATOM      8  C   UNL     1      40.178  21.018  18.566  0.00  0.00    +0.164 C 
BRANCH   8   9
ATOM      9  O   UNL     1      39.081  21.926  18.446  0.00  0.00    -0.577 OA
ATOM     10  H   UNL     1      39.258  22.807  18.801  0.00  0.00    +0.380 HD
ENDBRANCH   8   9
ENDBRANCH   7   8
ENDBRANCH   6   7
ENDBRANCH   5   6
ENDBRANCH   4   5
ENDBRANCH   3   4
ENDBRANCH   2   3
BRANCH   2  12
ATOM     12  C   UNL     1      45.989  18.377  20.523  0.00  0.00    +0.005 C 
BRANCH  12  13
ATOM     13  C   UNL     1      46.535  19.052  19.262  0.00  0.00    +0.003 C 
BRANCH  13  14
ATOM     14  C   UNL     1      47.508  18.105  18.557  0.00  0.00    +0.005 C 
BRANCH  14  15
ATOM     15  C   UNL     1      48.898  18.742  18.513  0.00  0.00    -0.024 C 
ATOM     22  C   UNL     1      49.904  17.823  19.208  0.00  0.00    +0.012 C 
BRANCH  15  16
ATOM     16  C   UNL     1      48.862  20.093  19.229  0.00  0.00    +0.005 C 
BRANCH  16  17
ATOM     17  C   UNL     1      50.232  20.765  19.118  0.00  0.00    +0.003 C 
BRANCH  17  18
ATOM     18  C   UNL     1      50.488  21.166  17.664  0.00  0.00    +0.005 C 
BRANCH  18  19
ATOM     19  C   UNL     1      51.904  20.750  17.261  0.00  0.00    -0.031 C 
ATOM     20  C   UNL     1      51.831  19.666  16.183  0.00  0.00    +0.012 C 
ATOM     21  C   UNL     1      52.642  20.204  18.485  0.00  0.00    +0.012 C 
ENDBRANCH  18  19
ENDBRANCH  17  18
ENDBRANCH  16  17
ENDBRANCH  15  16
ENDBRANCH  14  15
ENDBRANCH  13  14
ENDBRANCH  12  13
ENDBRANCH   2  12
TORSDOF 15
ENDMDL
MODEL 5
REMARK VINA RESULT:      -4.5      2.616      4.778
REMARK  Name = ZINC05962585
REMARK  20 active torsions:
REMARK  status: ('A' for Active; 'I' for Inactive)
REMARK    1  A    between atoms: C1_1  and  C2_2
REMARK    2  A    between atoms: C2_2  and  C3_4
REMARK    3  A    between atoms: C2_2  and  C14_16
REMARK    4  A    between atoms: C3_4  and  C4_5
REMARK    5  A    between atoms: C4_5  and  C5_6
REMARK    6  A    between atoms: C5_6  and  C6_7
REMARK    7  A    between atoms: C6_7  and  C7_9
REMARK    8  A    between atoms: C6_7  and  C8_10
REMARK    9  A    between atoms: C8_10  and  C9_11
REMARK   10  A    between atoms: C9_11  and  C10_12
REMARK   11  A    between atoms: C10_12  and  C11_13
REMARK   12  A    between atoms: C11_13  and  C12_14
REMARK   13  A    between atoms: C11_13  and  C13_15
REMARK   14  A    between atoms: C14_16  and  C15_17
REMARK   15  A    between atoms: C15_17  and  C16_18
REMARK   16  A    between atoms: C16_18  and  C17_19
REMARK   17  A    between atoms: C17_19  and  C18_21
REMARK   18  A    between atoms: C17_19  and  C19_22
REMARK   19  A    between atoms: C19_22  and  C20_23
REMARK   20  A    between atoms: C20_23  and  O1_24
REMARK                            x       y       z     vdW  Elec       q    Type
REMARK                         _______ _______ _______ _____ _____    ______ ____
ROOT
ATOM      1  C   UNL     1      46.521  16.375  16.824  0.00  0.00    +0.012 C 
ATOM      2  C   UNL     1      47.152  17.589  17.508  0.00  0.00    -0.024 C 
ENDROOT
BRANCH   2   3
ATOM      3  C   UNL     1      46.054  18.570  17.923  0.00  0.00    +0.005 C 
BRANCH   3   4
ATOM      4  C   UNL     1      46.661  19.684  18.779  0.00  0.00    +0.005 C 
BRANCH   4   5
ATOM      5  C   UNL     1      45.789  20.937  18.679  0.00  0.00    +0.010 C 
BRANCH   5   6
ATOM      6  C   UNL     1      45.894  21.737  19.979  0.00  0.00    -0.019 C 
ATOM     11  C   UNL     1      46.832  21.014  20.947  0.00  0.00    +0.015 C 
BRANCH   6   7
ATOM      7  C   UNL     1      44.508  21.865  20.612  0.00  0.00    +0.022 C 
BRANCH   7   8
ATOM      8  C   UNL     1      43.458  21.279  19.666  0.00  0.00    +0.164 C 
BRANCH   8   9
ATOM      9  O   UNL     1      42.571  20.435  20.403  0.00  0.00    -0.577 OA
ATOM     10  H   UNL     1      42.955  19.584  20.654  0.00  0.00    +0.380 HD
ENDBRANCH   8   9
ENDBRANCH   7   8
ENDBRANCH   6   7
ENDBRANCH   5   6
ENDBRANCH   4   5
ENDBRANCH   3   4
ENDBRANCH   2   3
BRANCH   2  12
ATOM     12  C   UNL     1      47.923  17.132  18.748  0.00  0.00    +0.005 C 
BRANCH  12  13
ATOM     13  C   UNL     1      49.418  17.384  18.541  0.00  0.00    +0.003 C 
BRANCH  13  14
ATOM     14  C   UNL     1      49.685  17.678  17.062  0.00  0.00    +0.005 C 
BRANCH  14  15
ATOM     15  C   UNL     1      51.165  17.440  16.755  0.00  0.00    -0.024 C 
ATOM     22  C   UNL     1      51.946  17.324  18.064  0.00  0.00    +0.012 C 
BRANCH  15  16
ATOM     16  C   UNL     1      51.710  18.611  15.937  0.00  0.00    +0.005 C 
BRANCH  16  17
ATOM     17  C   UNL     1      52.362  19.629  16.875  0.00  0.00    +0.003 C 
BRANCH  17  18
ATOM     18  C   UNL     1      51.550  20.926  16.865  0.00  0.00    +0.005 C 
BRANCH  18  19
ATOM     19  C   UNL     1      51.314  21.392  18.303  0.00  0.00    -0.031 C 
ATOM     20  C   UNL     1      52.374  20.778  19.219  0.00  0.00    +0.012 C 
ATOM     21  C   UNL     1      49.924  20.947  18.761  0.00  0.00    +0.012 C 
ENDBRANCH  18  19
ENDBRANCH  17  18
ENDBRANCH  16  17
ENDBRANCH  15  16
ENDBRANCH  14  15
ENDBRANCH  13  14
ENDBRANCH  12  13
ENDBRANCH   2  12
TORSDOF 15
ENDMDL
MODEL 6
REMARK VINA RESULT:      -4.5      2.354      3.917
REMARK  Name = ZINC05962585
REMARK  20 active torsions:
REMARK  status: ('A' for Active; 'I' for Inactive)
REMARK    1  A    between atoms: C1_1  and  C2_2
REMARK    2  A    between atoms: C2_2  and  C3_4
REMARK    3  A    between atoms: C2_2  and  C14_16
REMARK    4  A    between atoms: C3_4  and  C4_5
REMARK    5  A    between atoms: C4_5  and  C5_6
REMARK    6  A    between atoms: C5_6  and  C6_7
REMARK    7  A    between atoms: C6_7  and  C7_9
REMARK    8  A    between atoms: C6_7  and  C8_10
REMARK    9  A    between atoms: C8_10  and  C9_11
REMARK   10  A    between atoms: C9_11  and  C10_12
REMARK   11  A    between atoms: C10_12  and  C11_13
REMARK   12  A    between atoms: C11_13  and  C12_14
REMARK   13  A    between atoms: C11_13  and  C13_15
REMARK   14  A    between atoms: C14_16  and  C15_17
REMARK   15  A    between atoms: C15_17  and  C16_18
REMARK   16  A    between atoms: C16_18  and  C17_19
REMARK   17  A    between atoms: C17_19  and  C18_21
REMARK   18  A    between atoms: C17_19  and  C19_22
REMARK   19  A    between atoms: C19_22  and  C20_23
REMARK   20  A    between atoms: C20_23  and  O1_24
REMARK                            x       y       z     vdW  Elec       q    Type
REMARK                         _______ _______ _______ _____ _____    ______ ____
ROOT
ATOM      1  C   UNL     1      45.744  18.202  18.305  0.00  0.00    +0.012 C 
ATOM      2  C   UNL     1      46.583  19.481  18.271  0.00  0.00    -0.024 C 
ENDROOT
BRANCH   2   3
ATOM      3  C   UNL     1      45.771  20.640  18.853  0.00  0.00    +0.005 C 
BRANCH   3   4
ATOM      4  C   UNL     1      45.108  20.194  20.158  0.00  0.00    +0.005 C 
BRANCH   4   5
ATOM      5  C   UNL     1      44.833  21.416  21.035  0.00  0.00    +0.010 C 
BRANCH   5   6
ATOM      6  C   UNL     1      45.832  22.524  20.695  0.00  0.00    -0.019 C 
ATOM     11  C   UNL     1      46.895  22.605  21.791  0.00  0.00    +0.015 C 
BRANCH   6   7
ATOM      7  C   UNL     1      45.096  23.862  20.596  0.00  0.00    +0.022 C 
BRANCH   7   8
ATOM      8  C   UNL     1      44.608  24.071  19.161  0.00  0.00    +0.164 C 
BRANCH   8   9
ATOM      9  O   UNL     1      43.199  23.844  19.100  0.00  0.00    -0.577 OA
ATOM     10  H   UNL     1      42.714  24.516  18.601  0.00  0.00    +0.380 HD
ENDBRANCH   8   9
ENDBRANCH   7   8
ENDBRANCH   6   7
ENDBRANCH   5   6
ENDBRANCH   4   5
ENDBRANCH   3   4
ENDBRANCH   2   3
BRANCH   2  12
ATOM     12  C   UNL     1      47.853  19.281  19.100  0.00  0.00    +0.005 C 
BRANCH  12  13
ATOM     13  C   UNL     1      48.726  20.535  19.006  0.00  0.00    +0.003 C 
BRANCH  13  14
ATOM     14  C   UNL     1      49.557  20.674  20.284  0.00  0.00    +0.005 C 
BRANCH  14  15
ATOM     15  C   UNL     1      50.791  19.775  20.189  0.00  0.00    -0.024 C 
ATOM     22  C   UNL     1      50.795  18.787  21.357  0.00  0.00    +0.012 C 
BRANCH  15  16
ATOM     16  C   UNL     1      52.054  20.636  20.245  0.00  0.00    +0.005 C 
BRANCH  16  17
ATOM     17  C   UNL     1      52.607  20.822  18.830  0.00  0.00    +0.003 C 
BRANCH  17  18
ATOM     18  C   UNL     1      52.625  19.474  18.108  0.00  0.00    +0.005 C 
BRANCH  18  19
ATOM     19  C   UNL     1      52.071  19.645  16.692  0.00  0.00    -0.031 C 
ATOM     20  C   UNL     1      51.535  21.068  16.522  0.00  0.00    +0.012 C 
ATOM     21  C   UNL     1      50.938  18.642  16.464  0.00  0.00    +0.012 C 
ENDBRANCH  18  19
ENDBRANCH  17  18
ENDBRANCH  16  17
ENDBRANCH  15  16
ENDBRANCH  14  15
ENDBRANCH  13  14
ENDBRANCH  12  13
ENDBRANCH   2  12
TORSDOF 15
ENDMDL
MODEL 7
REMARK VINA RESULT:      -4.5      2.733      5.084
REMARK  Name = ZINC05962585
REMARK  20 active torsions:
REMARK  status: ('A' for Active; 'I' for Inactive)
REMARK    1  A    between atoms: C1_1  and  C2_2
REMARK    2  A    between atoms: C2_2  and  C3_4
REMARK    3  A    between atoms: C2_2  and  C14_16
REMARK    4  A    between atoms: C3_4  and  C4_5
REMARK    5  A    between atoms: C4_5  and  C5_6
REMARK    6  A    between atoms: C5_6  and  C6_7
REMARK    7  A    between atoms: C6_7  and  C7_9
REMARK    8  A    between atoms: C6_7  and  C8_10
REMARK    9  A    between atoms: C8_10  and  C9_11
REMARK   10  A    between atoms: C9_11  and  C10_12
REMARK   11  A    between atoms: C10_12  and  C11_13
REMARK   12  A    between atoms: C11_13  and  C12_14
REMARK   13  A    between atoms: C11_13  and  C13_15
REMARK   14  A    between atoms: C14_16  and  C15_17
REMARK   15  A    between atoms: C15_17  and  C16_18
REMARK   16  A    between atoms: C16_18  and  C17_19
REMARK   17  A    between atoms: C17_19  and  C18_21
REMARK   18  A    between atoms: C17_19  and  C19_22
REMARK   19  A    between atoms: C19_22  and  C20_23
REMARK   20  A    between atoms: C20_23  and  O1_24
REMARK                            x       y       z     vdW  Elec       q    Type
REMARK                         _______ _______ _______ _____ _____    ______ ____
ROOT
ATOM      1  C   UNL     1      50.044  20.015  21.015  0.00  0.00    +0.012 C 
ATOM      2  C   UNL     1      48.816  20.277  20.139  0.00  0.00    -0.024 C 
ENDROOT
BRANCH   2   3
ATOM      3  C   UNL     1      47.903  21.291  20.832  0.00  0.00    +0.005 C 
BRANCH   3   4
ATOM      4  C   UNL     1      46.488  21.176  20.261  0.00  0.00    +0.005 C 
BRANCH   4   5
ATOM      5  C   UNL     1      46.100  19.700  20.154  0.00  0.00    +0.010 C 
BRANCH   5   6
ATOM      6  C   UNL     1      45.584  19.409  18.743  0.00  0.00    -0.019 C 
ATOM     11  C   UNL     1      44.149  19.919  18.610  0.00  0.00    +0.015 C 
BRANCH   6   7
ATOM      7  C   UNL     1      45.615  17.900  18.490  0.00  0.00    +0.022 C 
BRANCH   7   8
ATOM      8  C   UNL     1      45.097  17.165  19.728  0.00  0.00    +0.164 C 
BRANCH   8   9
ATOM      9  O   UNL     1      45.083  15.758  19.475  0.00  0.00    -0.577 OA
ATOM     10  H   UNL     1      45.951  15.388  19.266  0.00  0.00    +0.380 HD
ENDBRANCH   8   9
ENDBRANCH   7   8
ENDBRANCH   6   7
ENDBRANCH   5   6
ENDBRANCH   4   5
ENDBRANCH   3   4
ENDBRANCH   2   3
BRANCH   2  12
ATOM     12  C   UNL     1      49.264  20.835  18.787  0.00  0.00    +0.005 C 
BRANCH  12  13
ATOM     13  C   UNL     1      50.791  20.940  18.759  0.00  0.00    +0.003 C 
BRANCH  13  14
ATOM     14  C   UNL     1      51.262  21.136  17.316  0.00  0.00    +0.005 C 
BRANCH  14  15
ATOM     15  C   UNL     1      52.352  20.113  16.992  0.00  0.00    -0.024 C 
ATOM     22  C   UNL     1      51.988  19.370  15.705  0.00  0.00    +0.012 C 
BRANCH  15  16
ATOM     16  C   UNL     1      52.470  19.112  18.143  0.00  0.00    +0.005 C 
BRANCH  16  17
ATOM     17  C   UNL     1      51.845  17.779  17.725  0.00  0.00    +0.003 C 
BRANCH  17  18
ATOM     18  C   UNL     1      51.140  17.148  18.928  0.00  0.00    +0.005 C 
BRANCH  18  19
ATOM     19  C   UNL     1      49.774  16.610  18.494  0.00  0.00    -0.031 C 
ATOM     20  C   UNL     1      49.199  17.503  17.393  0.00  0.00    +0.012 C 
ATOM     21  C   UNL     1      48.825  16.604  19.694  0.00  0.00    +0.012 C 
ENDBRANCH  18  19
ENDBRANCH  17  18
ENDBRANCH  16  17
ENDBRANCH  15  16
ENDBRANCH  14  15
ENDBRANCH  13  14
ENDBRANCH  12  13
ENDBRANCH   2  12
TORSDOF 15
ENDMDL
MODEL 8
REMARK VINA RESULT:      -4.5      2.900      6.736
REMARK  Name = ZINC05962585
REMARK  20 active torsions:
REMARK  status: ('A' for Active; 'I' for Inactive)
REMARK    1  A    between atoms: C1_1  and  C2_2
REMARK    2  A    between atoms: C2_2  and  C3_4
REMARK    3  A    between atoms: C2_2  and  C14_16
REMARK    4  A    between atoms: C3_4  and  C4_5
REMARK    5  A    between atoms: C4_5  and  C5_6
REMARK    6  A    between atoms: C5_6  and  C6_7
REMARK    7  A    between atoms: C6_7  and  C7_9
REMARK    8  A    between atoms: C6_7  and  C8_10
REMARK    9  A    between atoms: C8_10  and  C9_11
REMARK   10  A    between atoms: C9_11  and  C10_12
REMARK   11  A    between atoms: C10_12  and  C11_13
REMARK   12  A    between atoms: C11_13  and  C12_14
REMARK   13  A    between atoms: C11_13  and  C13_15
REMARK   14  A    between atoms: C14_16  and  C15_17
REMARK   15  A    between atoms: C15_17  and  C16_18
REMARK   16  A    between atoms: C16_18  and  C17_19
REMARK   17  A    between atoms: C17_19  and  C18_21
REMARK   18  A    between atoms: C17_19  and  C19_22
REMARK   19  A    between atoms: C19_22  and  C20_23
REMARK   20  A    between atoms: C20_23  and  O1_24
REMARK                            x       y       z     vdW  Elec       q    Type
REMARK                         _______ _______ _______ _____ _____    ______ ____
ROOT
ATOM      1  C   UNL     1      51.921  20.783  16.418  0.00  0.00    +0.012 C 
ATOM      2  C   UNL     1      52.365  20.389  17.829  0.00  0.00    -0.024 C 
ENDROOT
BRANCH   2   3
ATOM      3  C   UNL     1      51.619  21.243  18.856  0.00  0.00    +0.005 C 
BRANCH   3   4
ATOM      4  C   UNL     1      50.417  20.463  19.392  0.00  0.00    +0.005 C 
BRANCH   4   5
ATOM      5  C   UNL     1      49.146  20.930  18.681  0.00  0.00    +0.010 C 
BRANCH   5   6
ATOM      6  C   UNL     1      47.944  20.740  19.607  0.00  0.00    -0.019 C 
ATOM     11  C   UNL     1      48.093  19.424  20.373  0.00  0.00    +0.015 C 
BRANCH   6   7
ATOM      7  C   UNL     1      46.660  20.703  18.776  0.00  0.00    +0.022 C 
BRANCH   7   8
ATOM      8  C   UNL     1      45.481  21.162  19.637  0.00  0.00    +0.164 C 
BRANCH   8   9
ATOM      9  O   UNL     1      44.273  21.066  18.880  0.00  0.00    -0.577 OA
ATOM     10  H   UNL     1      43.889  21.920  18.642  0.00  0.00    +0.380 HD
ENDBRANCH   8   9
ENDBRANCH   7   8
ENDBRANCH   6   7
ENDBRANCH   5   6
ENDBRANCH   4   5
ENDBRANCH   3   4
ENDBRANCH   2   3
BRANCH   2  12
ATOM     12  C   UNL     1      52.048  18.912  18.068  0.00  0.00    +0.005 C 
BRANCH  12  13
ATOM     13  C   UNL     1      51.712  18.239  16.735  0.00  0.00    +0.003 C 
BRANCH  13  14
ATOM     14  C   UNL     1      50.974  16.924  16.999  0.00  0.00    +0.005 C 
BRANCH  14  15
ATOM     15  C   UNL     1      49.815  17.175  17.964  0.00  0.00    -0.024 C 
ATOM     22  C   UNL     1      49.541  15.907  18.774  0.00  0.00    +0.012 C 
BRANCH  15  16
ATOM     16  C   UNL     1      48.563  17.553  17.170  0.00  0.00    +0.005 C 
BRANCH  16  17
ATOM     17  C   UNL     1      47.505  16.461  17.336  0.00  0.00    +0.003 C 
BRANCH  17  18
ATOM     18  C   UNL     1      46.189  17.091  17.798  0.00  0.00    +0.005 C 
BRANCH  18  19
ATOM     19  C   UNL     1      45.919  16.700  19.253  0.00  0.00    -0.031 C 
ATOM     20  C   UNL     1      45.617  15.202  19.331  0.00  0.00    +0.012 C 
ATOM     21  C   UNL     1      44.719  17.491  19.778  0.00  0.00    +0.012 C 
ENDBRANCH  18  19
ENDBRANCH  17  18
ENDBRANCH  16  17
ENDBRANCH  15  16
ENDBRANCH  14  15
ENDBRANCH  13  14
ENDBRANCH  12  13
ENDBRANCH   2  12
TORSDOF 15
ENDMDL
MODEL 9
REMARK VINA RESULT:      -4.5      3.240      7.040
REMARK  Name = ZINC05962585
REMARK  20 active torsions:
REMARK  status: ('A' for Active; 'I' for Inactive)
REMARK    1  A    between atoms: C1_1  and  C2_2
REMARK    2  A    between atoms: C2_2  and  C3_4
REMARK    3  A    between atoms: C2_2  and  C14_16
REMARK    4  A    between atoms: C3_4  and  C4_5
REMARK    5  A    between atoms: C4_5  and  C5_6
REMARK    6  A    between atoms: C5_6  and  C6_7
REMARK    7  A    between atoms: C6_7  and  C7_9
REMARK    8  A    between atoms: C6_7  and  C8_10
REMARK    9  A    between atoms: C8_10  and  C9_11
REMARK   10  A    between atoms: C9_11  and  C10_12
REMARK   11  A    between atoms: C10_12  and  C11_13
REMARK   12  A    between atoms: C11_13  and  C12_14
REMARK   13  A    between atoms: C11_13  and  C13_15
REMARK   14  A    between atoms: C14_16  and  C15_17
REMARK   15  A    between atoms: C15_17  and  C16_18
REMARK   16  A    between atoms: C16_18  and  C17_19
REMARK   17  A    between atoms: C17_19  and  C18_21
REMARK   18  A    between atoms: C17_19  and  C19_22
REMARK   19  A    between atoms: C19_22  and  C20_23
REMARK   20  A    between atoms: C20_23  and  O1_24
REMARK                            x       y       z     vdW  Elec       q    Type
REMARK                         _______ _______ _______ _____ _____    ______ ____
ROOT
ATOM      1  C   UNL     1      52.656  19.108  18.229  0.00  0.00    +0.012 C 
ATOM      2  C   UNL     1      52.305  19.646  16.840  0.00  0.00    -0.024 C 
ENDROOT
BRANCH   2   3
ATOM      3  C   UNL     1      51.458  18.614  16.092  0.00  0.00    +0.005 C 
BRANCH   3   4
ATOM      4  C   UNL     1      50.915  17.584  17.084  0.00  0.00    +0.005 C 
BRANCH   4   5
ATOM      5  C   UNL     1      49.394  17.719  17.179  0.00  0.00    +0.010 C 
BRANCH   5   6
ATOM      6  C   UNL     1      48.858  16.729  18.215  0.00  0.00    -0.019 C 
ATOM     11  C   UNL     1      49.539  15.373  18.024  0.00  0.00    +0.015 C 
BRANCH   6   7
ATOM      7  C   UNL     1      47.347  16.571  18.035  0.00  0.00    +0.022 C 
BRANCH   7   8
ATOM      8  C   UNL     1      47.069  15.582  16.900  0.00  0.00    +0.164 C 
BRANCH   8   9
ATOM      9  O   UNL     1      46.371  16.249  15.847  0.00  0.00    -0.577 OA
ATOM     10  H   UNL     1      45.409  16.184  15.909  0.00  0.00    +0.380 HD
ENDBRANCH   8   9
ENDBRANCH   7   8
ENDBRANCH   6   7
ENDBRANCH   5   6
ENDBRANCH   4   5
ENDBRANCH   3   4
ENDBRANCH   2   3
BRANCH   2  12
ATOM     12  C   UNL     1      51.514  20.948  16.981  0.00  0.00    +0.005 C 
BRANCH  12  13
ATOM     13  C   UNL     1      51.064  21.115  18.435  0.00  0.00    +0.003 C 
BRANCH  13  14
ATOM     14  C   UNL     1      49.540  20.996  18.513  0.00  0.00    +0.005 C 
BRANCH  14  15
ATOM     15  C   UNL     1      49.117  20.804  19.970  0.00  0.00    -0.024 C 
ATOM     22  C   UNL     1      50.326  20.363  20.798  0.00  0.00    +0.012 C 
BRANCH  15  16
ATOM     16  C   UNL     1      48.027  19.735  20.049  0.00  0.00    +0.005 C 
BRANCH  16  17
ATOM     17  C   UNL     1      46.652  20.405  20.004  0.00  0.00    +0.003 C 
BRANCH  17  18
ATOM     18  C   UNL     1      46.061  20.262  18.600  0.00  0.00    +0.005 C 
BRANCH  18  19
ATOM     19  C   UNL     1      44.623  19.747  18.701  0.00  0.00    -0.031 C 
ATOM     20  C   UNL     1      43.736  20.827  19.323  0.00  0.00    +0.012 C 
ATOM     21  C   UNL     1      44.593  18.493  19.577  0.00  0.00    +0.012 C 
ENDBRANCH  18  19
ENDBRANCH  17  18
ENDBRANCH  16  17
ENDBRANCH  15  16
ENDBRANCH  14  15
ENDBRANCH  13  14
ENDBRANCH  12  13
ENDBRANCH   2  12
TORSDOF 15
ENDMDL
