MODEL 1
REMARK VINA RESULT:      -6.0      0.000      0.000
REMARK  Name = ZINC95486214
REMARK  5 active torsions:
REMARK  status: ('A' for Active; 'I' for Inactive)
REMARK    1  A    between atoms: C1_1  and  C2_2
REMARK    2  A    between atoms: C2_2  and  C3_3
REMARK    3  A    between atoms: C4_4  and  C5_5
REMARK    4  A    between atoms: C5_5  and  C6_6
REMARK    5  A    between atoms: C6_6  and  C7_7
REMARK                            x       y       z     vdW  Elec       q    Type
REMARK                         _______ _______ _______ _____ _____    ______ ____
ROOT
ATOM      7  C   UNL     1      47.516  19.747  19.435  0.00  0.00    -0.017 C 
ATOM      8  C   UNL     1      47.973  19.177  20.785  0.00  0.00    +0.036 C 
ATOM      9  C   UNL     1      47.089  17.973  21.104  0.00  0.00    +0.107 C 
ATOM     10  C   UNL     1      45.629  18.338  20.979  0.00  0.00    +0.219 A 
ATOM     11  C   UNL     1      44.756  17.559  21.670  0.00  0.00    -0.187 A 
ATOM     12  C   UNL     1      43.364  17.772  21.589  0.00  0.00    +0.418 A 
ATOM     13  C   UNL     1      42.894  18.836  20.685  0.00  0.00    -0.194 A 
ATOM     14  C   UNL     1      41.534  19.081  20.491  0.00  0.00    +0.108 A 
ATOM     15  C   UNL     1      41.144  20.076  19.637  0.00  0.00    -0.026 A 
ATOM     16  C   UNL     1      42.090  20.838  18.964  0.00  0.00    +0.074 A 
ATOM     17  C   UNL     1      43.437  20.612  19.146  0.00  0.00    -0.042 A 
ATOM     18  C   UNL     1      43.854  19.607  20.016  0.00  0.00    +0.186 A 
ATOM     19  O   UNL     1      42.581  17.102  22.241  0.00  0.00    -0.502 OA
ATOM     20  N   UNL     1      45.206  19.378  20.223  0.00  0.00    -0.492 N 
ATOM     21  C   UNL     1      46.127  20.349  19.621  0.00  0.00    +0.275 C 
ENDROOT
BRANCH   7   6
ATOM      6  C   UNL     1      48.492  20.831  18.975  0.00  0.00    +0.034 C 
BRANCH   6   5
ATOM      5  C   UNL     1      49.802  20.704  19.757  0.00  0.00    +0.052 C 
BRANCH   5   4
ATOM      3  C   UNL     1      50.754  20.958  17.523  0.00  0.00    -0.046 C 
ATOM      4  C   UNL     1      50.965  20.751  18.799  0.00  0.00    -0.056 C 
BRANCH   3   2
ATOM      1  C   UNL     1      52.052  19.654  15.861  0.00  0.00    +0.017 C 
ATOM      2  C   UNL     1      51.917  21.005  16.565  0.00  0.00    +0.037 C 
ENDBRANCH   3   2
ENDBRANCH   5   4
ENDBRANCH   6   5
ENDBRANCH   7   6
TORSDOF 4
ENDMDL
MODEL 2
REMARK VINA RESULT:      -6.0      1.270      2.760
REMARK  Name = ZINC95486214
REMARK  5 active torsions:
REMARK  status: ('A' for Active; 'I' for Inactive)
REMARK    1  A    between atoms: C1_1  and  C2_2
REMARK    2  A    between atoms: C2_2  and  C3_3
REMARK    3  A    between atoms: C4_4  and  C5_5
REMARK    4  A    between atoms: C5_5  and  C6_6
REMARK    5  A    between atoms: C6_6  and  C7_7
REMARK                            x       y       z     vdW  Elec       q    Type
REMARK                         _______ _______ _______ _____ _____    ______ ____
ROOT
ATOM      7  C   UNL     1      47.815  20.152  19.897  0.00  0.00    -0.017 C 
ATOM      8  C   UNL     1      47.295  20.753  18.584  0.00  0.00    +0.036 C 
ATOM      9  C   UNL     1      45.920  21.357  18.863  0.00  0.00    +0.107 C 
ATOM     10  C   UNL     1      45.027  20.351  19.551  0.00  0.00    +0.219 A 
ATOM     11  C   UNL     1      43.689  20.556  19.430  0.00  0.00    -0.187 A 
ATOM     12  C   UNL     1      42.760  19.712  20.072  0.00  0.00    +0.418 A 
ATOM     13  C   UNL     1      43.297  18.634  20.920  0.00  0.00    -0.194 A 
ATOM     14  C   UNL     1      42.458  17.787  21.644  0.00  0.00    +0.108 A 
ATOM     15  C   UNL     1      43.003  16.803  22.423  0.00  0.00    -0.026 A 
ATOM     16  C   UNL     1      44.380  16.646  22.499  0.00  0.00    +0.074 A 
ATOM     17  C   UNL     1      45.224  17.472  21.788  0.00  0.00    -0.042 A 
ATOM     18  C   UNL     1      44.688  18.476  20.985  0.00  0.00    +0.186 A 
ATOM     19  O   UNL     1      41.558  19.868  19.931  0.00  0.00    -0.502 OA
ATOM     20  N   UNL     1      45.524  19.304  20.250  0.00  0.00    -0.492 N 
ATOM     21  C   UNL     1      46.947  18.945  20.242  0.00  0.00    +0.275 C 
ENDROOT
BRANCH   7   6
ATOM      6  C   UNL     1      49.269  19.710  19.723  0.00  0.00    +0.034 C 
BRANCH   6   5
ATOM      5  C   UNL     1      50.116  20.903  19.275  0.00  0.00    +0.052 C 
BRANCH   5   4
ATOM      3  C   UNL     1      51.087  21.278  17.066  0.00  0.00    -0.046 C 
ATOM      4  C   UNL     1      50.984  20.495  18.112  0.00  0.00    -0.056 C 
BRANCH   3   2
ATOM      1  C   UNL     1      52.048  19.344  15.848  0.00  0.00    +0.017 C 
ATOM      2  C   UNL     1      51.955  20.870  15.904  0.00  0.00    +0.037 C 
ENDBRANCH   3   2
ENDBRANCH   5   4
ENDBRANCH   6   5
ENDBRANCH   7   6
TORSDOF 4
ENDMDL
MODEL 3
REMARK VINA RESULT:      -5.9      3.093      7.791
REMARK  Name = ZINC95486214
REMARK  5 active torsions:
REMARK  status: ('A' for Active; 'I' for Inactive)
REMARK    1  A    between atoms: C1_1  and  C2_2
REMARK    2  A    between atoms: C2_2  and  C3_3
REMARK    3  A    between atoms: C4_4  and  C5_5
REMARK    4  A    between atoms: C5_5  and  C6_6
REMARK    5  A    between atoms: C6_6  and  C7_7
REMARK                            x       y       z     vdW  Elec       q    Type
REMARK                         _______ _______ _______ _____ _____    ______ ____
ROOT
ATOM      7  C   UNL     1      46.493  18.978  19.531  0.00  0.00    -0.017 C 
ATOM      8  C   UNL     1      46.046  18.146  18.321  0.00  0.00    +0.036 C 
ATOM      9  C   UNL     1      47.142  17.122  18.032  0.00  0.00    +0.107 C 
ATOM     10  C   UNL     1      48.489  17.798  17.932  0.00  0.00    +0.219 A 
ATOM     11  C   UNL     1      49.443  17.133  17.230  0.00  0.00    -0.187 A 
ATOM     12  C   UNL     1      50.752  17.642  17.112  0.00  0.00    +0.418 A 
ATOM     13  C   UNL     1      51.058  18.895  17.824  0.00  0.00    -0.194 A 
ATOM     14  C   UNL     1      52.340  19.445  17.819  0.00  0.00    +0.108 A 
ATOM     15  C   UNL     1      52.579  20.606  18.500  0.00  0.00    -0.026 A 
ATOM     16  C   UNL     1      51.556  21.238  19.195  0.00  0.00    +0.074 A 
ATOM     17  C   UNL     1      50.283  20.711  19.210  0.00  0.00    -0.042 A 
ATOM     18  C   UNL     1      50.019  19.532  18.517  0.00  0.00    +0.186 A 
ATOM     19  O   UNL     1      51.599  17.069  16.447  0.00  0.00    -0.502 OA
ATOM     20  N   UNL     1      48.739  18.998  18.508  0.00  0.00    -0.492 N 
ATOM     21  C   UNL     1      47.687  19.828  19.106  0.00  0.00    +0.275 C 
ENDROOT
BRANCH   7   6
ATOM      6  C   UNL     1      45.348  19.886  19.985  0.00  0.00    +0.034 C 
BRANCH   6   5
ATOM      5  C   UNL     1      44.072  19.517  19.225  0.00  0.00    +0.052 C 
BRANCH   5   4
ATOM      3  C   UNL     1      41.935  20.573  18.695  0.00  0.00    -0.046 C 
ATOM      4  C   UNL     1      43.122  20.687  19.239  0.00  0.00    -0.056 C 
BRANCH   3   2
ATOM      1  C   UNL     1      39.581  21.264  18.338  0.00  0.00    +0.017 C 
ATOM      2  C   UNL     1      40.986  21.743  18.709  0.00  0.00    +0.037 C 
ENDBRANCH   3   2
ENDBRANCH   5   4
ENDBRANCH   6   5
ENDBRANCH   7   6
TORSDOF 4
ENDMDL
MODEL 4
REMARK VINA RESULT:      -5.8      2.389      3.586
REMARK  Name = ZINC95486214
REMARK  5 active torsions:
REMARK  status: ('A' for Active; 'I' for Inactive)
REMARK    1  A    between atoms: C1_1  and  C2_2
REMARK    2  A    between atoms: C2_2  and  C3_3
REMARK    3  A    between atoms: C4_4  and  C5_5
REMARK    4  A    between atoms: C5_5  and  C6_6
REMARK    5  A    between atoms: C6_6  and  C7_7
REMARK                            x       y       z     vdW  Elec       q    Type
REMARK                         _______ _______ _______ _____ _____    ______ ____
ROOT
ATOM      7  C   UNL     1      48.530  18.343  18.512  0.00  0.00    -0.017 C 
ATOM      8  C   UNL     1      47.472  17.267  18.236  0.00  0.00    +0.036 C 
ATOM      9  C   UNL     1      46.243  17.962  17.653  0.00  0.00    +0.107 C 
ATOM     10  C   UNL     1      45.823  19.120  18.527  0.00  0.00    +0.219 A 
ATOM     11  C   UNL     1      44.527  19.514  18.418  0.00  0.00    -0.187 A 
ATOM     12  C   UNL     1      44.035  20.617  19.147  0.00  0.00    +0.418 A 
ATOM     13  C   UNL     1      44.993  21.355  19.988  0.00  0.00    -0.194 A 
ATOM     14  C   UNL     1      44.616  22.495  20.697  0.00  0.00    +0.108 A 
ATOM     15  C   UNL     1      45.541  23.152  21.460  0.00  0.00    -0.026 A 
ATOM     16  C   UNL     1      46.850  22.693  21.531  0.00  0.00    +0.074 A 
ATOM     17  C   UNL     1      47.240  21.566  20.839  0.00  0.00    -0.042 A 
ATOM     18  C   UNL     1      46.310  20.881  20.061  0.00  0.00    +0.186 A 
ATOM     19  O   UNL     1      42.862  20.946  19.083  0.00  0.00    -0.502 OA
ATOM     20  N   UNL     1      46.683  19.736  19.373  0.00  0.00    -0.492 N 
ATOM     21  C   UNL     1      48.027  19.220  19.655  0.00  0.00    +0.275 C 
ENDROOT
BRANCH   7   6
ATOM      6  C   UNL     1      49.850  17.680  18.911  0.00  0.00    +0.034 C 
BRANCH   6   5
ATOM      5  C   UNL     1      50.518  17.085  17.669  0.00  0.00    +0.052 C 
BRANCH   5   4
ATOM      3  C   UNL     1      51.885  18.912  16.798  0.00  0.00    -0.046 C 
ATOM      4  C   UNL     1      50.802  18.183  16.677  0.00  0.00    -0.056 C 
BRANCH   3   2
ATOM      1  C   UNL     1      51.485  21.300  16.264  0.00  0.00    +0.017 C 
ATOM      2  C   UNL     1      52.169  20.010  15.806  0.00  0.00    +0.037 C 
ENDBRANCH   3   2
ENDBRANCH   5   4
ENDBRANCH   6   5
ENDBRANCH   7   6
TORSDOF 4
ENDMDL
MODEL 5
REMARK VINA RESULT:      -5.7      2.463      3.082
REMARK  Name = ZINC95486214
REMARK  5 active torsions:
REMARK  status: ('A' for Active; 'I' for Inactive)
REMARK    1  A    between atoms: C1_1  and  C2_2
REMARK    2  A    between atoms: C2_2  and  C3_3
REMARK    3  A    between atoms: C4_4  and  C5_5
REMARK    4  A    between atoms: C5_5  and  C6_6
REMARK    5  A    between atoms: C6_6  and  C7_7
REMARK                            x       y       z     vdW  Elec       q    Type
REMARK                         _______ _______ _______ _____ _____    ______ ____
ROOT
ATOM      7  C   UNL     1      49.690  20.103  19.617  0.00  0.00    -0.017 C 
ATOM      8  C   UNL     1      49.346  18.625  19.391  0.00  0.00    +0.036 C 
ATOM      9  C   UNL     1      48.174  18.565  18.413  0.00  0.00    +0.107 C 
ATOM     10  C   UNL     1      47.050  19.462  18.874  0.00  0.00    +0.219 A 
ATOM     11  C   UNL     1      45.812  19.162  18.403  0.00  0.00    -0.187 A 
ATOM     12  C   UNL     1      44.694  19.959  18.724  0.00  0.00    +0.418 A 
ATOM     13  C   UNL     1      44.932  21.159  19.545  0.00  0.00    -0.194 A 
ATOM     14  C   UNL     1      43.901  22.044  19.863  0.00  0.00    +0.108 A 
ATOM     15  C   UNL     1      44.171  23.148  20.623  0.00  0.00    -0.026 A 
ATOM     16  C   UNL     1      45.460  23.395  21.075  0.00  0.00    +0.074 A 
ATOM     17  C   UNL     1      46.491  22.531  20.773  0.00  0.00    -0.042 A 
ATOM     18  C   UNL     1      46.235  21.397  20.006  0.00  0.00    +0.186 A 
ATOM     19  O   UNL     1      43.575  19.668  18.338  0.00  0.00    -0.502 OA
ATOM     20  N   UNL     1      47.257  20.509  19.708  0.00  0.00    -0.492 N 
ATOM     21  C   UNL     1      48.538  20.747  20.383  0.00  0.00    +0.275 C 
ENDROOT
BRANCH   7   6
ATOM      6  C   UNL     1      50.980  20.215  20.432  0.00  0.00    +0.034 C 
BRANCH   6   5
ATOM      5  C   UNL     1      51.978  21.107  19.690  0.00  0.00    +0.052 C 
BRANCH   5   4
ATOM      3  C   UNL     1      51.641  21.033  17.273  0.00  0.00    -0.046 C 
ATOM      4  C   UNL     1      52.245  20.533  18.323  0.00  0.00    -0.056 C 
BRANCH   3   2
ATOM      1  C   UNL     1      51.787  18.934  15.960  0.00  0.00    +0.017 C 
ATOM      2  C   UNL     1      51.909  20.459  15.905  0.00  0.00    +0.037 C 
ENDBRANCH   3   2
ENDBRANCH   5   4
ENDBRANCH   6   5
ENDBRANCH   7   6
TORSDOF 4
ENDMDL
MODEL 6
REMARK VINA RESULT:      -5.6      4.004      5.349
REMARK  Name = ZINC95486214
REMARK  5 active torsions:
REMARK  status: ('A' for Active; 'I' for Inactive)
REMARK    1  A    between atoms: C1_1  and  C2_2
REMARK    2  A    between atoms: C2_2  and  C3_3
REMARK    3  A    between atoms: C4_4  and  C5_5
REMARK    4  A    between atoms: C5_5  and  C6_6
REMARK    5  A    between atoms: C6_6  and  C7_7
REMARK                            x       y       z     vdW  Elec       q    Type
REMARK                         _______ _______ _______ _____ _____    ______ ____
ROOT
ATOM      7  C   UNL     1      44.224  17.763  21.906  0.00  0.00    -0.017 C 
ATOM      8  C   UNL     1      45.687  18.171  21.688  0.00  0.00    +0.036 C 
ATOM      9  C   UNL     1      45.772  19.690  21.831  0.00  0.00    +0.107 C 
ATOM     10  C   UNL     1      44.740  20.364  20.958  0.00  0.00    +0.219 A 
ATOM     11  C   UNL     1      44.997  21.654  20.615  0.00  0.00    -0.187 A 
ATOM     12  C   UNL     1      44.081  22.401  19.846  0.00  0.00    +0.418 A 
ATOM     13  C   UNL     1      42.814  21.747  19.477  0.00  0.00    -0.194 A 
ATOM     14  C   UNL     1      41.820  22.425  18.771  0.00  0.00    +0.108 A 
ATOM     15  C   UNL     1      40.657  21.778  18.456  0.00  0.00    -0.026 A 
ATOM     16  C   UNL     1      40.460  20.457  18.835  0.00  0.00    +0.074 A 
ATOM     17  C   UNL     1      41.432  19.771  19.530  0.00  0.00    -0.042 A 
ATOM     18  C   UNL     1      42.626  20.410  19.856  0.00  0.00    +0.186 A 
ATOM     19  O   UNL     1      44.328  23.544  19.500  0.00  0.00    -0.502 OA
ATOM     20  N   UNL     1      43.620  19.728  20.540  0.00  0.00    -0.492 N 
ATOM     21  C   UNL     1      43.405  18.290  20.731  0.00  0.00    +0.275 C 
ENDROOT
BRANCH   7   6
ATOM      6  C   UNL     1      44.116  16.238  21.969  0.00  0.00    +0.034 C 
BRANCH   6   5
ATOM      5  C   UNL     1      45.498  15.619  21.743  0.00  0.00    +0.052 C 
BRANCH   5   4
ATOM      3  C   UNL     1      46.088  15.029  19.448  0.00  0.00    -0.046 C 
ATOM      4  C   UNL     1      45.449  14.705  20.546  0.00  0.00    -0.056 C 
BRANCH   3   2
ATOM      1  C   UNL     1      45.105  12.939  18.546  0.00  0.00    +0.017 C 
ATOM      2  C   UNL     1      46.039  14.114  18.251  0.00  0.00    +0.037 C 
ENDBRANCH   3   2
ENDBRANCH   5   4
ENDBRANCH   6   5
ENDBRANCH   7   6
TORSDOF 4
ENDMDL
MODEL 7
REMARK VINA RESULT:      -5.6      3.730      6.914
REMARK  Name = ZINC95486214
REMARK  5 active torsions:
REMARK  status: ('A' for Active; 'I' for Inactive)
REMARK    1  A    between atoms: C1_1  and  C2_2
REMARK    2  A    between atoms: C2_2  and  C3_3
REMARK    3  A    between atoms: C4_4  and  C5_5
REMARK    4  A    between atoms: C5_5  and  C6_6
REMARK    5  A    between atoms: C6_6  and  C7_7
REMARK                            x       y       z     vdW  Elec       q    Type
REMARK                         _______ _______ _______ _____ _____    ______ ____
ROOT
ATOM      7  C   UNL     1      44.071  18.322  21.251  0.00  0.00    -0.017 C 
ATOM      8  C   UNL     1      43.346  17.186  21.984  0.00  0.00    +0.036 C 
ATOM      9  C   UNL     1      44.376  16.101  22.293  0.00  0.00    +0.107 C 
ATOM     10  C   UNL     1      45.143  15.726  21.047  0.00  0.00    +0.219 A 
ATOM     11  C   UNL     1      45.722  14.497  21.047  0.00  0.00    -0.187 A 
ATOM     12  C   UNL     1      46.506  14.058  19.960  0.00  0.00    +0.418 A 
ATOM     13  C   UNL     1      46.715  15.004  18.850  0.00  0.00    -0.194 A 
ATOM     14  C   UNL     1      47.525  14.685  17.760  0.00  0.00    +0.108 A 
ATOM     15  C   UNL     1      47.695  15.598  16.756  0.00  0.00    -0.026 A 
ATOM     16  C   UNL     1      47.070  16.837  16.817  0.00  0.00    +0.074 A 
ATOM     17  C   UNL     1      46.264  17.169  17.885  0.00  0.00    -0.042 A 
ATOM     18  C   UNL     1      46.075  16.249  18.914  0.00  0.00    +0.186 A 
ATOM     19  O   UNL     1      46.991  12.939  19.938  0.00  0.00    -0.502 OA
ATOM     20  N   UNL     1      45.253  16.562  19.987  0.00  0.00    -0.492 N 
ATOM     21  C   UNL     1      44.488  17.809  19.876  0.00  0.00    +0.275 C 
ENDROOT
BRANCH   7   6
ATOM      6  C   UNL     1      43.131  19.518  21.093  0.00  0.00    +0.034 C 
BRANCH   6   5
ATOM      5  C   UNL     1      41.690  19.020  20.954  0.00  0.00    +0.052 C 
BRANCH   5   4
ATOM      3  C   UNL     1      41.584  20.791  19.276  0.00  0.00    -0.046 C 
ATOM      4  C   UNL     1      40.935  19.922  20.013  0.00  0.00    -0.056 C 
BRANCH   3   2
ATOM      1  C   UNL     1      39.329  21.415  18.455  0.00  0.00    +0.017 C 
ATOM      2  C   UNL     1      40.828  21.693  18.335  0.00  0.00    +0.037 C 
ENDBRANCH   3   2
ENDBRANCH   5   4
ENDBRANCH   6   5
ENDBRANCH   7   6
TORSDOF 4
ENDMDL
MODEL 8
REMARK VINA RESULT:      -5.5      2.069      2.676
REMARK  Name = ZINC95486214
REMARK  5 active torsions:
REMARK  status: ('A' for Active; 'I' for Inactive)
REMARK    1  A    between atoms: C1_1  and  C2_2
REMARK    2  A    between atoms: C2_2  and  C3_3
REMARK    3  A    between atoms: C4_4  and  C5_5
REMARK    4  A    between atoms: C5_5  and  C6_6
REMARK    5  A    between atoms: C6_6  and  C7_7
REMARK                            x       y       z     vdW  Elec       q    Type
REMARK                         _______ _______ _______ _____ _____    ______ ____
ROOT
ATOM      7  C   UNL     1      47.682  16.994  17.655  0.00  0.00    -0.017 C 
ATOM      8  C   UNL     1      47.554  15.874  18.696  0.00  0.00    +0.036 C 
ATOM      9  C   UNL     1      46.079  15.758  19.076  0.00  0.00    +0.107 C 
ATOM     10  C   UNL     1      45.523  17.109  19.460  0.00  0.00    +0.219 A 
ATOM     11  C   UNL     1      44.419  17.099  20.253  0.00  0.00    -0.187 A 
ATOM     12  C   UNL     1      43.782  18.298  20.634  0.00  0.00    +0.418 A 
ATOM     13  C   UNL     1      44.327  19.556  20.094  0.00  0.00    -0.194 A 
ATOM     14  C   UNL     1      43.728  20.787  20.362  0.00  0.00    +0.108 A 
ATOM     15  C   UNL     1      44.266  21.928  19.834  0.00  0.00    -0.026 A 
ATOM     16  C   UNL     1      45.399  21.868  19.033  0.00  0.00    +0.074 A 
ATOM     17  C   UNL     1      46.005  20.660  18.759  0.00  0.00    -0.042 A 
ATOM     18  C   UNL     1      45.475  19.488  19.293  0.00  0.00    +0.186 A 
ATOM     19  O   UNL     1      42.817  18.294  21.380  0.00  0.00    -0.502 OA
ATOM     20  N   UNL     1      46.084  18.268  19.041  0.00  0.00    -0.492 N 
ATOM     21  C   UNL     1      47.376  18.320  18.347  0.00  0.00    +0.275 C 
ENDROOT
BRANCH   7   6
ATOM      6  C   UNL     1      49.105  17.020  17.095  0.00  0.00    +0.034 C 
BRANCH   6   5
ATOM      5  C   UNL     1      50.042  17.677  18.111  0.00  0.00    +0.052 C 
BRANCH   5   4
ATOM      3  C   UNL     1      51.472  18.628  16.375  0.00  0.00    -0.046 C 
ATOM      4  C   UNL     1      50.762  18.829  17.459  0.00  0.00    -0.056 C 
BRANCH   3   2
ATOM      1  C   UNL     1      51.681  21.098  16.307  0.00  0.00    +0.017 C 
ATOM      2  C   UNL     1      52.192  19.779  15.722  0.00  0.00    +0.037 C 
ENDBRANCH   3   2
ENDBRANCH   5   4
ENDBRANCH   6   5
ENDBRANCH   7   6
TORSDOF 4
ENDMDL
MODEL 9
REMARK VINA RESULT:      -5.3     21.126     22.138
REMARK  Name = ZINC95486214
REMARK  5 active torsions:
REMARK  status: ('A' for Active; 'I' for Inactive)
REMARK    1  A    between atoms: C1_1  and  C2_2
REMARK    2  A    between atoms: C2_2  and  C3_3
REMARK    3  A    between atoms: C4_4  and  C5_5
REMARK    4  A    between atoms: C5_5  and  C6_6
REMARK    5  A    between atoms: C6_6  and  C7_7
REMARK                            x       y       z     vdW  Elec       q    Type
REMARK                         _______ _______ _______ _____ _____    ______ ____
ROOT
ATOM      7  C   UNL     1      56.687  32.168   3.656  0.00  0.00    -0.017 C 
ATOM      8  C   UNL     1      57.246  33.255   4.585  0.00  0.00    +0.036 C 
ATOM      9  C   UNL     1      56.382  33.280   5.844  0.00  0.00    +0.107 C 
ATOM     10  C   UNL     1      54.919  33.382   5.482  0.00  0.00    +0.219 A 
ATOM     11  C   UNL     1      54.098  33.885   6.441  0.00  0.00    -0.187 A 
ATOM     12  C   UNL     1      52.706  33.979   6.236  0.00  0.00    +0.418 A 
ATOM     13  C   UNL     1      52.173  33.463   4.963  0.00  0.00    -0.194 A 
ATOM     14  C   UNL     1      50.804  33.456   4.693  0.00  0.00    +0.108 A 
ATOM     15  C   UNL     1      50.355  32.960   3.500  0.00  0.00    -0.026 A 
ATOM     16  C   UNL     1      51.249  32.464   2.561  0.00  0.00    +0.074 A 
ATOM     17  C   UNL     1      52.605  32.466   2.809  0.00  0.00    -0.042 A 
ATOM     18  C   UNL     1      53.082  32.971   4.016  0.00  0.00    +0.186 A 
ATOM     19  O   UNL     1      51.972  34.469   7.077  0.00  0.00    -0.502 OA
ATOM     20  N   UNL     1      54.445  32.996   4.274  0.00  0.00    -0.492 N 
ATOM     21  C   UNL     1      55.322  32.631   3.155  0.00  0.00    +0.275 C 
ENDROOT
BRANCH   7   6
ATOM      6  C   UNL     1      57.632  31.966   2.470  0.00  0.00    +0.034 C 
BRANCH   6   5
ATOM      5  C   UNL     1      58.933  31.324   2.957  0.00  0.00    +0.052 C 
BRANCH   5   4
ATOM      3  C   UNL     1      58.428  29.016   2.342  0.00  0.00    -0.046 C 
ATOM      4  C   UNL     1      58.684  29.877   3.296  0.00  0.00    -0.056 C 
BRANCH   3   2
ATOM      1  C   UNL     1      59.290  27.062   3.602  0.00  0.00    +0.017 C 
ATOM      2  C   UNL     1      58.178  27.569   2.681  0.00  0.00    +0.037 C 
ENDBRANCH   3   2
ENDBRANCH   5   4
ENDBRANCH   6   5
ENDBRANCH   7   6
TORSDOF 4
ENDMDL
