MODEL 1
REMARK VINA RESULT:      -6.6      0.000      0.000
REMARK  Name = ZINC95486316
REMARK  8 active torsions:
REMARK  status: ('A' for Active; 'I' for Inactive)
REMARK    1  A    between atoms: C1_1  and  C2_2
REMARK    2  A    between atoms: C7_8  and  C12_16
REMARK    3  A    between atoms: C8_9  and  O1_15
REMARK    4  A    between atoms: C10_11  and  C11_14
REMARK    5  A    between atoms: C17_21  and  O4_29
REMARK    6  A    between atoms: C19_23  and  O3_27
REMARK    7  A    between atoms: C21_25  and  O2_26
REMARK    8  A    between atoms: O3_27  and  C22_28
REMARK                            x       y       z     vdW  Elec       q    Type
REMARK                         _______ _______ _______ _____ _____    ______ ____
ROOT
ATOM      1  C   UNL     1      46.540  12.116  18.008  0.00  0.00    +0.094 C 
ATOM      2  C   UNL     1      46.598  13.628  18.237  0.00  0.00    +0.167 C 
ATOM      3  C   UNL     1      45.601  14.021  19.327  0.00  0.00    +0.132 C 
ATOM      4  C   UNL     1      45.489  15.524  19.400  0.00  0.00    -0.075 A 
ATOM      5  C   UNL     1      44.916  16.091  20.529  0.00  0.00    +0.030 A 
ATOM      6  C   UNL     1      44.790  17.459  20.640  0.00  0.00    +0.081 A 
ATOM      7  C   UNL     1      45.240  18.281  19.608  0.00  0.00    -0.026 A 
ATOM     24  C   UNL     1      45.816  17.707  18.471  0.00  0.00    +0.143 A 
ATOM     27  C   UNL     1      45.940  16.327  18.373  0.00  0.00    -0.154 A 
ATOM     28  C   UNL     1      46.575  15.750  17.135  0.00  0.00    +0.236 C 
ATOM     29  C   UNL     1      48.095  15.898  17.232  0.00  0.00    +0.093 C 
ATOM     30  N   UNL     1      46.241  14.330  16.995  0.00  0.00    -0.501 N 
ATOM     31  H   UNL     1      45.251  14.234  16.825  0.00  0.00    +0.430 HD
ATOM     32  H   UNL     1      46.757  13.935  16.223  0.00  0.00    +0.432 HD
ENDROOT
BRANCH   7   8
ATOM      8  C   UNL     1      45.107  19.751  19.714  0.00  0.00    -0.133 A 
ATOM      9  C   UNL     1      43.883  20.381  19.387  0.00  0.00    +0.037 A 
ATOM     10  C   UNL     1      42.776  19.633  18.958  0.00  0.00    -0.011 A 
ATOM     11  C   UNL     1      41.607  20.263  18.649  0.00  0.00    +0.062 A 
ATOM     12  C   UNL     1      41.489  21.646  18.752  0.00  0.00    -0.026 A 
ATOM     13  C   UNL     1      42.554  22.414  19.169  0.00  0.00    +0.157 A 
ATOM     16  C   UNL     1      43.773  21.789  19.495  0.00  0.00    -0.111 A 
ATOM     17  C   UNL     1      44.884  22.542  19.927  0.00  0.00    +0.194 A 
ATOM     20  C   UNL     1      46.065  21.908  20.241  0.00  0.00    -0.121 A 
ATOM     21  C   UNL     1      46.181  20.522  20.141  0.00  0.00    +0.182 A 
BRANCH  13  14
ATOM     14  O   UNL     1      42.428  23.762  19.266  0.00  0.00    -0.479 OA
ATOM     15  H   UNL     1      41.968  24.170  18.520  0.00  0.00    +0.397 HD
ENDBRANCH  13  14
BRANCH  17  18
ATOM     18  O   UNL     1      44.789  23.892  20.033  0.00  0.00    -0.288 OA
ATOM     19  C   UNL     1      45.727  24.543  20.893  0.00  0.00    +0.251 C 
ENDBRANCH  17  18
BRANCH  21  22
ATOM     22  O   UNL     1      47.355  19.920  20.461  0.00  0.00    -0.490 OA
ATOM     23  H   UNL     1      47.260  19.002  20.751  0.00  0.00    +0.389 HD
ENDBRANCH  21  22
ENDBRANCH   7   8
BRANCH  24  25
ATOM     25  O   UNL     1      46.257  18.501  17.460  0.00  0.00    -0.484 OA
ATOM     26  H   UNL     1      46.884  19.183  17.739  0.00  0.00    +0.393 HD
ENDBRANCH  24  25
TORSDOF 5
ENDMDL
MODEL 2
REMARK VINA RESULT:      -6.1      3.639      5.662
REMARK  Name = ZINC95486316
REMARK  8 active torsions:
REMARK  status: ('A' for Active; 'I' for Inactive)
REMARK    1  A    between atoms: C1_1  and  C2_2
REMARK    2  A    between atoms: C7_8  and  C12_16
REMARK    3  A    between atoms: C8_9  and  O1_15
REMARK    4  A    between atoms: C10_11  and  C11_14
REMARK    5  A    between atoms: C17_21  and  O4_29
REMARK    6  A    between atoms: C19_23  and  O3_27
REMARK    7  A    between atoms: C21_25  and  O2_26
REMARK    8  A    between atoms: O3_27  and  C22_28
REMARK                            x       y       z     vdW  Elec       q    Type
REMARK                         _______ _______ _______ _____ _____    ______ ____
ROOT
ATOM      1  C   UNL     1      52.790  21.235  21.437  0.00  0.00    +0.094 C 
ATOM      2  C   UNL     1      51.351  21.226  20.917  0.00  0.00    +0.167 C 
ATOM      3  C   UNL     1      50.390  21.548  22.062  0.00  0.00    +0.132 C 
ATOM      4  C   UNL     1      48.968  21.320  21.614  0.00  0.00    -0.075 A 
ATOM      5  C   UNL     1      47.941  21.873  22.365  0.00  0.00    +0.030 A 
ATOM      6  C   UNL     1      46.625  21.689  21.997  0.00  0.00    +0.081 A 
ATOM      7  C   UNL     1      46.323  20.940  20.861  0.00  0.00    -0.026 A 
ATOM     24  C   UNL     1      47.359  20.384  20.106  0.00  0.00    +0.143 A 
ATOM     27  C   UNL     1      48.681  20.579  20.486  0.00  0.00    -0.154 A 
ATOM     28  C   UNL     1      49.768  19.970  19.640  0.00  0.00    +0.236 C 
ATOM     29  C   UNL     1      49.980  20.832  18.394  0.00  0.00    +0.093 C 
ATOM     30  N   UNL     1      51.025  19.893  20.388  0.00  0.00    -0.501 N 
ATOM     31  H   UNL     1      50.921  19.242  21.151  0.00  0.00    +0.430 HD
ATOM     32  H   UNL     1      51.765  19.582  19.777  0.00  0.00    +0.432 HD
ENDROOT
BRANCH   7   8
ATOM      8  C   UNL     1      44.914  20.734  20.458  0.00  0.00    -0.133 A 
ATOM      9  C   UNL     1      44.157  19.681  21.024  0.00  0.00    +0.037 A 
ATOM     10  C   UNL     1      44.721  18.814  21.973  0.00  0.00    -0.011 A 
ATOM     11  C   UNL     1      43.972  17.807  22.505  0.00  0.00    +0.062 A 
ATOM     12  C   UNL     1      42.647  17.620  22.121  0.00  0.00    -0.026 A 
ATOM     13  C   UNL     1      42.060  18.450  21.192  0.00  0.00    +0.157 A 
ATOM     16  C   UNL     1      42.811  19.499  20.627  0.00  0.00    -0.111 A 
ATOM     17  C   UNL     1      42.242  20.369  19.674  0.00  0.00    +0.194 A 
ATOM     20  C   UNL     1      42.997  21.387  19.136  0.00  0.00    -0.121 A 
ATOM     21  C   UNL     1      44.322  21.577  19.524  0.00  0.00    +0.182 A 
BRANCH  13  14
ATOM     14  O   UNL     1      40.766  18.258  20.824  0.00  0.00    -0.479 OA
ATOM     15  H   UNL     1      40.199  19.028  20.965  0.00  0.00    +0.397 HD
ENDBRANCH  13  14
BRANCH  17  18
ATOM     18  O   UNL     1      40.952  20.202  19.286  0.00  0.00    -0.288 OA
ATOM     19  C   UNL     1      40.219  21.380  18.946  0.00  0.00    +0.251 C 
ENDBRANCH  17  18
BRANCH  21  22
ATOM     22  O   UNL     1      45.044  22.592  18.983  0.00  0.00    -0.490 OA
ATOM     23  H   UNL     1      45.637  22.316  18.271  0.00  0.00    +0.389 HD
ENDBRANCH  21  22
ENDBRANCH   7   8
BRANCH  24  25
ATOM     25  O   UNL     1      47.073  19.653  18.997  0.00  0.00    -0.484 OA
ATOM     26  H   UNL     1      47.684  19.798  18.261  0.00  0.00    +0.393 HD
ENDBRANCH  24  25
TORSDOF 5
ENDMDL
MODEL 3
REMARK VINA RESULT:      -6.1      1.265      2.901
REMARK  Name = ZINC95486316
REMARK  8 active torsions:
REMARK  status: ('A' for Active; 'I' for Inactive)
REMARK    1  A    between atoms: C1_1  and  C2_2
REMARK    2  A    between atoms: C7_8  and  C12_16
REMARK    3  A    between atoms: C8_9  and  O1_15
REMARK    4  A    between atoms: C10_11  and  C11_14
REMARK    5  A    between atoms: C17_21  and  O4_29
REMARK    6  A    between atoms: C19_23  and  O3_27
REMARK    7  A    between atoms: C21_25  and  O2_26
REMARK    8  A    between atoms: O3_27  and  C22_28
REMARK                            x       y       z     vdW  Elec       q    Type
REMARK                         _______ _______ _______ _____ _____    ______ ____
ROOT
ATOM      1  C   UNL     1      46.634  12.159  17.917  0.00  0.00    +0.094 C 
ATOM      2  C   UNL     1      46.691  13.666  18.177  0.00  0.00    +0.167 C 
ATOM      3  C   UNL     1      45.700  14.033  19.282  0.00  0.00    +0.132 C 
ATOM      4  C   UNL     1      45.585  15.534  19.387  0.00  0.00    -0.075 A 
ATOM      5  C   UNL     1      45.019  16.076  20.531  0.00  0.00    +0.030 A 
ATOM      6  C   UNL     1      44.890  17.441  20.671  0.00  0.00    +0.081 A 
ATOM      7  C   UNL     1      45.331  18.285  19.653  0.00  0.00    -0.026 A 
ATOM     24  C   UNL     1      45.901  17.737  18.502  0.00  0.00    +0.143 A 
ATOM     27  C   UNL     1      46.027  16.360  18.374  0.00  0.00    -0.154 A 
ATOM     28  C   UNL     1      46.656  15.810  17.120  0.00  0.00    +0.236 C 
ATOM     29  C   UNL     1      48.176  15.959  17.210  0.00  0.00    +0.093 C 
ATOM     30  N   UNL     1      46.324  14.393  16.952  0.00  0.00    -0.501 N 
ATOM     31  H   UNL     1      45.333  14.298  16.787  0.00  0.00    +0.430 HD
ATOM     32  H   UNL     1      46.835  14.015  16.169  0.00  0.00    +0.432 HD
ENDROOT
BRANCH   7   8
ATOM      8  C   UNL     1      45.195  19.753  19.792  0.00  0.00    -0.133 A 
ATOM      9  C   UNL     1      46.099  20.479  20.603  0.00  0.00    +0.037 A 
ATOM     10  C   UNL     1      47.137  19.829  21.288  0.00  0.00    -0.011 A 
ATOM     11  C   UNL     1      47.997  20.550  22.063  0.00  0.00    +0.062 A 
ATOM     12  C   UNL     1      47.863  21.930  22.188  0.00  0.00    -0.026 A 
ATOM     13  C   UNL     1      46.857  22.602  21.530  0.00  0.00    +0.157 A 
ATOM     16  C   UNL     1      45.955  21.882  20.723  0.00  0.00    -0.111 A 
ATOM     17  C   UNL     1      44.914  22.536  20.034  0.00  0.00    +0.194 A 
ATOM     20  C   UNL     1      44.045  21.809  19.250  0.00  0.00    -0.121 A 
ATOM     21  C   UNL     1      44.182  20.428  19.122  0.00  0.00    +0.182 A 
BRANCH  13  14
ATOM     14  O   UNL     1      46.735  23.949  21.659  0.00  0.00    -0.479 OA
ATOM     15  H   UNL     1      46.867  24.436  20.835  0.00  0.00    +0.397 HD
ENDBRANCH  13  14
BRANCH  17  18
ATOM     18  O   UNL     1      44.766  23.881  20.143  0.00  0.00    -0.288 OA
ATOM     19  C   UNL     1      44.486  24.603  18.942  0.00  0.00    +0.251 C 
ENDBRANCH  17  18
BRANCH  21  22
ATOM     22  O   UNL     1      43.315  19.735  18.339  0.00  0.00    -0.490 OA
ATOM     23  H   UNL     1      42.808  19.063  18.814  0.00  0.00    +0.389 HD
ENDBRANCH  21  22
ENDBRANCH   7   8
BRANCH  24  25
ATOM     25  O   UNL     1      46.333  18.553  17.505  0.00  0.00    -0.484 OA
ATOM     26  H   UNL     1      45.697  19.234  17.249  0.00  0.00    +0.393 HD
ENDBRANCH  24  25
TORSDOF 5
ENDMDL
MODEL 4
REMARK VINA RESULT:      -5.9      3.599      5.184
REMARK  Name = ZINC95486316
REMARK  8 active torsions:
REMARK  status: ('A' for Active; 'I' for Inactive)
REMARK    1  A    between atoms: C1_1  and  C2_2
REMARK    2  A    between atoms: C7_8  and  C12_16
REMARK    3  A    between atoms: C8_9  and  O1_15
REMARK    4  A    between atoms: C10_11  and  C11_14
REMARK    5  A    between atoms: C17_21  and  O4_29
REMARK    6  A    between atoms: C19_23  and  O3_27
REMARK    7  A    between atoms: C21_25  and  O2_26
REMARK    8  A    between atoms: O3_27  and  C22_28
REMARK                            x       y       z     vdW  Elec       q    Type
REMARK                         _______ _______ _______ _____ _____    ______ ____
ROOT
ATOM      1  C   UNL     1      52.591  20.520  21.567  0.00  0.00    +0.094 C 
ATOM      2  C   UNL     1      51.168  20.675  21.025  0.00  0.00    +0.167 C 
ATOM      3  C   UNL     1      50.178  20.720  22.188  0.00  0.00    +0.132 C 
ATOM      4  C   UNL     1      48.767  20.644  21.661  0.00  0.00    -0.075 A 
ATOM      5  C   UNL     1      47.725  21.013  22.501  0.00  0.00    +0.030 A 
ATOM      6  C   UNL     1      46.419  20.957  22.065  0.00  0.00    +0.081 A 
ATOM      7  C   UNL     1      46.140  20.525  20.769  0.00  0.00    -0.026 A 
ATOM     24  C   UNL     1      47.190  20.154  19.925  0.00  0.00    +0.143 A 
ATOM     27  C   UNL     1      48.503  20.217  20.376  0.00  0.00    -0.154 A 
ATOM     28  C   UNL     1      49.606  19.816  19.432  0.00  0.00    +0.236 C 
ATOM     29  C   UNL     1      49.869  20.959  18.449  0.00  0.00    +0.093 C 
ATOM     30  N   UNL     1      50.838  19.525  20.168  0.00  0.00    -0.501 N 
ATOM     31  H   UNL     1      50.701  18.706  20.740  0.00  0.00    +0.430 HD
ATOM     32  H   UNL     1      51.592  19.362  19.517  0.00  0.00    +0.432 HD
ENDROOT
BRANCH   7   8
ATOM      8  C   UNL     1      44.741  20.459  20.291  0.00  0.00    -0.133 A 
ATOM      9  C   UNL     1      44.108  21.616  19.777  0.00  0.00    +0.037 A 
ATOM     10  C   UNL     1      44.787  22.842  19.709  0.00  0.00    -0.011 A 
ATOM     11  C   UNL     1      44.157  23.942  19.208  0.00  0.00    +0.062 A 
ATOM     12  C   UNL     1      42.841  23.872  18.760  0.00  0.00    -0.026 A 
ATOM     13  C   UNL     1      42.142  22.686  18.812  0.00  0.00    +0.157 A 
ATOM     16  C   UNL     1      42.770  21.534  19.323  0.00  0.00    -0.111 A 
ATOM     17  C   UNL     1      42.086  20.302  19.390  0.00  0.00    +0.194 A 
ATOM     20  C   UNL     1      42.722  19.190  19.893  0.00  0.00    -0.121 A 
ATOM     21  C   UNL     1      44.041  19.260  20.339  0.00  0.00    +0.182 A 
BRANCH  13  14
ATOM     14  O   UNL     1      40.859  22.629  18.372  0.00  0.00    -0.479 OA
ATOM     15  H   UNL     1      40.254  22.183  18.980  0.00  0.00    +0.397 HD
ENDBRANCH  13  14
BRANCH  17  18
ATOM     18  O   UNL     1      40.802  20.214  18.958  0.00  0.00    -0.288 OA
ATOM     19  C   UNL     1      40.558  19.401  17.809  0.00  0.00    +0.251 C 
ENDBRANCH  17  18
BRANCH  21  22
ATOM     22  O   UNL     1      44.647  18.146  20.827  0.00  0.00    -0.490 OA
ATOM     23  H   UNL     1      44.079  17.607  21.394  0.00  0.00    +0.389 HD
ENDBRANCH  21  22
ENDBRANCH   7   8
BRANCH  24  25
ATOM     25  O   UNL     1      46.927  19.732  18.661  0.00  0.00    -0.484 OA
ATOM     26  H   UNL     1      47.195  20.357  17.973  0.00  0.00    +0.393 HD
ENDBRANCH  24  25
TORSDOF 5
ENDMDL
MODEL 5
REMARK VINA RESULT:      -5.8      3.761      6.672
REMARK  Name = ZINC95486316
REMARK  8 active torsions:
REMARK  status: ('A' for Active; 'I' for Inactive)
REMARK    1  A    between atoms: C1_1  and  C2_2
REMARK    2  A    between atoms: C7_8  and  C12_16
REMARK    3  A    between atoms: C8_9  and  O1_15
REMARK    4  A    between atoms: C10_11  and  C11_14
REMARK    5  A    between atoms: C17_21  and  O4_29
REMARK    6  A    between atoms: C19_23  and  O3_27
REMARK    7  A    between atoms: C21_25  and  O2_26
REMARK    8  A    between atoms: O3_27  and  C22_28
REMARK                            x       y       z     vdW  Elec       q    Type
REMARK                         _______ _______ _______ _____ _____    ______ ____
ROOT
ATOM      1  C   UNL     1      41.161  18.825  21.699  0.00  0.00    +0.094 C 
ATOM      2  C   UNL     1      42.446  18.866  20.870  0.00  0.00    +0.167 C 
ATOM      3  C   UNL     1      43.544  18.077  21.585  0.00  0.00    +0.132 C 
ATOM      4  C   UNL     1      44.865  18.299  20.894  0.00  0.00    -0.075 A 
ATOM      5  C   UNL     1      45.907  17.423  21.160  0.00  0.00    +0.030 A 
ATOM      6  C   UNL     1      47.135  17.587  20.554  0.00  0.00    +0.081 A 
ATOM      7  C   UNL     1      47.332  18.644  19.667  0.00  0.00    -0.026 A 
ATOM     24  C   UNL     1      46.282  19.526  19.401  0.00  0.00    +0.143 A 
ATOM     27  C   UNL     1      45.049  19.348  20.016  0.00  0.00    -0.154 A 
ATOM     28  C   UNL     1      43.940  20.315  19.694  0.00  0.00    +0.236 C 
ATOM     29  C   UNL     1      43.335  19.956  18.335  0.00  0.00    +0.093 C 
ATOM     30  N   UNL     1      42.890  20.259  20.715  0.00  0.00    -0.501 N 
ATOM     31  H   UNL     1      43.258  20.596  21.591  0.00  0.00    +0.430 HD
ATOM     32  H   UNL     1      42.110  20.833  20.432  0.00  0.00    +0.432 HD
ENDROOT
BRANCH   7   8
ATOM      8  C   UNL     1      48.647  18.832  19.013  0.00  0.00    -0.133 A 
ATOM      9  C   UNL     1      49.613  19.690  19.590  0.00  0.00    +0.037 A 
ATOM     10  C   UNL     1      49.350  20.376  20.786  0.00  0.00    -0.011 A 
ATOM     11  C   UNL     1      50.298  21.197  21.322  0.00  0.00    +0.062 A 
ATOM     12  C   UNL     1      51.532  21.368  20.702  0.00  0.00    -0.026 A 
ATOM     13  C   UNL     1      51.826  20.712  19.527  0.00  0.00    +0.157 A 
ATOM     16  C   UNL     1      50.865  19.858  18.951  0.00  0.00    -0.111 A 
ATOM     17  C   UNL     1      51.132  19.168  17.750  0.00  0.00    +0.194 A 
ATOM     20  C   UNL     1      50.177  18.338  17.208  0.00  0.00    -0.121 A 
ATOM     21  C   UNL     1      48.942  18.164  17.832  0.00  0.00    +0.182 A 
BRANCH  13  14
ATOM     14  O   UNL     1      53.033  20.886  18.929  0.00  0.00    -0.479 OA
ATOM     15  H   UNL     1      53.529  20.067  18.797  0.00  0.00    +0.397 HD
ENDBRANCH  13  14
BRANCH  17  18
ATOM     18  O   UNL     1      52.329  19.323  17.130  0.00  0.00    -0.288 OA
ATOM     19  C   UNL     1      52.302  19.666  15.743  0.00  0.00    +0.251 C 
ENDBRANCH  17  18
BRANCH  21  22
ATOM     22  O   UNL     1      48.019  17.336  17.278  0.00  0.00    -0.490 OA
ATOM     23  H   UNL     1      47.648  16.691  17.897  0.00  0.00    +0.389 HD
ENDBRANCH  21  22
ENDBRANCH   7   8
BRANCH  24  25
ATOM     25  O   UNL     1      46.465  20.559  18.538  0.00  0.00    -0.484 OA
ATOM     26  H   UNL     1      46.389  21.432  18.946  0.00  0.00    +0.393 HD
ENDBRANCH  24  25
TORSDOF 5
ENDMDL
MODEL 6
REMARK VINA RESULT:      -5.8      3.655      6.400
REMARK  Name = ZINC95486316
REMARK  8 active torsions:
REMARK  status: ('A' for Active; 'I' for Inactive)
REMARK    1  A    between atoms: C1_1  and  C2_2
REMARK    2  A    between atoms: C7_8  and  C12_16
REMARK    3  A    between atoms: C8_9  and  O1_15
REMARK    4  A    between atoms: C10_11  and  C11_14
REMARK    5  A    between atoms: C17_21  and  O4_29
REMARK    6  A    between atoms: C19_23  and  O3_27
REMARK    7  A    between atoms: C21_25  and  O2_26
REMARK    8  A    between atoms: O3_27  and  C22_28
REMARK                            x       y       z     vdW  Elec       q    Type
REMARK                         _______ _______ _______ _____ _____    ______ ____
ROOT
ATOM      1  C   UNL     1      40.840  18.693  21.328  0.00  0.00    +0.094 C 
ATOM      2  C   UNL     1      42.250  18.902  20.771  0.00  0.00    +0.167 C 
ATOM      3  C   UNL     1      43.277  18.318  21.742  0.00  0.00    +0.132 C 
ATOM      4  C   UNL     1      44.668  18.716  21.315  0.00  0.00    -0.075 A 
ATOM      5  C   UNL     1      45.747  18.020  21.841  0.00  0.00    +0.030 A 
ATOM      6  C   UNL     1      47.036  18.351  21.483  0.00  0.00    +0.081 A 
ATOM      7  C   UNL     1      47.260  19.394  20.586  0.00  0.00    -0.026 A 
ATOM     24  C   UNL     1      46.172  20.093  20.058  0.00  0.00    +0.143 A 
ATOM     27  C   UNL     1      44.877  19.749  20.424  0.00  0.00    -0.154 A 
ATOM     28  C   UNL     1      43.731  20.523  19.825  0.00  0.00    +0.236 C 
ATOM     29  C   UNL     1      43.479  20.027  18.399  0.00  0.00    +0.093 C 
ATOM     30  N   UNL     1      42.512  20.341  20.617  0.00  0.00    -0.501 N 
ATOM     31  H   UNL     1      42.637  20.762  21.525  0.00  0.00    +0.430 HD
ATOM     32  H   UNL     1      41.734  20.778  20.146  0.00  0.00    +0.432 HD
ENDROOT
BRANCH   7   8
ATOM      8  C   UNL     1      48.640  19.759  20.197  0.00  0.00    -0.133 A 
ATOM      9  C   UNL     1      49.253  19.140  19.082  0.00  0.00    +0.037 A 
ATOM     10  C   UNL     1      48.572  18.174  18.326  0.00  0.00    -0.011 A 
ATOM     11  C   UNL     1      49.183  17.592  17.255  0.00  0.00    +0.062 A 
ATOM     12  C   UNL     1      50.482  17.941  16.895  0.00  0.00    -0.026 A 
ATOM     13  C   UNL     1      51.182  18.884  17.613  0.00  0.00    +0.157 A 
ATOM     16  C   UNL     1      50.574  19.501  18.724  0.00  0.00    -0.111 A 
ATOM     17  C   UNL     1      51.260  20.473  19.481  0.00  0.00    +0.194 A 
ATOM     20  C   UNL     1      50.643  21.062  20.562  0.00  0.00    -0.121 A 
ATOM     21  C   UNL     1      49.341  20.715  20.920  0.00  0.00    +0.182 A 
BRANCH  13  14
ATOM     14  O   UNL     1      52.448  19.217  17.253  0.00  0.00    -0.479 OA
ATOM     15  H   UNL     1      52.937  19.699  17.934  0.00  0.00    +0.397 HD
ENDBRANCH  13  14
BRANCH  17  18
ATOM     18  O   UNL     1      52.527  20.826  19.146  0.00  0.00    -0.288 OA
ATOM     19  C   UNL     1      53.117  21.900  19.881  0.00  0.00    +0.251 C 
ENDBRANCH  17  18
BRANCH  21  22
ATOM     22  O   UNL     1      48.754  21.316  21.988  0.00  0.00    -0.490 OA
ATOM     23  H   UNL     1      48.169  20.734  22.492  0.00  0.00    +0.389 HD
ENDBRANCH  21  22
ENDBRANCH   7   8
BRANCH  24  25
ATOM     25  O   UNL     1      46.380  21.111  19.183  0.00  0.00    -0.484 OA
ATOM     26  H   UNL     1      47.282  21.462  19.193  0.00  0.00    +0.393 HD
ENDBRANCH  24  25
TORSDOF 5
ENDMDL
MODEL 7
REMARK VINA RESULT:      -5.7      3.402      4.834
REMARK  Name = ZINC95486316
REMARK  8 active torsions:
REMARK  status: ('A' for Active; 'I' for Inactive)
REMARK    1  A    between atoms: C1_1  and  C2_2
REMARK    2  A    between atoms: C7_8  and  C12_16
REMARK    3  A    between atoms: C8_9  and  O1_15
REMARK    4  A    between atoms: C10_11  and  C11_14
REMARK    5  A    between atoms: C17_21  and  O4_29
REMARK    6  A    between atoms: C19_23  and  O3_27
REMARK    7  A    between atoms: C21_25  and  O2_26
REMARK    8  A    between atoms: O3_27  and  C22_28
REMARK                            x       y       z     vdW  Elec       q    Type
REMARK                         _______ _______ _______ _____ _____    ______ ____
ROOT
ATOM      1  C   UNL     1      54.067  16.285  19.350  0.00  0.00    +0.094 C 
ATOM      2  C   UNL     1      52.845  17.194  19.493  0.00  0.00    +0.167 C 
ATOM      3  C   UNL     1      51.615  16.351  19.830  0.00  0.00    +0.132 C 
ATOM      4  C   UNL     1      50.373  17.204  19.749  0.00  0.00    -0.075 A 
ATOM      5  C   UNL     1      49.210  16.737  20.344  0.00  0.00    +0.030 A 
ATOM      6  C   UNL     1      48.049  17.479  20.293  0.00  0.00    +0.081 A 
ATOM      7  C   UNL     1      48.044  18.710  19.639  0.00  0.00    -0.026 A 
ATOM     24  C   UNL     1      49.217  19.179  19.042  0.00  0.00    +0.143 A 
ATOM     27  C   UNL     1      50.380  18.422  19.101  0.00  0.00    -0.154 A 
ATOM     28  C   UNL     1      51.625  18.967  18.452  0.00  0.00    +0.236 C 
ATOM     29  C   UNL     1      52.247  20.027  19.363  0.00  0.00    +0.093 C 
ATOM     30  N   UNL     1      52.602  17.899  18.225  0.00  0.00    -0.501 N 
ATOM     31  H   UNL     1      52.238  17.252  17.543  0.00  0.00    +0.430 HD
ATOM     32  H   UNL     1      53.466  18.296  17.888  0.00  0.00    +0.432 HD
ENDROOT
BRANCH   7   8
ATOM      8  C   UNL     1      46.803  19.515  19.577  0.00  0.00    -0.133 A 
ATOM      9  C   UNL     1      46.589  20.566  20.500  0.00  0.00    +0.037 A 
ATOM     10  C   UNL     1      47.540  20.868  21.487  0.00  0.00    -0.011 A 
ATOM     11  C   UNL     1      47.312  21.886  22.364  0.00  0.00    +0.062 A 
ATOM     12  C   UNL     1      46.142  22.639  22.299  0.00  0.00    -0.026 A 
ATOM     13  C   UNL     1      45.186  22.372  21.345  0.00  0.00    +0.157 A 
ATOM     16  C   UNL     1      45.397  21.326  20.425  0.00  0.00    -0.111 A 
ATOM     17  C   UNL     1      44.440  21.026  19.434  0.00  0.00    +0.194 A 
ATOM     20  C   UNL     1      44.670  19.998  18.546  0.00  0.00    -0.121 A 
ATOM     21  C   UNL     1      45.843  19.247  18.609  0.00  0.00    +0.182 A 
BRANCH  13  14
ATOM     14  O   UNL     1      44.049  23.112  21.290  0.00  0.00    -0.479 OA
ATOM     15  H   UNL     1      44.201  24.059  21.168  0.00  0.00    +0.397 HD
ENDBRANCH  13  14
BRANCH  17  18
ATOM     18  O   UNL     1      43.294  21.748  19.355  0.00  0.00    -0.288 OA
ATOM     19  C   UNL     1      42.117  21.053  18.937  0.00  0.00    +0.251 C 
ENDBRANCH  17  18
BRANCH  21  22
ATOM     22  O   UNL     1      46.048  18.242  17.718  0.00  0.00    -0.490 OA
ATOM     23  H   UNL     1      45.246  17.755  17.485  0.00  0.00    +0.389 HD
ENDBRANCH  21  22
ENDBRANCH   7   8
BRANCH  24  25
ATOM     25  O   UNL     1      49.220  20.377  18.402  0.00  0.00    -0.484 OA
ATOM     26  H   UNL     1      49.909  20.984  18.706  0.00  0.00    +0.393 HD
ENDBRANCH  24  25
TORSDOF 5
ENDMDL
MODEL 8
REMARK VINA RESULT:      -5.7      2.772      7.643
REMARK  Name = ZINC95486316
REMARK  8 active torsions:
REMARK  status: ('A' for Active; 'I' for Inactive)
REMARK    1  A    between atoms: C1_1  and  C2_2
REMARK    2  A    between atoms: C7_8  and  C12_16
REMARK    3  A    between atoms: C8_9  and  O1_15
REMARK    4  A    between atoms: C10_11  and  C11_14
REMARK    5  A    between atoms: C17_21  and  O4_29
REMARK    6  A    between atoms: C19_23  and  O3_27
REMARK    7  A    between atoms: C21_25  and  O2_26
REMARK    8  A    between atoms: O3_27  and  C22_28
REMARK                            x       y       z     vdW  Elec       q    Type
REMARK                         _______ _______ _______ _____ _____    ______ ____
ROOT
ATOM      1  C   UNL     1      45.463  23.763  21.039  0.00  0.00    +0.094 C 
ATOM      2  C   UNL     1      45.529  22.314  20.552  0.00  0.00    +0.167 C 
ATOM      3  C   UNL     1      46.898  21.722  20.889  0.00  0.00    +0.132 C 
ATOM      4  C   UNL     1      47.054  20.380  20.217  0.00  0.00    -0.075 A 
ATOM      5  C   UNL     1      48.056  19.530  20.661  0.00  0.00    +0.030 A 
ATOM      6  C   UNL     1      48.239  18.295  20.076  0.00  0.00    +0.081 A 
ATOM      7  C   UNL     1      47.410  17.897  19.029  0.00  0.00    -0.026 A 
ATOM     24  C   UNL     1      46.401  18.754  18.584  0.00  0.00    +0.143 A 
ATOM     27  C   UNL     1      46.226  19.995  19.183  0.00  0.00    -0.154 A 
ATOM     28  C   UNL     1      45.120  20.886  18.679  0.00  0.00    +0.236 C 
ATOM     29  C   UNL     1      43.784  20.403  19.247  0.00  0.00    +0.093 C 
ATOM     30  N   UNL     1      45.343  22.273  19.094  0.00  0.00    -0.501 N 
ATOM     31  H   UNL     1      46.168  22.632  18.638  0.00  0.00    +0.430 HD
ATOM     32  H   UNL     1      44.544  22.836  18.840  0.00  0.00    +0.432 HD
ENDROOT
BRANCH   7   8
ATOM      8  C   UNL     1      47.599  16.574  18.392  0.00  0.00    -0.133 A 
ATOM      9  C   UNL     1      46.798  15.475  18.782  0.00  0.00    +0.037 A 
ATOM     10  C   UNL     1      45.814  15.612  19.774  0.00  0.00    -0.011 A 
ATOM     11  C   UNL     1      45.054  14.539  20.132  0.00  0.00    +0.062 A 
ATOM     12  C   UNL     1      45.237  13.298  19.528  0.00  0.00    -0.026 A 
ATOM     13  C   UNL     1      46.192  13.125  18.552  0.00  0.00    +0.157 A 
ATOM     16  C   UNL     1      46.991  14.217  18.162  0.00  0.00    -0.111 A 
ATOM     17  C   UNL     1      47.978  14.077  17.164  0.00  0.00    +0.194 A 
ATOM     20  C   UNL     1      48.745  15.161  16.800  0.00  0.00    -0.121 A 
ATOM     21  C   UNL     1      48.559  16.404  17.403  0.00  0.00    +0.182 A 
BRANCH  13  14
ATOM     14  O   UNL     1      46.363  11.910  17.969  0.00  0.00    -0.479 OA
ATOM     15  H   UNL     1      47.248  11.538  18.085  0.00  0.00    +0.397 HD
ENDBRANCH  13  14
BRANCH  17  18
ATOM     18  O   UNL     1      48.172  12.875  16.564  0.00  0.00    -0.288 OA
ATOM     19  C   UNL     1      48.247  12.867  15.137  0.00  0.00    +0.251 C 
ENDBRANCH  17  18
BRANCH  21  22
ATOM     22  O   UNL     1      49.326  17.458  17.022  0.00  0.00    -0.490 OA
ATOM     23  H   UNL     1      50.222  17.444  17.386  0.00  0.00    +0.389 HD
ENDBRANCH  21  22
ENDBRANCH   7   8
BRANCH  24  25
ATOM     25  O   UNL     1      45.589  18.374  17.563  0.00  0.00    -0.484 OA
ATOM     26  H   UNL     1      44.829  17.843  17.841  0.00  0.00    +0.393 HD
ENDBRANCH  24  25
TORSDOF 5
ENDMDL
MODEL 9
REMARK VINA RESULT:      -5.5      5.595      6.818
REMARK  Name = ZINC95486316
REMARK  8 active torsions:
REMARK  status: ('A' for Active; 'I' for Inactive)
REMARK    1  A    between atoms: C1_1  and  C2_2
REMARK    2  A    between atoms: C7_8  and  C12_16
REMARK    3  A    between atoms: C8_9  and  O1_15
REMARK    4  A    between atoms: C10_11  and  C11_14
REMARK    5  A    between atoms: C17_21  and  O4_29
REMARK    6  A    between atoms: C19_23  and  O3_27
REMARK    7  A    between atoms: C21_25  and  O2_26
REMARK    8  A    between atoms: O3_27  and  C22_28
REMARK                            x       y       z     vdW  Elec       q    Type
REMARK                         _______ _______ _______ _____ _____    ______ ____
ROOT
ATOM      1  C   UNL     1      47.105  11.691  14.775  0.00  0.00    +0.094 C 
ATOM      2  C   UNL     1      47.628  12.980  15.414  0.00  0.00    +0.167 C 
ATOM      3  C   UNL     1      49.126  12.845  15.688  0.00  0.00    +0.132 C 
ATOM      4  C   UNL     1      49.601  14.012  16.517  0.00  0.00    -0.075 A 
ATOM      5  C   UNL     1      50.963  14.266  16.584  0.00  0.00    +0.030 A 
ATOM      6  C   UNL     1      51.445  15.320  17.331  0.00  0.00    +0.081 A 
ATOM      7  C   UNL     1      50.556  16.137  18.028  0.00  0.00    -0.026 A 
ATOM     24  C   UNL     1      49.184  15.879  17.959  0.00  0.00    +0.143 A 
ATOM     27  C   UNL     1      48.712  14.816  17.200  0.00  0.00    -0.154 A 
ATOM     28  C   UNL     1      47.225  14.578  17.146  0.00  0.00    +0.236 C 
ATOM     29  C   UNL     1      46.589  15.576  16.176  0.00  0.00    +0.093 C 
ATOM     30  N   UNL     1      46.934  13.216  16.689  0.00  0.00    -0.501 N 
ATOM     31  H   UNL     1      47.259  12.555  17.378  0.00  0.00    +0.430 HD
ATOM     32  H   UNL     1      45.940  13.107  16.558  0.00  0.00    +0.432 HD
ENDROOT
BRANCH   7   8
ATOM      8  C   UNL     1      51.061  17.269  18.836  0.00  0.00    -0.133 A 
ATOM      9  C   UNL     1      51.354  18.509  18.219  0.00  0.00    +0.037 A 
ATOM     10  C   UNL     1      51.173  18.692  16.840  0.00  0.00    -0.011 A 
ATOM     11  C   UNL     1      51.462  19.896  16.269  0.00  0.00    +0.062 A 
ATOM     12  C   UNL     1      51.937  20.957  17.036  0.00  0.00    -0.026 A 
ATOM     13  C   UNL     1      52.127  20.815  18.392  0.00  0.00    +0.157 A 
ATOM     16  C   UNL     1      51.837  19.581  19.008  0.00  0.00    -0.111 A 
ATOM     17  C   UNL     1      52.018  19.400  20.394  0.00  0.00    +0.194 A 
ATOM     20  C   UNL     1      51.726  18.185  20.972  0.00  0.00    -0.121 A 
ATOM     21  C   UNL     1      51.247  17.124  20.205  0.00  0.00    +0.182 A 
BRANCH  13  14
ATOM     14  O   UNL     1      52.591  21.856  19.131  0.00  0.00    -0.479 OA
ATOM     15  H   UNL     1      52.390  22.724  18.757  0.00  0.00    +0.397 HD
ENDBRANCH  13  14
BRANCH  17  18
ATOM     18  O   UNL     1      52.481  20.422  21.158  0.00  0.00    -0.288 OA
ATOM     19  C   UNL     1      52.961  20.091  22.463  0.00  0.00    +0.251 C 
ENDBRANCH  17  18
BRANCH  21  22
ATOM     22  O   UNL     1      50.961  15.937  20.800  0.00  0.00    -0.490 OA
ATOM     23  H   UNL     1      51.168  15.912  21.745  0.00  0.00    +0.389 HD
ENDBRANCH  21  22
ENDBRANCH   7   8
BRANCH  24  25
ATOM     25  O   UNL     1      48.310  16.670  18.635  0.00  0.00    -0.484 OA
ATOM     26  H   UNL     1      48.451  17.618  18.499  0.00  0.00    +0.393 HD
ENDBRANCH  24  25
TORSDOF 5
ENDMDL
