MODEL 1
REMARK VINA RESULT:      -7.0      0.000      0.000
REMARK  Name = ZINC14642669
REMARK  13 active torsions:
REMARK  status: ('A' for Active; 'I' for Inactive)
REMARK    1  A    between atoms: C1_1  and  O1_2
REMARK    2  A    between atoms: O1_2  and  C2_3
REMARK    3  A    between atoms: C4_5  and  C9_12
REMARK    4  A    between atoms: C6_7  and  O3_10
REMARK    5  A    between atoms: C7_8  and  O2_9
REMARK    6  A    between atoms: O3_10  and  C8_11
REMARK    7  A    between atoms: C9_12  and  O5_14
REMARK    8  A    between atoms: O5_14  and  C10_15
REMARK    9  A    between atoms: C13_19  and  O10_36
REMARK   10  A    between atoms: C15_21  and  O9_35
REMARK   11  A    between atoms: C18_25  and  C19_27
REMARK   12  A    between atoms: C22_30  and  O8_34
REMARK   13  A    between atoms: C23_31  and  O7_33
REMARK                            x       y       z     vdW  Elec       q    Type
REMARK                         _______ _______ _______ _____ _____    ______ ____
ROOT
ATOM      8  C   UNL     1      47.707  17.559  19.718  0.00  0.00    +0.174 C 
ATOM      9  C   UNL     1      48.570  18.616  20.410  0.00  0.00    +0.109 C 
ATOM     10  C   UNL     1      49.532  19.218  19.416  0.00  0.00    -0.194 A 
ATOM     11  C   UNL     1      50.136  20.433  19.722  0.00  0.00    +0.162 A 
ATOM     14  C   UNL     1      51.027  21.012  18.834  0.00  0.00    -0.062 A 
ATOM     15  C   UNL     1      51.317  20.379  17.634  0.00  0.00    +0.159 A 
ATOM     18  C   UNL     1      50.716  19.170  17.329  0.00  0.00    -0.040 A 
ATOM     19  C   UNL     1      49.819  18.588  18.219  0.00  0.00    +0.171 A 
ATOM     20  O   UNL     1      49.242  17.406  17.876  0.00  0.00    -0.291 OA
ATOM     21  C   UNL     1      48.630  16.636  18.912  0.00  0.00    +0.255 C 
ENDROOT
BRANCH  21  22
ATOM     22  C   UNL     1      47.824  15.518  18.304  0.00  0.00    -0.090 A 
ATOM     23  C   UNL     1      47.030  14.722  19.108  0.00  0.00    +0.068 A 
ATOM     24  C   UNL     1      46.285  13.698  18.553  0.00  0.00    +0.005 A 
ATOM     25  C   UNL     1      46.343  13.460  17.190  0.00  0.00    +0.094 A 
ATOM     28  C   UNL     1      47.147  14.257  16.380  0.00  0.00    +0.081 A 
ATOM     31  C   UNL     1      47.886  15.286  16.942  0.00  0.00    +0.023 A 
BRANCH  25  26
ATOM     26  O   UNL     1      45.615  12.449  16.643  0.00  0.00    -0.487 OA
ATOM     27  H   UNL     1      44.659  12.549  16.754  0.00  0.00    +0.391 HD
ENDBRANCH  25  26
BRANCH  28  29
ATOM     29  O   UNL     1      47.207  14.026  15.041  0.00  0.00    -0.485 OA
ATOM     30  H   UNL     1      46.974  14.793  14.499  0.00  0.00    +0.389 HD
ENDBRANCH  28  29
ENDBRANCH  21  22
BRANCH  11  12
ATOM     12  O   UNL     1      49.851  21.053  20.897  0.00  0.00    -0.491 OA
ATOM     13  H   UNL     1      50.331  21.881  21.032  0.00  0.00    +0.395 HD
ENDBRANCH  11  12
BRANCH  15  16
ATOM     16  O   UNL     1      52.192  20.944  16.761  0.00  0.00    -0.492 OA
ATOM     17  H   UNL     1      53.072  20.543  16.771  0.00  0.00    +0.397 HD
ENDBRANCH  15  16
BRANCH   8   7
ATOM      7  O   UNL     1      46.761  18.207  18.826  0.00  0.00    -0.327 OA
BRANCH   7   6
ATOM      6  C   UNL     1      45.487  18.302  19.250  0.00  0.00    +0.514 C 
ATOM     32  O   UNL     1      44.848  17.296  19.484  0.00  0.00    -0.497 OA
BRANCH   6   5
ATOM      3  C   UNL     1      45.013  21.913  20.173  0.00  0.00    +0.132 A 
ATOM      4  C   UNL     1      45.598  20.671  20.005  0.00  0.00    -0.016 A 
ATOM      5  C   UNL     1      44.867  19.628  19.431  0.00  0.00    -0.057 A 
ATOM     33  C   UNL     1      43.548  19.845  19.022  0.00  0.00    -0.021 A 
ATOM     34  C   UNL     1      42.966  21.087  19.197  0.00  0.00    +0.131 A 
ATOM     37  C   UNL     1      43.698  22.125  19.771  0.00  0.00    +0.080 A 
BRANCH   3   2
ATOM      1  C   UNL     1      46.594  22.591  21.815  0.00  0.00    +0.249 C 
ATOM      2  O   UNL     1      45.725  22.927  20.733  0.00  0.00    -0.298 OA
ENDBRANCH   3   2
BRANCH  34  35
ATOM     35  O   UNL     1      41.681  21.297  18.805  0.00  0.00    -0.298 OA
ATOM     36  C   UNL     1      40.950  20.161  18.341  0.00  0.00    +0.249 C 
ENDBRANCH  34  35
BRANCH  37  38
ATOM     38  O   UNL     1      43.126  23.346  19.937  0.00  0.00    -0.469 OA
ATOM     39  H   UNL     1      42.482  23.384  20.656  0.00  0.00    +0.390 HD
ENDBRANCH  37  38
ENDBRANCH   6   5
ENDBRANCH   7   6
ENDBRANCH   8   7
TORSDOF 11
ENDMDL
MODEL 2
REMARK VINA RESULT:      -7.0      0.664      2.342
REMARK  Name = ZINC14642669
REMARK  13 active torsions:
REMARK  status: ('A' for Active; 'I' for Inactive)
REMARK    1  A    between atoms: C1_1  and  O1_2
REMARK    2  A    between atoms: O1_2  and  C2_3
REMARK    3  A    between atoms: C4_5  and  C9_12
REMARK    4  A    between atoms: C6_7  and  O3_10
REMARK    5  A    between atoms: C7_8  and  O2_9
REMARK    6  A    between atoms: O3_10  and  C8_11
REMARK    7  A    between atoms: C9_12  and  O5_14
REMARK    8  A    between atoms: O5_14  and  C10_15
REMARK    9  A    between atoms: C13_19  and  O10_36
REMARK   10  A    between atoms: C15_21  and  O9_35
REMARK   11  A    between atoms: C18_25  and  C19_27
REMARK   12  A    between atoms: C22_30  and  O8_34
REMARK   13  A    between atoms: C23_31  and  O7_33
REMARK                            x       y       z     vdW  Elec       q    Type
REMARK                         _______ _______ _______ _____ _____    ______ ____
ROOT
ATOM      8  C   UNL     1      48.196  17.862  19.254  0.00  0.00    +0.174 C 
ATOM      9  C   UNL     1      49.147  18.974  19.702  0.00  0.00    +0.109 C 
ATOM     10  C   UNL     1      50.046  19.367  18.556  0.00  0.00    -0.194 A 
ATOM     11  C   UNL     1      50.713  20.585  18.616  0.00  0.00    +0.162 A 
ATOM     14  C   UNL     1      51.549  20.976  17.584  0.00  0.00    -0.062 A 
ATOM     15  C   UNL     1      51.722  20.148  16.484  0.00  0.00    +0.159 A 
ATOM     18  C   UNL     1      51.057  18.935  16.422  0.00  0.00    -0.040 A 
ATOM     19  C   UNL     1      50.215  18.543  17.458  0.00  0.00    +0.171 A 
ATOM     20  O   UNL     1      49.574  17.349  17.354  0.00  0.00    -0.291 OA
ATOM     21  C   UNL     1      49.020  16.782  18.542  0.00  0.00    +0.255 C 
ENDROOT
BRANCH  21  22
ATOM     22  C   UNL     1      48.131  15.619  18.182  0.00  0.00    -0.090 A 
ATOM     23  C   UNL     1      47.517  14.885  19.179  0.00  0.00    +0.068 A 
ATOM     24  C   UNL     1      46.698  13.821  18.854  0.00  0.00    +0.005 A 
ATOM     25  C   UNL     1      46.499  13.481  17.526  0.00  0.00    +0.094 A 
ATOM     28  C   UNL     1      47.120  14.217  16.521  0.00  0.00    +0.081 A 
ATOM     31  C   UNL     1      47.936  15.286  16.854  0.00  0.00    +0.023 A 
BRANCH  25  26
ATOM     26  O   UNL     1      45.696  12.432  17.204  0.00  0.00    -0.487 OA
ATOM     27  H   UNL     1      45.471  12.382  16.264  0.00  0.00    +0.391 HD
ENDBRANCH  25  26
BRANCH  28  29
ATOM     29  O   UNL     1      46.928  13.887  15.216  0.00  0.00    -0.485 OA
ATOM     30  H   UNL     1      46.080  13.455  15.040  0.00  0.00    +0.389 HD
ENDBRANCH  28  29
ENDBRANCH  21  22
BRANCH  11  12
ATOM     12  O   UNL     1      50.544  21.396  19.694  0.00  0.00    -0.491 OA
ATOM     13  H   UNL     1      51.366  21.616  20.154  0.00  0.00    +0.395 HD
ENDBRANCH  11  12
BRANCH  15  16
ATOM     16  O   UNL     1      52.543  20.527  15.470  0.00  0.00    -0.492 OA
ATOM     17  H   UNL     1      52.352  20.095  14.627  0.00  0.00    +0.397 HD
ENDBRANCH  15  16
BRANCH   8   7
ATOM      7  O   UNL     1      47.205  18.403  18.341  0.00  0.00    -0.327 OA
BRANCH   7   6
ATOM      6  C   UNL     1      45.924  18.398  18.756  0.00  0.00    +0.514 C 
ATOM     32  O   UNL     1      45.303  17.355  18.799  0.00  0.00    -0.497 OA
BRANCH   6   5
ATOM      3  C   UNL     1      43.313  21.053  19.257  0.00  0.00    +0.132 A 
ATOM      4  C   UNL     1      43.920  19.869  18.879  0.00  0.00    -0.016 A 
ATOM      5  C   UNL     1      45.273  19.660  19.157  0.00  0.00    -0.057 A 
ATOM     33  C   UNL     1      46.008  20.646  19.821  0.00  0.00    -0.021 A 
ATOM     34  C   UNL     1      45.398  21.830  20.191  0.00  0.00    +0.131 A 
ATOM     37  C   UNL     1      44.049  22.036  19.912  0.00  0.00    +0.080 A 
BRANCH   3   2
ATOM      1  C   UNL     1      41.309  20.219  18.285  0.00  0.00    +0.249 C 
ATOM      2  O   UNL     1      41.996  21.257  18.985  0.00  0.00    -0.298 OA
ENDBRANCH   3   2
BRANCH  34  35
ATOM     35  O   UNL     1      46.114  22.792  20.832  0.00  0.00    -0.298 OA
ATOM     36  C   UNL     1      46.893  22.380  21.958  0.00  0.00    +0.249 C 
ENDBRANCH  34  35
BRANCH  37  38
ATOM     38  O   UNL     1      43.450  23.198  20.282  0.00  0.00    -0.469 OA
ATOM     39  H   UNL     1      44.049  23.837  20.689  0.00  0.00    +0.390 HD
ENDBRANCH  37  38
ENDBRANCH   6   5
ENDBRANCH   7   6
ENDBRANCH   8   7
TORSDOF 11
ENDMDL
MODEL 3
REMARK VINA RESULT:      -6.7      1.986      6.606
REMARK  Name = ZINC14642669
REMARK  13 active torsions:
REMARK  status: ('A' for Active; 'I' for Inactive)
REMARK    1  A    between atoms: C1_1  and  O1_2
REMARK    2  A    between atoms: O1_2  and  C2_3
REMARK    3  A    between atoms: C4_5  and  C9_12
REMARK    4  A    between atoms: C6_7  and  O3_10
REMARK    5  A    between atoms: C7_8  and  O2_9
REMARK    6  A    between atoms: O3_10  and  C8_11
REMARK    7  A    between atoms: C9_12  and  O5_14
REMARK    8  A    between atoms: O5_14  and  C10_15
REMARK    9  A    between atoms: C13_19  and  O10_36
REMARK   10  A    between atoms: C15_21  and  O9_35
REMARK   11  A    between atoms: C18_25  and  C19_27
REMARK   12  A    between atoms: C22_30  and  O8_34
REMARK   13  A    between atoms: C23_31  and  O7_33
REMARK                            x       y       z     vdW  Elec       q    Type
REMARK                         _______ _______ _______ _____ _____    ______ ____
ROOT
ATOM      8  C   UNL     1      47.012  18.061  18.045  0.00  0.00    +0.174 C 
ATOM      9  C   UNL     1      46.305  19.418  18.018  0.00  0.00    +0.109 C 
ATOM     10  C   UNL     1      45.176  19.423  19.018  0.00  0.00    -0.194 A 
ATOM     11  C   UNL     1      44.650  20.643  19.427  0.00  0.00    +0.162 A 
ATOM     14  C   UNL     1      43.611  20.685  20.341  0.00  0.00    -0.062 A 
ATOM     15  C   UNL     1      43.093  19.504  20.853  0.00  0.00    +0.159 A 
ATOM     18  C   UNL     1      43.616  18.288  20.448  0.00  0.00    -0.040 A 
ATOM     19  C   UNL     1      44.662  18.245  19.531  0.00  0.00    +0.171 A 
ATOM     20  O   UNL     1      45.154  17.031  19.167  0.00  0.00    -0.291 OA
ATOM     21  C   UNL     1      45.946  16.960  17.981  0.00  0.00    +0.255 C 
ENDROOT
BRANCH  21  22
ATOM     22  C   UNL     1      46.613  15.611  17.897  0.00  0.00    -0.090 A 
ATOM     23  C   UNL     1      46.514  14.726  18.954  0.00  0.00    +0.068 A 
ATOM     24  C   UNL     1      47.120  13.486  18.880  0.00  0.00    +0.005 A 
ATOM     25  C   UNL     1      47.839  13.133  17.749  0.00  0.00    +0.094 A 
ATOM     28  C   UNL     1      47.943  14.026  16.687  0.00  0.00    +0.081 A 
ATOM     31  C   UNL     1      47.328  15.265  16.765  0.00  0.00    +0.023 A 
BRANCH  25  26
ATOM     26  O   UNL     1      48.440  11.915  17.676  0.00  0.00    -0.487 OA
ATOM     27  H   UNL     1      48.235  11.423  16.869  0.00  0.00    +0.391 HD
ENDBRANCH  25  26
BRANCH  28  29
ATOM     29  O   UNL     1      48.648  13.684  15.575  0.00  0.00    -0.485 OA
ATOM     30  H   UNL     1      49.606  13.762  15.676  0.00  0.00    +0.389 HD
ENDBRANCH  28  29
ENDBRANCH  21  22
BRANCH  11  12
ATOM     12  O   UNL     1      45.158  21.800  18.925  0.00  0.00    -0.491 OA
ATOM     13  H   UNL     1      44.490  22.472  18.732  0.00  0.00    +0.395 HD
ENDBRANCH  11  12
BRANCH  15  16
ATOM     16  O   UNL     1      42.072  19.542  21.749  0.00  0.00    -0.492 OA
ATOM     17  H   UNL     1      41.611  18.699  21.856  0.00  0.00    +0.397 HD
ENDBRANCH  15  16
BRANCH   8   7
ATOM      7  O   UNL     1      47.776  17.932  19.274  0.00  0.00    -0.327 OA
BRANCH   7   6
ATOM      6  C   UNL     1      49.030  18.424  19.270  0.00  0.00    +0.514 C 
ATOM     32  O   UNL     1      49.393  19.169  20.157  0.00  0.00    -0.497 OA
BRANCH   6   5
ATOM      3  C   UNL     1      51.480  18.707  16.436  0.00  0.00    +0.132 A 
ATOM      4  C   UNL     1      50.606  19.054  17.450  0.00  0.00    -0.016 A 
ATOM      5  C   UNL     1      49.962  18.057  18.187  0.00  0.00    -0.057 A 
ATOM     33  C   UNL     1      50.207  16.712  17.900  0.00  0.00    -0.021 A 
ATOM     34  C   UNL     1      51.077  16.370  16.882  0.00  0.00    +0.131 A 
ATOM     37  C   UNL     1      51.717  17.366  16.148  0.00  0.00    +0.080 A 
BRANCH   3   2
ATOM      1  C   UNL     1      51.798  21.032  16.051  0.00  0.00    +0.249 C 
ATOM      2  O   UNL     1      52.106  19.678  15.718  0.00  0.00    -0.298 OA
ENDBRANCH   3   2
BRANCH  34  35
ATOM     35  O   UNL     1      51.311  15.060  16.599  0.00  0.00    -0.298 OA
ATOM     36  C   UNL     1      51.508  14.181  17.708  0.00  0.00    +0.249 C 
ENDBRANCH  34  35
BRANCH  37  38
ATOM     38  O   UNL     1      52.576  17.028  15.151  0.00  0.00    -0.469 OA
ATOM     39  H   UNL     1      53.445  17.446  15.223  0.00  0.00    +0.390 HD
ENDBRANCH  37  38
ENDBRANCH   6   5
ENDBRANCH   7   6
ENDBRANCH   8   7
TORSDOF 11
ENDMDL
MODEL 4
REMARK VINA RESULT:      -6.7      2.006      6.734
REMARK  Name = ZINC14642669
REMARK  13 active torsions:
REMARK  status: ('A' for Active; 'I' for Inactive)
REMARK    1  A    between atoms: C1_1  and  O1_2
REMARK    2  A    between atoms: O1_2  and  C2_3
REMARK    3  A    between atoms: C4_5  and  C9_12
REMARK    4  A    between atoms: C6_7  and  O3_10
REMARK    5  A    between atoms: C7_8  and  O2_9
REMARK    6  A    between atoms: O3_10  and  C8_11
REMARK    7  A    between atoms: C9_12  and  O5_14
REMARK    8  A    between atoms: O5_14  and  C10_15
REMARK    9  A    between atoms: C13_19  and  O10_36
REMARK   10  A    between atoms: C15_21  and  O9_35
REMARK   11  A    between atoms: C18_25  and  C19_27
REMARK   12  A    between atoms: C22_30  and  O8_34
REMARK   13  A    between atoms: C23_31  and  O7_33
REMARK                            x       y       z     vdW  Elec       q    Type
REMARK                         _______ _______ _______ _____ _____    ______ ____
ROOT
ATOM      8  C   UNL     1      46.942  18.010  18.044  0.00  0.00    +0.174 C 
ATOM      9  C   UNL     1      46.228  19.364  18.037  0.00  0.00    +0.109 C 
ATOM     10  C   UNL     1      45.140  19.370  19.082  0.00  0.00    -0.194 A 
ATOM     11  C   UNL     1      44.625  20.590  19.503  0.00  0.00    +0.162 A 
ATOM     14  C   UNL     1      43.622  20.633  20.458  0.00  0.00    -0.062 A 
ATOM     15  C   UNL     1      43.131  19.453  20.997  0.00  0.00    +0.159 A 
ATOM     18  C   UNL     1      43.643  18.237  20.578  0.00  0.00    -0.040 A 
ATOM     19  C   UNL     1      44.652  18.193  19.621  0.00  0.00    +0.171 A 
ATOM     20  O   UNL     1      45.135  16.979  19.245  0.00  0.00    -0.291 OA
ATOM     21  C   UNL     1      45.880  16.904  18.029  0.00  0.00    +0.255 C 
ENDROOT
BRANCH  21  22
ATOM     22  C   UNL     1      46.549  15.558  17.926  0.00  0.00    -0.090 A 
ATOM     23  C   UNL     1      46.435  14.650  18.962  0.00  0.00    +0.068 A 
ATOM     24  C   UNL     1      47.044  13.412  18.871  0.00  0.00    +0.005 A 
ATOM     25  C   UNL     1      47.779  13.084  17.744  0.00  0.00    +0.094 A 
ATOM     28  C   UNL     1      47.899  13.999  16.703  0.00  0.00    +0.081 A 
ATOM     31  C   UNL     1      47.281  15.236  16.798  0.00  0.00    +0.023 A 
BRANCH  25  26
ATOM     26  O   UNL     1      48.382  11.868  17.655  0.00  0.00    -0.487 OA
ATOM     27  H   UNL     1      47.793  11.157  17.369  0.00  0.00    +0.391 HD
ENDBRANCH  25  26
BRANCH  28  29
ATOM     29  O   UNL     1      48.620  13.681  15.594  0.00  0.00    -0.485 OA
ATOM     30  H   UNL     1      49.565  13.566  15.760  0.00  0.00    +0.389 HD
ENDBRANCH  28  29
ENDBRANCH  21  22
BRANCH  11  12
ATOM     12  O   UNL     1      45.107  21.746  18.975  0.00  0.00    -0.491 OA
ATOM     13  H   UNL     1      45.996  21.669  18.603  0.00  0.00    +0.395 HD
ENDBRANCH  11  12
BRANCH  15  16
ATOM     16  O   UNL     1      42.146  19.491  21.933  0.00  0.00    -0.492 OA
ATOM     17  H   UNL     1      41.319  19.879  21.618  0.00  0.00    +0.397 HD
ENDBRANCH  15  16
BRANCH   8   7
ATOM      7  O   UNL     1      47.755  17.892  19.243  0.00  0.00    -0.327 OA
BRANCH   7   6
ATOM      6  C   UNL     1      48.985  18.439  19.204  0.00  0.00    +0.514 C 
ATOM     32  O   UNL     1      49.316  19.250  20.046  0.00  0.00    -0.497 OA
BRANCH   6   5
ATOM      3  C   UNL     1      51.048  16.346  16.865  0.00  0.00    +0.132 A 
ATOM      4  C   UNL     1      50.161  16.704  17.863  0.00  0.00    -0.016 A 
ATOM      5  C   UNL     1      49.930  18.054  18.140  0.00  0.00    -0.057 A 
ATOM     33  C   UNL     1      50.594  19.038  17.403  0.00  0.00    -0.021 A 
ATOM     34  C   UNL     1      51.485  18.675  16.410  0.00  0.00    +0.131 A 
ATOM     37  C   UNL     1      51.712  17.328  16.136  0.00  0.00    +0.080 A 
BRANCH   3   2
ATOM      1  C   UNL     1      51.487  14.167  17.712  0.00  0.00    +0.249 C 
ATOM      2  O   UNL     1      51.272  15.031  16.596  0.00  0.00    -0.298 OA
ENDBRANCH   3   2
BRANCH  34  35
ATOM     35  O   UNL     1      52.135  19.633  15.697  0.00  0.00    -0.298 OA
ATOM     36  C   UNL     1      51.859  20.994  16.035  0.00  0.00    +0.249 C 
ENDBRANCH  34  35
BRANCH  37  38
ATOM     38  O   UNL     1      52.583  16.973  15.156  0.00  0.00    -0.469 OA
ATOM     39  H   UNL     1      53.060  17.717  14.765  0.00  0.00    +0.390 HD
ENDBRANCH  37  38
ENDBRANCH   6   5
ENDBRANCH   7   6
ENDBRANCH   8   7
TORSDOF 11
ENDMDL
MODEL 5
REMARK VINA RESULT:      -6.7      2.295      7.696
REMARK  Name = ZINC14642669
REMARK  13 active torsions:
REMARK  status: ('A' for Active; 'I' for Inactive)
REMARK    1  A    between atoms: C1_1  and  O1_2
REMARK    2  A    between atoms: O1_2  and  C2_3
REMARK    3  A    between atoms: C4_5  and  C9_12
REMARK    4  A    between atoms: C6_7  and  O3_10
REMARK    5  A    between atoms: C7_8  and  O2_9
REMARK    6  A    between atoms: O3_10  and  C8_11
REMARK    7  A    between atoms: C9_12  and  O5_14
REMARK    8  A    between atoms: O5_14  and  C10_15
REMARK    9  A    between atoms: C13_19  and  O10_36
REMARK   10  A    between atoms: C15_21  and  O9_35
REMARK   11  A    between atoms: C18_25  and  C19_27
REMARK   12  A    between atoms: C22_30  and  O8_34
REMARK   13  A    between atoms: C23_31  and  O7_33
REMARK                            x       y       z     vdW  Elec       q    Type
REMARK                         _______ _______ _______ _____ _____    ______ ____
ROOT
ATOM      8  C   UNL     1      47.196  18.779  20.535  0.00  0.00    +0.174 C 
ATOM      9  C   UNL     1      45.799  18.562  21.121  0.00  0.00    +0.109 C 
ATOM     10  C   UNL     1      44.827  19.528  20.491  0.00  0.00    -0.194 A 
ATOM     11  C   UNL     1      43.465  19.267  20.590  0.00  0.00    +0.162 A 
ATOM     14  C   UNL     1      42.545  20.135  20.026  0.00  0.00    -0.062 A 
ATOM     15  C   UNL     1      42.983  21.269  19.359  0.00  0.00    +0.159 A 
ATOM     18  C   UNL     1      44.340  21.530  19.260  0.00  0.00    -0.040 A 
ATOM     19  C   UNL     1      45.265  20.658  19.824  0.00  0.00    +0.171 A 
ATOM     20  O   UNL     1      46.587  20.945  19.695  0.00  0.00    -0.291 OA
ATOM     21  C   UNL     1      47.504  20.281  20.565  0.00  0.00    +0.255 C 
ENDROOT
BRANCH  21  22
ATOM     22  C   UNL     1      48.915  20.519  20.094  0.00  0.00    -0.090 A 
ATOM     23  C   UNL     1      49.152  20.886  18.783  0.00  0.00    +0.068 A 
ATOM     24  C   UNL     1      50.444  21.110  18.347  0.00  0.00    +0.005 A 
ATOM     25  C   UNL     1      51.506  20.957  19.223  0.00  0.00    +0.094 A 
ATOM     28  C   UNL     1      51.269  20.584  20.542  0.00  0.00    +0.081 A 
ATOM     31  C   UNL     1      49.970  20.366  20.974  0.00  0.00    +0.023 A 
BRANCH  25  26
ATOM     26  O   UNL     1      52.779  21.174  18.795  0.00  0.00    -0.487 OA
ATOM     27  H   UNL     1      52.851  21.344  17.846  0.00  0.00    +0.391 HD
ENDBRANCH  25  26
BRANCH  28  29
ATOM     29  O   UNL     1      52.309  20.433  21.406  0.00  0.00    -0.485 OA
ATOM     30  H   UNL     1      52.227  20.955  22.216  0.00  0.00    +0.389 HD
ENDBRANCH  28  29
ENDBRANCH  21  22
BRANCH  11  12
ATOM     12  O   UNL     1      43.036  18.155  21.244  0.00  0.00    -0.491 OA
ATOM     13  H   UNL     1      42.233  17.765  20.871  0.00  0.00    +0.395 HD
ENDBRANCH  11  12
BRANCH  15  16
ATOM     16  O   UNL     1      42.083  22.124  18.806  0.00  0.00    -0.492 OA
ATOM     17  H   UNL     1      42.420  22.610  18.042  0.00  0.00    +0.397 HD
ENDBRANCH  15  16
BRANCH   8   7
ATOM      7  O   UNL     1      47.230  18.299  19.164  0.00  0.00    -0.327 OA
BRANCH   7   6
ATOM      6  C   UNL     1      47.916  17.164  18.930  0.00  0.00    +0.514 C 
ATOM     32  O   UNL     1      47.324  16.108  18.820  0.00  0.00    -0.497 OA
BRANCH   6   5
ATOM      3  C   UNL     1      51.565  17.022  19.811  0.00  0.00    +0.132 A 
ATOM      4  C   UNL     1      50.187  16.987  19.930  0.00  0.00    -0.016 A 
ATOM      5  C   UNL     1      49.385  17.202  18.807  0.00  0.00    -0.057 A 
ATOM     33  C   UNL     1      49.977  17.447  17.565  0.00  0.00    -0.021 A 
ATOM     34  C   UNL     1      51.354  17.488  17.453  0.00  0.00    +0.131 A 
ATOM     37  C   UNL     1      52.152  17.273  18.574  0.00  0.00    +0.080 A 
BRANCH   3   2
ATOM      1  C   UNL     1      51.736  16.997  22.183  0.00  0.00    +0.249 C 
ATOM      2  O   UNL     1      52.346  16.813  20.905  0.00  0.00    -0.298 OA
ENDBRANCH   3   2
BRANCH  34  35
ATOM     35  O   UNL     1      51.931  17.733  16.246  0.00  0.00    -0.298 OA
ATOM     36  C   UNL     1      51.905  19.082  15.775  0.00  0.00    +0.249 C 
ENDBRANCH  34  35
BRANCH  37  38
ATOM     38  O   UNL     1      53.505  17.308  18.461  0.00  0.00    -0.469 OA
ATOM     39  H   UNL     1      53.965  16.694  19.049  0.00  0.00    +0.390 HD
ENDBRANCH  37  38
ENDBRANCH   6   5
ENDBRANCH   7   6
ENDBRANCH   8   7
TORSDOF 11
ENDMDL
MODEL 6
REMARK VINA RESULT:      -6.6      1.792      7.573
REMARK  Name = ZINC14642669
REMARK  13 active torsions:
REMARK  status: ('A' for Active; 'I' for Inactive)
REMARK    1  A    between atoms: C1_1  and  O1_2
REMARK    2  A    between atoms: O1_2  and  C2_3
REMARK    3  A    between atoms: C4_5  and  C9_12
REMARK    4  A    between atoms: C6_7  and  O3_10
REMARK    5  A    between atoms: C7_8  and  O2_9
REMARK    6  A    between atoms: O3_10  and  C8_11
REMARK    7  A    between atoms: C9_12  and  O5_14
REMARK    8  A    between atoms: O5_14  and  C10_15
REMARK    9  A    between atoms: C13_19  and  O10_36
REMARK   10  A    between atoms: C15_21  and  O9_35
REMARK   11  A    between atoms: C18_25  and  C19_27
REMARK   12  A    between atoms: C22_30  and  O8_34
REMARK   13  A    between atoms: C23_31  and  O7_33
REMARK                            x       y       z     vdW  Elec       q    Type
REMARK                         _______ _______ _______ _____ _____    ______ ____
ROOT
ATOM      8  C   UNL     1      44.737  18.526  21.003  0.00  0.00    +0.174 C 
ATOM      9  C   UNL     1      43.282  18.596  21.472  0.00  0.00    +0.109 C 
ATOM     10  C   UNL     1      42.505  19.532  20.582  0.00  0.00    -0.194 A 
ATOM     11  C   UNL     1      41.116  19.460  20.586  0.00  0.00    +0.162 A 
ATOM     14  C   UNL     1      40.370  20.308  19.783  0.00  0.00    -0.062 A 
ATOM     15  C   UNL     1      41.012  21.232  18.971  0.00  0.00    +0.159 A 
ATOM     18  C   UNL     1      42.395  21.305  18.966  0.00  0.00    -0.040 A 
ATOM     19  C   UNL     1      43.144  20.452  19.770  0.00  0.00    +0.171 A 
ATOM     20  O   UNL     1      44.499  20.548  19.728  0.00  0.00    -0.291 OA
ATOM     21  C   UNL     1      45.245  19.958  20.794  0.00  0.00    +0.255 C 
ENDROOT
BRANCH  21  22
ATOM     22  C   UNL     1      46.708  19.931  20.435  0.00  0.00    -0.090 A 
ATOM     23  C   UNL     1      47.162  20.631  19.333  0.00  0.00    +0.068 A 
ATOM     24  C   UNL     1      48.503  20.612  19.002  0.00  0.00    +0.005 A 
ATOM     25  C   UNL     1      49.395  19.881  19.770  0.00  0.00    +0.094 A 
ATOM     28  C   UNL     1      48.939  19.172  20.877  0.00  0.00    +0.081 A 
ATOM     31  C   UNL     1      47.593  19.200  21.206  0.00  0.00    +0.023 A 
BRANCH  25  26
ATOM     26  O   UNL     1      50.716  19.858  19.444  0.00  0.00    -0.487 OA
ATOM     27  H   UNL     1      51.310  19.970  20.199  0.00  0.00    +0.391 HD
ENDBRANCH  25  26
BRANCH  28  29
ATOM     29  O   UNL     1      49.811  18.453  21.634  0.00  0.00    -0.485 OA
ATOM     30  H   UNL     1      50.628  18.924  21.846  0.00  0.00    +0.389 HD
ENDBRANCH  28  29
ENDBRANCH  21  22
BRANCH  11  12
ATOM     12  O   UNL     1      40.488  18.555  21.381  0.00  0.00    -0.491 OA
ATOM     13  H   UNL     1      39.846  18.944  21.991  0.00  0.00    +0.395 HD
ENDBRANCH  11  12
BRANCH  15  16
ATOM     16  O   UNL     1      40.283  22.067  18.184  0.00  0.00    -0.492 OA
ATOM     17  H   UNL     1      40.738  22.888  17.954  0.00  0.00    +0.397 HD
ENDBRANCH  15  16
BRANCH   8   7
ATOM      7  O   UNL     1      44.812  17.792  19.752  0.00  0.00    -0.327 OA
BRANCH   7   6
ATOM      6  C   UNL     1      45.173  16.496  19.824  0.00  0.00    +0.514 C 
ATOM     32  O   UNL     1      44.713  15.785  20.695  0.00  0.00    -0.497 OA
BRANCH   6   5
ATOM      3  C   UNL     1      48.040  16.217  17.413  0.00  0.00    +0.132 A 
ATOM      4  C   UNL     1      47.148  16.741  18.330  0.00  0.00    -0.016 A 
ATOM      5  C   UNL     1      46.126  15.940  18.845  0.00  0.00    -0.057 A 
ATOM     33  C   UNL     1      46.012  14.609  18.436  0.00  0.00    -0.021 A 
ATOM     34  C   UNL     1      46.903  14.091  17.514  0.00  0.00    +0.131 A 
ATOM     37  C   UNL     1      47.920  14.892  17.002  0.00  0.00    +0.080 A 
BRANCH   3   2
ATOM      1  C   UNL     1      50.290  16.969  17.593  0.00  0.00    +0.249 C 
ATOM      2  O   UNL     1      49.035  16.997  16.911  0.00  0.00    -0.298 OA
ENDBRANCH   3   2
BRANCH  34  35
ATOM     35  O   UNL     1      46.788  12.797  17.111  0.00  0.00    -0.298 OA
ATOM     36  C   UNL     1      45.469  12.252  17.044  0.00  0.00    +0.249 C 
ENDBRANCH  34  35
BRANCH  37  38
ATOM     38  O   UNL     1      48.799  14.380  16.101  0.00  0.00    -0.469 OA
ATOM     39  H   UNL     1      49.138  13.506  16.336  0.00  0.00    +0.390 HD
ENDBRANCH  37  38
ENDBRANCH   6   5
ENDBRANCH   7   6
ENDBRANCH   8   7
TORSDOF 11
ENDMDL
MODEL 7
REMARK VINA RESULT:      -6.6      2.245      7.808
REMARK  Name = ZINC14642669
REMARK  13 active torsions:
REMARK  status: ('A' for Active; 'I' for Inactive)
REMARK    1  A    between atoms: C1_1  and  O1_2
REMARK    2  A    between atoms: O1_2  and  C2_3
REMARK    3  A    between atoms: C4_5  and  C9_12
REMARK    4  A    between atoms: C6_7  and  O3_10
REMARK    5  A    between atoms: C7_8  and  O2_9
REMARK    6  A    between atoms: O3_10  and  C8_11
REMARK    7  A    between atoms: C9_12  and  O5_14
REMARK    8  A    between atoms: O5_14  and  C10_15
REMARK    9  A    between atoms: C13_19  and  O10_36
REMARK   10  A    between atoms: C15_21  and  O9_35
REMARK   11  A    between atoms: C18_25  and  C19_27
REMARK   12  A    between atoms: C22_30  and  O8_34
REMARK   13  A    between atoms: C23_31  and  O7_33
REMARK                            x       y       z     vdW  Elec       q    Type
REMARK                         _______ _______ _______ _____ _____    ______ ____
ROOT
ATOM      8  C   UNL     1      47.348  18.684  20.371  0.00  0.00    +0.174 C 
ATOM      9  C   UNL     1      45.961  18.441  20.971  0.00  0.00    +0.109 C 
ATOM     10  C   UNL     1      44.996  19.478  20.455  0.00  0.00    -0.194 A 
ATOM     11  C   UNL     1      43.631  19.235  20.564  0.00  0.00    +0.162 A 
ATOM     14  C   UNL     1      42.716  20.167  20.104  0.00  0.00    -0.062 A 
ATOM     15  C   UNL     1      43.163  21.349  19.532  0.00  0.00    +0.159 A 
ATOM     18  C   UNL     1      44.521  21.593  19.423  0.00  0.00    -0.040 A 
ATOM     19  C   UNL     1      45.441  20.656  19.882  0.00  0.00    +0.171 A 
ATOM     20  O   UNL     1      46.766  20.929  19.746  0.00  0.00    -0.291 OA
ATOM     21  C   UNL     1      47.688  20.171  20.530  0.00  0.00    +0.255 C 
ENDROOT
BRANCH  21  22
ATOM     22  C   UNL     1      49.092  20.425  20.047  0.00  0.00    -0.090 A 
ATOM     23  C   UNL     1      49.305  20.927  18.777  0.00  0.00    +0.068 A 
ATOM     24  C   UNL     1      50.592  21.166  18.331  0.00  0.00    +0.005 A 
ATOM     25  C   UNL     1      51.672  20.891  19.154  0.00  0.00    +0.094 A 
ATOM     28  C   UNL     1      51.459  20.381  20.431  0.00  0.00    +0.081 A 
ATOM     31  C   UNL     1      50.166  20.149  20.874  0.00  0.00    +0.023 A 
BRANCH  25  26
ATOM     26  O   UNL     1      52.939  21.122  18.716  0.00  0.00    -0.487 OA
ATOM     27  H   UNL     1      53.037  21.074  17.754  0.00  0.00    +0.391 HD
ENDBRANCH  25  26
BRANCH  28  29
ATOM     29  O   UNL     1      52.516  20.110  21.242  0.00  0.00    -0.485 OA
ATOM     30  H   UNL     1      53.029  19.336  20.974  0.00  0.00    +0.389 HD
ENDBRANCH  28  29
ENDBRANCH  21  22
BRANCH  11  12
ATOM     12  O   UNL     1      43.194  18.077  21.125  0.00  0.00    -0.491 OA
ATOM     13  H   UNL     1      42.305  18.133  21.502  0.00  0.00    +0.395 HD
ENDBRANCH  11  12
BRANCH  15  16
ATOM     16  O   UNL     1      42.268  22.268  19.082  0.00  0.00    -0.492 OA
ATOM     17  H   UNL     1      42.664  23.112  18.828  0.00  0.00    +0.397 HD
ENDBRANCH  15  16
BRANCH   8   7
ATOM      7  O   UNL     1      47.340  18.330  18.963  0.00  0.00    -0.327 OA
BRANCH   7   6
ATOM      6  C   UNL     1      47.978  17.197  18.613  0.00  0.00    +0.514 C 
ATOM     32  O   UNL     1      47.340  16.207  18.317  0.00  0.00    -0.497 OA
BRANCH   6   5
ATOM      3  C   UNL     1      51.528  17.531  17.428  0.00  0.00    +0.132 A 
ATOM      4  C   UNL     1      50.145  17.568  17.447  0.00  0.00    -0.016 A 
ATOM      5  C   UNL     1      49.453  17.158  18.589  0.00  0.00    -0.057 A 
ATOM     33  C   UNL     1      50.160  16.715  19.710  0.00  0.00    -0.021 A 
ATOM     34  C   UNL     1      51.541  16.674  19.684  0.00  0.00    +0.131 A 
ATOM     37  C   UNL     1      52.229  17.084  18.544  0.00  0.00    +0.080 A 
BRANCH   3   2
ATOM      1  C   UNL     1      51.823  19.180  15.740  0.00  0.00    +0.249 C 
ATOM      2  O   UNL     1      52.202  17.930  16.316  0.00  0.00    -0.298 OA
ENDBRANCH   3   2
BRANCH  34  35
ATOM     35  O   UNL     1      52.229  16.238  20.773  0.00  0.00    -0.298 OA
ATOM     36  C   UNL     1      51.830  16.757  22.043  0.00  0.00    +0.249 C 
ENDBRANCH  34  35
BRANCH  37  38
ATOM     38  O   UNL     1      53.587  17.048  18.522  0.00  0.00    -0.469 OA
ATOM     39  H   UNL     1      53.999  17.237  19.375  0.00  0.00    +0.390 HD
ENDBRANCH  37  38
ENDBRANCH   6   5
ENDBRANCH   7   6
ENDBRANCH   8   7
TORSDOF 11
ENDMDL
MODEL 8
REMARK VINA RESULT:      -6.5      1.872      7.736
REMARK  Name = ZINC14642669
REMARK  13 active torsions:
REMARK  status: ('A' for Active; 'I' for Inactive)
REMARK    1  A    between atoms: C1_1  and  O1_2
REMARK    2  A    between atoms: O1_2  and  C2_3
REMARK    3  A    between atoms: C4_5  and  C9_12
REMARK    4  A    between atoms: C6_7  and  O3_10
REMARK    5  A    between atoms: C7_8  and  O2_9
REMARK    6  A    between atoms: O3_10  and  C8_11
REMARK    7  A    between atoms: C9_12  and  O5_14
REMARK    8  A    between atoms: O5_14  and  C10_15
REMARK    9  A    between atoms: C13_19  and  O10_36
REMARK   10  A    between atoms: C15_21  and  O9_35
REMARK   11  A    between atoms: C18_25  and  C19_27
REMARK   12  A    between atoms: C22_30  and  O8_34
REMARK   13  A    between atoms: C23_31  and  O7_33
REMARK                            x       y       z     vdW  Elec       q    Type
REMARK                         _______ _______ _______ _____ _____    ______ ____
ROOT
ATOM      8  C   UNL     1      44.776  18.161  21.151  0.00  0.00    +0.174 C 
ATOM      9  C   UNL     1      43.299  18.283  21.536  0.00  0.00    +0.109 C 
ATOM     10  C   UNL     1      42.633  19.323  20.671  0.00  0.00    -0.194 A 
ATOM     11  C   UNL     1      41.245  19.333  20.586  0.00  0.00    +0.162 A 
ATOM     14  C   UNL     1      40.600  20.277  19.804  0.00  0.00    -0.062 A 
ATOM     15  C   UNL     1      41.341  21.216  19.102  0.00  0.00    +0.159 A 
ATOM     18  C   UNL     1      42.723  21.207  19.186  0.00  0.00    -0.040 A 
ATOM     19  C   UNL     1      43.373  20.258  19.969  0.00  0.00    +0.171 A 
ATOM     20  O   UNL     1      44.731  20.277  20.016  0.00  0.00    -0.291 OA
ATOM     21  C   UNL     1      45.373  19.571  21.078  0.00  0.00    +0.255 C 
ENDROOT
BRANCH  21  22
ATOM     22  C   UNL     1      46.852  19.483  20.807  0.00  0.00    -0.090 A 
ATOM     23  C   UNL     1      47.634  18.597  21.524  0.00  0.00    +0.068 A 
ATOM     24  C   UNL     1      48.991  18.510  21.276  0.00  0.00    +0.005 A 
ATOM     25  C   UNL     1      49.572  19.319  20.313  0.00  0.00    +0.094 A 
ATOM     28  C   UNL     1      48.787  20.215  19.594  0.00  0.00    +0.081 A 
ATOM     31  C   UNL     1      47.426  20.293  19.844  0.00  0.00    +0.023 A 
BRANCH  25  26
ATOM     26  O   UNL     1      50.908  19.238  20.070  0.00  0.00    -0.487 OA
ATOM     27  H   UNL     1      51.281  20.028  19.655  0.00  0.00    +0.391 HD
ENDBRANCH  25  26
BRANCH  28  29
ATOM     29  O   UNL     1      49.353  21.012  18.648  0.00  0.00    -0.485 OA
ATOM     30  H   UNL     1      48.734  21.625  18.229  0.00  0.00    +0.389 HD
ENDBRANCH  28  29
ENDBRANCH  21  22
BRANCH  11  12
ATOM     12  O   UNL     1      40.519  18.412  21.273  0.00  0.00    -0.491 OA
ATOM     13  H   UNL     1      39.622  18.701  21.491  0.00  0.00    +0.395 HD
ENDBRANCH  11  12
BRANCH  15  16
ATOM     16  O   UNL     1      40.711  22.145  18.335  0.00  0.00    -0.492 OA
ATOM     17  H   UNL     1      39.748  22.065  18.334  0.00  0.00    +0.397 HD
ENDBRANCH  15  16
BRANCH   8   7
ATOM      7  O   UNL     1      44.892  17.512  19.856  0.00  0.00    -0.327 OA
BRANCH   7   6
ATOM      6  C   UNL     1      45.238  16.211  19.853  0.00  0.00    +0.514 C 
ATOM     32  O   UNL     1      44.778  15.457  20.686  0.00  0.00    -0.497 OA
BRANCH   6   5
ATOM      3  C   UNL     1      46.925  13.924  17.395  0.00  0.00    +0.132 A 
ATOM      4  C   UNL     1      46.042  14.399  18.348  0.00  0.00    -0.016 A 
ATOM      5  C   UNL     1      46.178  15.701  18.837  0.00  0.00    -0.057 A 
ATOM     33  C   UNL     1      47.204  16.520  18.358  0.00  0.00    -0.021 A 
ATOM     34  C   UNL     1      48.087  16.039  17.410  0.00  0.00    +0.131 A 
ATOM     37  C   UNL     1      47.949  14.740  16.924  0.00  0.00    +0.080 A 
BRANCH   3   2
ATOM      1  C   UNL     1      45.490  12.072  16.982  0.00  0.00    +0.249 C 
ATOM      2  O   UNL     1      46.792  12.656  16.920  0.00  0.00    -0.298 OA
ENDBRANCH   3   2
BRANCH  34  35
ATOM     35  O   UNL     1      49.089  16.834  16.948  0.00  0.00    -0.298 OA
ATOM     36  C   UNL     1      50.323  16.807  17.667  0.00  0.00    +0.249 C 
ENDBRANCH  34  35
BRANCH  37  38
ATOM     38  O   UNL     1      48.815  14.270  15.989  0.00  0.00    -0.469 OA
ATOM     39  H   UNL     1      48.550  14.459  15.078  0.00  0.00    +0.390 HD
ENDBRANCH  37  38
ENDBRANCH   6   5
ENDBRANCH   7   6
ENDBRANCH   8   7
TORSDOF 11
ENDMDL
MODEL 9
REMARK VINA RESULT:      -6.4      1.878      7.472
REMARK  Name = ZINC14642669
REMARK  13 active torsions:
REMARK  status: ('A' for Active; 'I' for Inactive)
REMARK    1  A    between atoms: C1_1  and  O1_2
REMARK    2  A    between atoms: O1_2  and  C2_3
REMARK    3  A    between atoms: C4_5  and  C9_12
REMARK    4  A    between atoms: C6_7  and  O3_10
REMARK    5  A    between atoms: C7_8  and  O2_9
REMARK    6  A    between atoms: O3_10  and  C8_11
REMARK    7  A    between atoms: C9_12  and  O5_14
REMARK    8  A    between atoms: O5_14  and  C10_15
REMARK    9  A    between atoms: C13_19  and  O10_36
REMARK   10  A    between atoms: C15_21  and  O9_35
REMARK   11  A    between atoms: C18_25  and  C19_27
REMARK   12  A    between atoms: C22_30  and  O8_34
REMARK   13  A    between atoms: C23_31  and  O7_33
REMARK                            x       y       z     vdW  Elec       q    Type
REMARK                         _______ _______ _______ _____ _____    ______ ____
ROOT
ATOM      8  C   UNL     1      47.006  18.827  19.770  0.00  0.00    +0.174 C 
ATOM      9  C   UNL     1      45.567  18.805  20.291  0.00  0.00    +0.109 C 
ATOM     10  C   UNL     1      44.894  20.119  19.982  0.00  0.00    -0.194 A 
ATOM     11  C   UNL     1      43.506  20.185  20.022  0.00  0.00    +0.162 A 
ATOM     14  C   UNL     1      42.855  21.376  19.746  0.00  0.00    -0.062 A 
ATOM     15  C   UNL     1      43.591  22.508  19.428  0.00  0.00    +0.159 A 
ATOM     18  C   UNL     1      44.974  22.443  19.387  0.00  0.00    -0.040 A 
ATOM     19  C   UNL     1      45.629  21.247  19.661  0.00  0.00    +0.171 A 
ATOM     20  O   UNL     1      46.986  21.223  19.600  0.00  0.00    -0.291 OA
ATOM     21  C   UNL     1      47.665  20.134  20.228  0.00  0.00    +0.255 C 
ENDROOT
BRANCH  21  22
ATOM     22  C   UNL     1      49.116  20.141  19.824  0.00  0.00    -0.090 A 
ATOM     23  C   UNL     1      50.040  19.421  20.558  0.00  0.00    +0.068 A 
ATOM     24  C   UNL     1      51.372  19.421  20.189  0.00  0.00    +0.005 A 
ATOM     25  C   UNL     1      51.785  20.151  19.086  0.00  0.00    +0.094 A 
ATOM     28  C   UNL     1      50.856  20.879  18.349  0.00  0.00    +0.081 A 
ATOM     31  C   UNL     1      49.521  20.871  18.722  0.00  0.00    +0.023 A 
BRANCH  25  26
ATOM     26  O   UNL     1      53.096  20.155  18.723  0.00  0.00    -0.487 OA
ATOM     27  H   UNL     1      53.590  20.922  19.044  0.00  0.00    +0.391 HD
ENDBRANCH  25  26
BRANCH  28  29
ATOM     29  O   UNL     1      51.256  21.598  17.266  0.00  0.00    -0.485 OA
ATOM     30  H   UNL     1      52.122  22.016  17.370  0.00  0.00    +0.389 HD
ENDBRANCH  28  29
ENDBRANCH  21  22
BRANCH  11  12
ATOM     12  O   UNL     1      42.785  19.076  20.334  0.00  0.00    -0.491 OA
ATOM     13  H   UNL     1      41.834  19.169  20.185  0.00  0.00    +0.395 HD
ENDBRANCH  11  12
BRANCH  15  16
ATOM     16  O   UNL     1      42.956  23.679  19.159  0.00  0.00    -0.492 OA
ATOM     17  H   UNL     1      42.593  24.118  19.940  0.00  0.00    +0.397 HD
ENDBRANCH  15  16
BRANCH   8   7
ATOM      7  O   UNL     1      47.002  18.762  18.319  0.00  0.00    -0.327 OA
BRANCH   7   6
ATOM      6  C   UNL     1      46.924  17.539  17.762  0.00  0.00    +0.514 C 
ATOM     32  O   UNL     1      45.839  17.054  17.509  0.00  0.00    -0.497 OA
BRANCH   6   5
ATOM      3  C   UNL     1      50.529  16.749  17.060  0.00  0.00    +0.132 A 
ATOM      4  C   UNL     1      49.376  17.457  17.344  0.00  0.00    -0.016 A 
ATOM      5  C   UNL     1      48.156  16.787  17.458  0.00  0.00    -0.057 A 
ATOM     33  C   UNL     1      48.106  15.400  17.289  0.00  0.00    -0.021 A 
ATOM     34  C   UNL     1      49.260  14.697  16.999  0.00  0.00    +0.131 A 
ATOM     37  C   UNL     1      50.475  15.369  16.886  0.00  0.00    +0.080 A 
BRANCH   3   2
ATOM      1  C   UNL     1      51.855  18.317  15.860  0.00  0.00    +0.249 C 
ATOM      2  O   UNL     1      51.716  17.403  16.948  0.00  0.00    -0.298 OA
ENDBRANCH   3   2
BRANCH  34  35
ATOM     35  O   UNL     1      49.210  13.349  16.829  0.00  0.00    -0.298 OA
ATOM     36  C   UNL     1      48.700  12.870  15.583  0.00  0.00    +0.249 C 
ENDBRANCH  34  35
BRANCH  37  38
ATOM     38  O   UNL     1      51.610  14.676  16.606  0.00  0.00    -0.469 OA
ATOM     39  H   UNL     1      52.032  14.284  17.382  0.00  0.00    +0.390 HD
ENDBRANCH  37  38
ENDBRANCH   6   5
ENDBRANCH   7   6
ENDBRANCH   8   7
TORSDOF 11
ENDMDL
