MODEL 1
REMARK VINA RESULT:      -4.7      0.000      0.000
REMARK  Name = ZINC95486064
REMARK  4 active torsions:
REMARK  status: ('A' for Active; 'I' for Inactive)
REMARK    1  A    between atoms: C1_1  and  C2_2
REMARK    2  A    between atoms: C6_8  and  C14_19
REMARK    3  A    between atoms: C12_14  and  O1_16
REMARK    4  A    between atoms: O1_16  and  C13_17
REMARK                            x       y       z     vdW  Elec       q    Type
REMARK                         _______ _______ _______ _____ _____    ______ ____
ROOT
ATOM      1  C   UNL     1      51.146  32.230   1.427  0.00  0.00    +0.032 C 
ATOM      2  C   UNL     1      51.720  32.508   2.819  0.00  0.00    -0.004 C 
ATOM      3  C   UNL     1      50.582  32.892   3.759  0.00  0.00    +0.026 C 
ATOM      4  C   UNL     1      51.104  33.322   5.140  0.00  0.00    +0.027 C 
ATOM      5  C   UNL     1      52.051  34.486   4.914  0.00  0.00    +0.018 C 
ATOM      6  C   UNL     1      52.788  35.000   6.127  0.00  0.00    -0.169 C 
ATOM      7  C   UNL     1      52.256  35.401   7.478  0.00  0.00    +0.128 C 
ATOM      8  C   UNL     1      54.019  35.002   5.677  0.00  0.00    +0.012 C 
ATOM      9  C   UNL     1      55.083  34.230   6.457  0.00  0.00    +0.105 C 
ATOM     10  C   UNL     1      54.445  32.823   6.224  0.00  0.00    +0.035 C 
ATOM     11  C   UNL     1      53.912  32.703   4.803  0.00  0.00    +0.007 C 
ATOM     12  O   UNL     1      54.146  35.040   4.325  0.00  0.00    -0.302 OA
ATOM     13  C   UNL     1      53.263  33.909   4.113  0.00  0.00    +0.060 C 
ATOM     14  C   UNL     1      52.769  33.629   2.715  0.00  0.00    +0.187 C 
ENDROOT
BRANCH  14  15
ATOM     15  O   UNL     1      52.173  34.804   2.165  0.00  0.00    -0.366 OA
ATOM     16  C   UNL     1      52.923  35.393   1.101  0.00  0.00    +0.205 C 
ENDBRANCH  14  15
TORSDOF 1
ENDMDL
MODEL 2
REMARK VINA RESULT:      -4.6     21.583     22.897
REMARK  Name = ZINC95486064
REMARK  4 active torsions:
REMARK  status: ('A' for Active; 'I' for Inactive)
REMARK    1  A    between atoms: C1_1  and  C2_2
REMARK    2  A    between atoms: C6_8  and  C14_19
REMARK    3  A    between atoms: C12_14  and  O1_16
REMARK    4  A    between atoms: O1_16  and  C13_17
REMARK                            x       y       z     vdW  Elec       q    Type
REMARK                         _______ _______ _______ _____ _____    ______ ____
ROOT
ATOM      1  C   UNL     1      44.351  23.324  19.521  0.00  0.00    +0.032 C 
ATOM      2  C   UNL     1      44.905  21.924  19.796  0.00  0.00    -0.004 C 
ATOM      3  C   UNL     1      45.815  21.513  18.643  0.00  0.00    +0.026 C 
ATOM      4  C   UNL     1      46.293  20.058  18.785  0.00  0.00    +0.027 C 
ATOM      5  C   UNL     1      45.053  19.186  18.849  0.00  0.00    +0.018 C 
ATOM      6  C   UNL     1      45.275  17.717  19.116  0.00  0.00    -0.169 C 
ATOM      7  C   UNL     1      46.201  16.744  18.433  0.00  0.00    +0.128 C 
ATOM      8  C   UNL     1      44.439  17.524  20.106  0.00  0.00    +0.012 C 
ATOM      9  C   UNL     1      44.975  16.934  21.410  0.00  0.00    +0.105 C 
ATOM     10  C   UNL     1      45.909  18.141  21.745  0.00  0.00    +0.035 C 
ATOM     11  C   UNL     1      45.225  19.459  21.408  0.00  0.00    +0.007 C 
ATOM     12  O   UNL     1      43.430  18.428  20.202  0.00  0.00    -0.302 OA
ATOM     13  C   UNL     1      44.321  19.571  20.176  0.00  0.00    +0.060 C 
ATOM     14  C   UNL     1      43.731  20.944  19.966  0.00  0.00    +0.187 C 
ENDROOT
BRANCH  14  15
ATOM     15  O   UNL     1      42.918  20.950  18.791  0.00  0.00    -0.366 OA
ATOM     16  C   UNL     1      41.520  21.088  19.052  0.00  0.00    +0.205 C 
ENDBRANCH  14  15
TORSDOF 1
ENDMDL
MODEL 3
REMARK VINA RESULT:      -4.6     21.583     22.896
REMARK  Name = ZINC95486064
REMARK  4 active torsions:
REMARK  status: ('A' for Active; 'I' for Inactive)
REMARK    1  A    between atoms: C1_1  and  C2_2
REMARK    2  A    between atoms: C6_8  and  C14_19
REMARK    3  A    between atoms: C12_14  and  O1_16
REMARK    4  A    between atoms: O1_16  and  C13_17
REMARK                            x       y       z     vdW  Elec       q    Type
REMARK                         _______ _______ _______ _____ _____    ______ ____
ROOT
ATOM      1  C   UNL     1      41.537  19.325  19.866  0.00  0.00    +0.032 C 
ATOM      2  C   UNL     1      42.839  20.128  19.930  0.00  0.00    -0.004 C 
ATOM      3  C   UNL     1      43.677  19.815  18.694  0.00  0.00    +0.026 C 
ATOM      4  C   UNL     1      45.062  20.480  18.762  0.00  0.00    +0.027 C 
ATOM      5  C   UNL     1      45.734  19.979  20.028  0.00  0.00    +0.018 C 
ATOM      6  C   UNL     1      47.067  20.597  20.373  0.00  0.00    -0.169 C 
ATOM      7  C   UNL     1      48.296  20.772  19.519  0.00  0.00    +0.128 C 
ATOM      8  C   UNL     1      46.859  20.937  21.621  0.00  0.00    +0.012 C 
ATOM      9  C   UNL     1      47.078  22.394  22.028  0.00  0.00    +0.105 C 
ATOM     10  C   UNL     1      45.936  22.971  21.132  0.00  0.00    +0.035 C 
ATOM     11  C   UNL     1      44.717  22.060  21.163  0.00  0.00    +0.007 C 
ATOM     12  O   UNL     1      45.864  20.260  22.251  0.00  0.00    -0.302 OA
ATOM     13  C   UNL     1      44.887  20.537  21.217  0.00  0.00    +0.060 C 
ATOM     14  C   UNL     1      43.587  19.770  21.225  0.00  0.00    +0.187 C 
ENDROOT
BRANCH  14  15
ATOM     15  O   UNL     1      43.851  18.366  21.264  0.00  0.00    -0.366 OA
ATOM     16  C   UNL     1      43.514  17.746  22.505  0.00  0.00    +0.205 C 
ENDBRANCH  14  15
TORSDOF 1
ENDMDL
MODEL 4
REMARK VINA RESULT:      -4.5     22.072     23.435
REMARK  Name = ZINC95486064
REMARK  4 active torsions:
REMARK  status: ('A' for Active; 'I' for Inactive)
REMARK    1  A    between atoms: C1_1  and  C2_2
REMARK    2  A    between atoms: C6_8  and  C14_19
REMARK    3  A    between atoms: C12_14  and  O1_16
REMARK    4  A    between atoms: O1_16  and  C13_17
REMARK                            x       y       z     vdW  Elec       q    Type
REMARK                         _______ _______ _______ _____ _____    ______ ____
ROOT
ATOM      1  C   UNL     1      48.150  20.777  19.505  0.00  0.00    +0.032 C 
ATOM      2  C   UNL     1      46.863  19.966  19.677  0.00  0.00    -0.004 C 
ATOM      3  C   UNL     1      45.901  20.313  18.546  0.00  0.00    +0.026 C 
ATOM      4  C   UNL     1      44.531  19.640  18.736  0.00  0.00    +0.027 C 
ATOM      5  C   UNL     1      43.994  20.097  20.080  0.00  0.00    +0.018 C 
ATOM      6  C   UNL     1      42.705  19.461  20.541  0.00  0.00    -0.169 C 
ATOM      7  C   UNL     1      41.394  19.307  19.814  0.00  0.00    +0.128 C 
ATOM      8  C   UNL     1      43.042  19.084  21.749  0.00  0.00    +0.012 C 
ATOM      9  C   UNL     1      42.869  17.614  22.131  0.00  0.00    +0.105 C 
ATOM     10  C   UNL     1      43.914  17.071  21.104  0.00  0.00    +0.035 C 
ATOM     11  C   UNL     1      45.127  17.987  21.037  0.00  0.00    +0.007 C 
ATOM     12  O   UNL     1      44.095  19.746  22.295  0.00  0.00    -0.302 OA
ATOM     13  C   UNL     1      44.961  19.506  21.156  0.00  0.00    +0.060 C 
ATOM     14  C   UNL     1      46.253  20.279  21.054  0.00  0.00    +0.187 C 
ENDROOT
BRANCH  14  15
ATOM     15  O   UNL     1      45.992  21.680  21.164  0.00  0.00    -0.366 OA
ATOM     16  C   UNL     1      46.497  22.272  22.362  0.00  0.00    +0.205 C 
ENDBRANCH  14  15
TORSDOF 1
ENDMDL
MODEL 5
REMARK VINA RESULT:      -4.5     19.617     21.257
REMARK  Name = ZINC95486064
REMARK  4 active torsions:
REMARK  status: ('A' for Active; 'I' for Inactive)
REMARK    1  A    between atoms: C1_1  and  C2_2
REMARK    2  A    between atoms: C6_8  and  C14_19
REMARK    3  A    between atoms: C12_14  and  O1_16
REMARK    4  A    between atoms: O1_16  and  C13_17
REMARK                            x       y       z     vdW  Elec       q    Type
REMARK                         _______ _______ _______ _____ _____    ______ ____
ROOT
ATOM      1  C   UNL     1      50.514  14.815  19.014  0.00  0.00    +0.032 C 
ATOM      2  C   UNL     1      50.451  16.315  18.715  0.00  0.00    -0.004 C 
ATOM      3  C   UNL     1      50.216  16.516  17.222  0.00  0.00    +0.026 C 
ATOM      4  C   UNL     1      50.284  18.002  16.830  0.00  0.00    +0.027 C 
ATOM      5  C   UNL     1      51.651  18.510  17.248  0.00  0.00    +0.018 C 
ATOM      6  C   UNL     1      51.902  19.988  17.074  0.00  0.00    -0.169 C 
ATOM      7  C   UNL     1      51.696  20.864  15.866  0.00  0.00    +0.128 C 
ATOM      8  C   UNL     1      52.351  20.298  18.265  0.00  0.00    +0.012 C 
ATOM      9  C   UNL     1      51.651  21.411  19.044  0.00  0.00    +0.105 C 
ATOM     10  C   UNL     1      50.287  20.660  19.180  0.00  0.00    +0.035 C 
ATOM     11  C   UNL     1      50.514  19.181  19.463  0.00  0.00    +0.007 C 
ATOM     12  O   UNL     1      52.860  19.263  18.984  0.00  0.00    -0.302 OA
ATOM     13  C   UNL     1      51.682  18.436  18.809  0.00  0.00    +0.060 C 
ATOM     14  C   UNL     1      51.764  16.974  19.174  0.00  0.00    +0.187 C 
ENDROOT
BRANCH  14  15
ATOM     15  O   UNL     1      52.873  16.367  18.508  0.00  0.00    -0.366 OA
ATOM     16  C   UNL     1      53.968  16.053  19.370  0.00  0.00    +0.205 C 
ENDBRANCH  14  15
TORSDOF 1
ENDMDL
MODEL 6
REMARK VINA RESULT:      -4.5     21.528     22.795
REMARK  Name = ZINC95486064
REMARK  4 active torsions:
REMARK  status: ('A' for Active; 'I' for Inactive)
REMARK    1  A    between atoms: C1_1  and  C2_2
REMARK    2  A    between atoms: C6_8  and  C14_19
REMARK    3  A    between atoms: C12_14  and  O1_16
REMARK    4  A    between atoms: O1_16  and  C13_17
REMARK                            x       y       z     vdW  Elec       q    Type
REMARK                         _______ _______ _______ _____ _____    ______ ____
ROOT
ATOM      1  C   UNL     1      47.795  20.814  20.656  0.00  0.00    +0.032 C 
ATOM      2  C   UNL     1      46.270  20.945  20.605  0.00  0.00    -0.004 C 
ATOM      3  C   UNL     1      45.672  20.285  21.842  0.00  0.00    +0.026 C 
ATOM      4  C   UNL     1      44.135  20.255  21.785  0.00  0.00    +0.027 C 
ATOM      5  C   UNL     1      43.751  19.510  20.520  0.00  0.00    +0.018 C 
ATOM      6  C   UNL     1      42.280  19.464  20.185  0.00  0.00    -0.169 C 
ATOM      7  C   UNL     1      41.110  19.064  21.046  0.00  0.00    +0.128 C 
ATOM      8  C   UNL     1      42.304  19.865  18.939  0.00  0.00    +0.012 C 
ATOM      9  C   UNL     1      41.450  21.068  18.542  0.00  0.00    +0.105 C 
ATOM     10  C   UNL     1      42.217  22.095  19.435  0.00  0.00    +0.035 C 
ATOM     11  C   UNL     1      43.715  21.830  19.392  0.00  0.00    +0.007 C 
ATOM     12  O   UNL     1      43.492  19.710  18.299  0.00  0.00    -0.302 OA
ATOM     13  C   UNL     1      44.248  20.394  19.330  0.00  0.00    +0.060 C 
ATOM     14  C   UNL     1      45.754  20.293  19.311  0.00  0.00    +0.187 C 
ENDROOT
BRANCH  14  15
ATOM     15  O   UNL     1      46.150  18.922  19.264  0.00  0.00    -0.366 OA
ATOM     16  C   UNL     1      46.607  18.492  17.981  0.00  0.00    +0.205 C 
ENDBRANCH  14  15
TORSDOF 1
ENDMDL
MODEL 7
REMARK VINA RESULT:      -4.5     21.863     23.107
REMARK  Name = ZINC95486064
REMARK  4 active torsions:
REMARK  status: ('A' for Active; 'I' for Inactive)
REMARK    1  A    between atoms: C1_1  and  C2_2
REMARK    2  A    between atoms: C6_8  and  C14_19
REMARK    3  A    between atoms: C12_14  and  O1_16
REMARK    4  A    between atoms: O1_16  and  C13_17
REMARK                            x       y       z     vdW  Elec       q    Type
REMARK                         _______ _______ _______ _____ _____    ______ ____
ROOT
ATOM      1  C   UNL     1      41.031  18.865  21.513  0.00  0.00    +0.032 C 
ATOM      2  C   UNL     1      42.514  18.732  21.160  0.00  0.00    -0.004 C 
ATOM      3  C   UNL     1      43.335  19.567  22.138  0.00  0.00    +0.026 C 
ATOM      4  C   UNL     1      44.824  19.593  21.755  0.00  0.00    +0.027 C 
ATOM      5  C   UNL     1      44.911  20.148  20.345  0.00  0.00    +0.018 C 
ATOM      6  C   UNL     1      46.277  20.150  19.705  0.00  0.00    -0.169 C 
ATOM      7  C   UNL     1      47.587  20.674  20.235  0.00  0.00    +0.128 C 
ATOM      8  C   UNL     1      46.008  19.573  18.560  0.00  0.00    +0.012 C 
ATOM      9  C   UNL     1      46.801  18.328  18.166  0.00  0.00    +0.105 C 
ATOM     10  C   UNL     1      46.271  17.438  19.336  0.00  0.00    +0.035 C 
ATOM     11  C   UNL     1      44.789  17.690  19.573  0.00  0.00    +0.007 C 
ATOM     12  O   UNL     1      44.708  19.630  18.170  0.00  0.00    -0.302 OA
ATOM     13  C   UNL     1      44.207  19.100  19.423  0.00  0.00    +0.060 C 
ATOM     14  C   UNL     1      42.728  19.192  19.708  0.00  0.00    +0.187 C 
ENDROOT
BRANCH  14  15
ATOM     15  O   UNL     1      42.285  20.541  19.554  0.00  0.00    -0.366 OA
ATOM     16  C   UNL     1      41.410  20.743  18.443  0.00  0.00    +0.205 C 
ENDBRANCH  14  15
TORSDOF 1
ENDMDL
MODEL 8
REMARK VINA RESULT:      -4.4     19.418     21.245
REMARK  Name = ZINC95486064
REMARK  4 active torsions:
REMARK  status: ('A' for Active; 'I' for Inactive)
REMARK    1  A    between atoms: C1_1  and  C2_2
REMARK    2  A    between atoms: C6_8  and  C14_19
REMARK    3  A    between atoms: C12_14  and  O1_16
REMARK    4  A    between atoms: O1_16  and  C13_17
REMARK                            x       y       z     vdW  Elec       q    Type
REMARK                         _______ _______ _______ _____ _____    ______ ____
ROOT
ATOM      1  C   UNL     1      51.026  21.573  22.467  0.00  0.00    +0.032 C 
ATOM      2  C   UNL     1      50.854  21.154  21.004  0.00  0.00    -0.004 C 
ATOM      3  C   UNL     1      49.470  20.540  20.822  0.00  0.00    +0.026 C 
ATOM      4  C   UNL     1      49.283  19.968  19.407  0.00  0.00    +0.027 C 
ATOM      5  C   UNL     1      50.378  18.939  19.194  0.00  0.00    +0.018 C 
ATOM      6  C   UNL     1      50.470  18.328  17.817  0.00  0.00    -0.169 C 
ATOM      7  C   UNL     1      49.397  17.693  16.972  0.00  0.00    +0.128 C 
ATOM      8  C   UNL     1      51.744  18.502  17.563  0.00  0.00    +0.012 C 
ATOM      9  C   UNL     1      52.139  19.250  16.290  0.00  0.00    +0.105 C 
ATOM     10  C   UNL     1      51.501  20.611  16.714  0.00  0.00    +0.035 C 
ATOM     11  C   UNL     1      51.746  20.881  18.192  0.00  0.00    +0.007 C 
ATOM     12  O   UNL     1      52.539  18.667  18.651  0.00  0.00    -0.302 OA
ATOM     13  C   UNL     1      51.725  19.732  19.205  0.00  0.00    +0.060 C 
ATOM     14  C   UNL     1      51.967  20.160  20.632  0.00  0.00    +0.187 C 
ENDROOT
BRANCH  14  15
ATOM     15  O   UNL     1      51.915  19.024  21.497  0.00  0.00    -0.366 OA
ATOM     16  C   UNL     1      53.128  18.783  22.213  0.00  0.00    +0.205 C 
ENDBRANCH  14  15
TORSDOF 1
ENDMDL
MODEL 9
REMARK VINA RESULT:      -4.4      1.847      3.369
REMARK  Name = ZINC95486064
REMARK  4 active torsions:
REMARK  status: ('A' for Active; 'I' for Inactive)
REMARK    1  A    between atoms: C1_1  and  C2_2
REMARK    2  A    between atoms: C6_8  and  C14_19
REMARK    3  A    between atoms: C12_14  and  O1_16
REMARK    4  A    between atoms: O1_16  and  C13_17
REMARK                            x       y       z     vdW  Elec       q    Type
REMARK                         _______ _______ _______ _____ _____    ______ ____
ROOT
ATOM      1  C   UNL     1      56.644  31.267   2.872  0.00  0.00    +0.032 C 
ATOM      2  C   UNL     1      55.275  31.713   3.391  0.00  0.00    -0.004 C 
ATOM      3  C   UNL     1      54.362  32.002   2.204  0.00  0.00    +0.026 C 
ATOM      4  C   UNL     1      53.014  32.592   2.652  0.00  0.00    +0.027 C 
ATOM      5  C   UNL     1      53.320  33.855   3.435  0.00  0.00    +0.018 C 
ATOM      6  C   UNL     1      52.145  34.545   4.086  0.00  0.00    -0.169 C 
ATOM      7  C   UNL     1      50.824  34.961   3.494  0.00  0.00    +0.128 C 
ATOM      8  C   UNL     1      52.596  34.683   5.309  0.00  0.00    +0.012 C 
ATOM      9  C   UNL     1      51.766  34.117   6.461  0.00  0.00    +0.105 C 
ATOM     10  C   UNL     1      51.902  32.624   6.021  0.00  0.00    +0.035 C 
ATOM     11  C   UNL     1      53.311  32.337   5.520  0.00  0.00    +0.007 C 
ATOM     12  O   UNL     1      53.947  34.646   5.440  0.00  0.00    -0.302 OA
ATOM     13  C   UNL     1      54.080  33.394   4.721  0.00  0.00    +0.060 C 
ATOM     14  C   UNL     1      55.455  32.956   4.280  0.00  0.00    +0.187 C 
ENDROOT
BRANCH  14  15
ATOM     15  O   UNL     1      56.084  34.001   3.535  0.00  0.00    -0.366 OA
ATOM     16  C   UNL     1      57.171  34.629   4.217  0.00  0.00    +0.205 C 
ENDBRANCH  14  15
TORSDOF 1
ENDMDL
