MODEL 1
REMARK VINA RESULT:      -6.2      0.000      0.000
REMARK  Name = ZINC95486040
REMARK  12 active torsions:
REMARK  status: ('A' for Active; 'I' for Inactive)
REMARK    1  A    between atoms: C1_1  and  C2_2
REMARK    2  A    between atoms: C4_5  and  O6_33
REMARK    3  A    between atoms: C7_11  and  C8_12
REMARK    4  A    between atoms: C7_11  and  C9_13
REMARK    5  A    between atoms: C9_13  and  C10_14
REMARK    6  A    between atoms: C10_14  and  C11_15
REMARK    7  A    between atoms: C18_24  and  C19_26
REMARK    8  A    between atoms: C19_26  and  O3_27
REMARK    9  A    between atoms: O3_27  and  C20_28
REMARK   10  A    between atoms: C20_28  and  C21_30
REMARK   11  A    between atoms: O6_33  and  C23_34
REMARK   12  A    between atoms: C23_34  and  C24_36
REMARK                            x       y       z     vdW  Elec       q    Type
REMARK                         _______ _______ _______ _____ _____    ______ ____
ROOT
ATOM      1  C   UNL     1      46.096  21.131  21.311  0.00  0.00    +0.026 C 
ATOM      2  C   UNL     1      46.828  21.447  20.006  0.00  0.00    -0.003 C 
ATOM      3  C   UNL     1      45.857  21.318  18.830  0.00  0.00    +0.022 C 
ATOM      4  C   UNL     1      45.303  19.892  18.788  0.00  0.00    +0.175 C 
ATOM      9  C   UNL     1      46.452  18.897  18.604  0.00  0.00    +0.042 C 
ATOM     10  C   UNL     1      47.443  19.036  19.762  0.00  0.00    +0.015 C 
ATOM     11  C   UNL     1      48.614  18.069  19.563  0.00  0.00    +0.036 C 
ATOM     12  C   UNL     1      48.101  16.627  19.587  0.00  0.00    +0.054 C 
ATOM     13  C   UNL     1      47.023  16.470  18.510  0.00  0.00    +0.030 C 
ATOM     14  C   UNL     1      47.458  15.986  17.128  0.00  0.00    +0.178 C 
ATOM     15  O   UNL     1      46.733  15.156  18.039  0.00  0.00    -0.332 OA
ATOM     16  C   UNL     1      45.875  17.478  18.582  0.00  0.00    +0.029 C 
ATOM     22  C   UNL     1      47.984  20.462  19.817  0.00  0.00    -0.045 C 
ATOM     31  C   UNL     1      48.961  20.594  20.987  0.00  0.00    +0.032 C 
ENDROOT
BRANCH   4   5
ATOM      5  O   UNL     1      44.623  19.611  20.013  0.00  0.00    -0.331 OA
BRANCH   5   6
ATOM      6  C   UNL     1      43.287  19.736  20.009  0.00  0.00    +0.454 C 
ATOM      7  C   UNL     1      42.574  20.165  18.752  0.00  0.00    +0.152 C 
ATOM      8  O   UNL     1      42.654  19.504  21.012  0.00  0.00    -0.507 OA
ENDBRANCH   5   6
ENDBRANCH   4   5
BRANCH  16  17
ATOM     17  C   UNL     1      45.069  17.233  19.860  0.00  0.00    +0.225 C 
BRANCH  17  18
ATOM     18  O   UNL     1      44.867  15.830  20.035  0.00  0.00    -0.346 OA
BRANCH  18  19
ATOM     19  C   UNL     1      44.814  15.373  21.296  0.00  0.00    +0.459 C 
ATOM     20  C   UNL     1      45.520  14.093  21.664  0.00  0.00    +0.151 C 
ATOM     21  O   UNL     1      44.202  15.989  22.136  0.00  0.00    -0.516 OA
ENDBRANCH  18  19
ENDBRANCH  17  18
ENDBRANCH  16  17
BRANCH  22  23
ATOM     23  C   UNL     1      48.713  20.778  18.509  0.00  0.00    +0.034 C 
BRANCH  23  24
ATOM     24  C   UNL     1      50.217  20.875  18.773  0.00  0.00    +0.107 C 
BRANCH  24  25
ATOM     25  C   UNL     1      50.971  20.313  17.597  0.00  0.00    -0.082 C 
ATOM     26  C   UNL     1      51.024  19.035  17.227  0.00  0.00    -0.072 C 
ATOM     27  C   UNL     1      51.866  18.919  16.031  0.00  0.00    +0.493 C 
ATOM     28  O   UNL     1      52.325  20.133  15.678  0.00  0.00    -0.321 OA
ATOM     29  O   UNL     1      52.111  17.882  15.447  0.00  0.00    -0.454 OA
ATOM     30  C   UNL     1      51.808  21.090  16.608  0.00  0.00    +0.297 C 
ENDBRANCH  24  25
ENDBRANCH  23  24
ENDBRANCH  22  23
TORSDOF 8
ENDMDL
MODEL 2
REMARK VINA RESULT:      -6.0      1.596      2.639
REMARK  Name = ZINC95486040
REMARK  12 active torsions:
REMARK  status: ('A' for Active; 'I' for Inactive)
REMARK    1  A    between atoms: C1_1  and  C2_2
REMARK    2  A    between atoms: C4_5  and  O6_33
REMARK    3  A    between atoms: C7_11  and  C8_12
REMARK    4  A    between atoms: C7_11  and  C9_13
REMARK    5  A    between atoms: C9_13  and  C10_14
REMARK    6  A    between atoms: C10_14  and  C11_15
REMARK    7  A    between atoms: C18_24  and  C19_26
REMARK    8  A    between atoms: C19_26  and  O3_27
REMARK    9  A    between atoms: O3_27  and  C20_28
REMARK   10  A    between atoms: C20_28  and  C21_30
REMARK   11  A    between atoms: O6_33  and  C23_34
REMARK   12  A    between atoms: C23_34  and  C24_36
REMARK                            x       y       z     vdW  Elec       q    Type
REMARK                         _______ _______ _______ _____ _____    ______ ____
ROOT
ATOM      1  C   UNL     1      47.638  21.333  21.475  0.00  0.00    +0.026 C 
ATOM      2  C   UNL     1      48.447  20.701  20.342  0.00  0.00    -0.003 C 
ATOM      3  C   UNL     1      47.591  20.641  19.074  0.00  0.00    +0.022 C 
ATOM      4  C   UNL     1      46.337  19.809  19.351  0.00  0.00    +0.175 C 
ATOM      9  C   UNL     1      46.740  18.388  19.755  0.00  0.00    +0.042 C 
ATOM     10  C   UNL     1      47.618  18.438  21.007  0.00  0.00    +0.015 C 
ATOM     11  C   UNL     1      48.054  17.022  21.394  0.00  0.00    +0.036 C 
ATOM     12  C   UNL     1      46.823  16.182  21.746  0.00  0.00    +0.054 C 
ATOM     13  C   UNL     1      45.862  16.193  20.553  0.00  0.00    +0.030 C 
ATOM     14  C   UNL     1      45.980  15.065  19.530  0.00  0.00    +0.178 C 
ATOM     15  O   UNL     1      44.898  15.147  20.461  0.00  0.00    -0.332 OA
ATOM     16  C   UNL     1      45.470  17.580  20.043  0.00  0.00    +0.029 C 
ATOM     22  C   UNL     1      48.860  19.283  20.739  0.00  0.00    -0.045 C 
ATOM     31  C   UNL     1      49.723  19.339  22.002  0.00  0.00    +0.032 C 
ENDROOT
BRANCH   4   5
ATOM      5  O   UNL     1      45.592  20.411  20.412  0.00  0.00    -0.331 OA
BRANCH   5   6
ATOM      6  C   UNL     1      44.647  21.298  20.064  0.00  0.00    +0.454 C 
ATOM      7  C   UNL     1      44.463  22.557  20.871  0.00  0.00    +0.152 C 
ATOM      8  O   UNL     1      43.944  21.088  19.103  0.00  0.00    -0.507 OA
ENDBRANCH   5   6
ENDBRANCH   4   5
BRANCH  16  17
ATOM     17  C   UNL     1      44.640  18.295  21.113  0.00  0.00    +0.225 C 
BRANCH  17  18
ATOM     18  O   UNL     1      43.270  17.909  20.989  0.00  0.00    -0.346 OA
BRANCH  18  19
ATOM     19  C   UNL     1      42.348  18.800  21.389  0.00  0.00    +0.459 C 
ATOM     20  C   UNL     1      41.255  19.227  20.443  0.00  0.00    +0.151 C 
ATOM     21  O   UNL     1      42.396  19.258  22.505  0.00  0.00    -0.516 OA
ENDBRANCH  18  19
ENDBRANCH  17  18
ENDBRANCH  16  17
BRANCH  22  23
ATOM     23  C   UNL     1      49.666  18.650  19.603  0.00  0.00    +0.034 C 
BRANCH  23  24
ATOM     24  C   UNL     1      51.083  19.228  19.598  0.00  0.00    +0.107 C 
BRANCH  24  25
ATOM     25  C   UNL     1      51.418  19.727  18.217  0.00  0.00    -0.082 C 
ATOM     26  C   UNL     1      51.108  20.917  17.707  0.00  0.00    -0.072 C 
ATOM     27  C   UNL     1      51.620  20.997  16.335  0.00  0.00    +0.493 C 
ATOM     28  O   UNL     1      52.243  19.848  16.014  0.00  0.00    -0.321 OA
ATOM     29  O   UNL     1      51.502  21.957  15.600  0.00  0.00    -0.454 OA
ATOM     30  C   UNL     1      52.174  18.976  17.146  0.00  0.00    +0.297 C 
ENDBRANCH  24  25
ENDBRANCH  23  24
ENDBRANCH  22  23
TORSDOF 8
ENDMDL
MODEL 3
REMARK VINA RESULT:      -6.0      2.052      6.538
REMARK  Name = ZINC95486040
REMARK  12 active torsions:
REMARK  status: ('A' for Active; 'I' for Inactive)
REMARK    1  A    between atoms: C1_1  and  C2_2
REMARK    2  A    between atoms: C4_5  and  O6_33
REMARK    3  A    between atoms: C7_11  and  C8_12
REMARK    4  A    between atoms: C7_11  and  C9_13
REMARK    5  A    between atoms: C9_13  and  C10_14
REMARK    6  A    between atoms: C10_14  and  C11_15
REMARK    7  A    between atoms: C18_24  and  C19_26
REMARK    8  A    between atoms: C19_26  and  O3_27
REMARK    9  A    between atoms: O3_27  and  C20_28
REMARK   10  A    between atoms: C20_28  and  C21_30
REMARK   11  A    between atoms: O6_33  and  C23_34
REMARK   12  A    between atoms: C23_34  and  C24_36
REMARK                            x       y       z     vdW  Elec       q    Type
REMARK                         _______ _______ _______ _____ _____    ______ ____
ROOT
ATOM      1  C   UNL     1      49.411  20.852  18.875  0.00  0.00    +0.026 C 
ATOM      2  C   UNL     1      48.461  20.547  20.035  0.00  0.00    -0.003 C 
ATOM      3  C   UNL     1      49.068  19.453  20.917  0.00  0.00    +0.022 C 
ATOM      4  C   UNL     1      49.292  18.194  20.077  0.00  0.00    +0.175 C 
ATOM      9  C   UNL     1      47.955  17.704  19.514  0.00  0.00    +0.042 C 
ATOM     10  C   UNL     1      47.328  18.800  18.650  0.00  0.00    +0.015 C 
ATOM     11  C   UNL     1      45.973  18.329  18.115  0.00  0.00    +0.036 C 
ATOM     12  C   UNL     1      46.171  17.110  17.212  0.00  0.00    +0.054 C 
ATOM     13  C   UNL     1      46.896  16.021  18.007  0.00  0.00    +0.030 C 
ATOM     14  C   UNL     1      46.046  14.981  18.735  0.00  0.00    +0.178 C 
ATOM     15  O   UNL     1      46.788  14.674  17.552  0.00  0.00    -0.332 OA
ATOM     16  C   UNL     1      48.207  16.454  18.664  0.00  0.00    +0.029 C 
ATOM     22  C   UNL     1      47.120  20.063  19.481  0.00  0.00    -0.045 C 
ATOM     31  C   UNL     1      46.507  21.158  18.605  0.00  0.00    +0.032 C 
ENDROOT
BRANCH   4   5
ATOM      5  O   UNL     1      50.180  18.494  18.998  0.00  0.00    -0.331 OA
BRANCH   5   6
ATOM      6  C   UNL     1      51.487  18.275  19.208  0.00  0.00    +0.454 C 
ATOM      7  C   UNL     1      52.512  18.929  18.318  0.00  0.00    +0.152 C 
ATOM      8  O   UNL     1      51.843  17.554  20.110  0.00  0.00    -0.507 OA
ENDBRANCH   5   6
ENDBRANCH   4   5
BRANCH  16  17
ATOM     17  C   UNL     1      49.235  16.775  17.576  0.00  0.00    +0.225 C 
BRANCH  17  18
ATOM     18  O   UNL     1      49.798  15.559  17.079  0.00  0.00    -0.346 OA
BRANCH  18  19
ATOM     19  C   UNL     1      51.134  15.440  17.131  0.00  0.00    +0.459 C 
ATOM     20  C   UNL     1      51.771  14.549  18.166  0.00  0.00    +0.151 C 
ATOM     21  O   UNL     1      51.825  16.048  16.349  0.00  0.00    -0.516 OA
ENDBRANCH  18  19
ENDBRANCH  17  18
ENDBRANCH  16  17
BRANCH  22  23
ATOM     23  C   UNL     1      46.172  19.754  20.643  0.00  0.00    +0.034 C 
BRANCH  23  24
ATOM     24  C   UNL     1      45.096  20.839  20.727  0.00  0.00    +0.107 C 
BRANCH  24  25
ATOM     25  C   UNL     1      43.751  20.237  20.417  0.00  0.00    -0.082 C 
ATOM     26  C   UNL     1      42.996  20.488  19.350  0.00  0.00    -0.072 C 
ATOM     27  C   UNL     1      41.766  19.694  19.437  0.00  0.00    +0.493 C 
ATOM     28  O   UNL     1      41.777  18.959  20.564  0.00  0.00    -0.321 OA
ATOM     29  O   UNL     1      40.872  19.698  18.614  0.00  0.00    -0.454 OA
ATOM     30  C   UNL     1      43.000  19.229  21.256  0.00  0.00    +0.297 C 
ENDBRANCH  24  25
ENDBRANCH  23  24
ENDBRANCH  22  23
TORSDOF 8
ENDMDL
MODEL 4
REMARK VINA RESULT:      -5.9      2.158      6.587
REMARK  Name = ZINC95486040
REMARK  12 active torsions:
REMARK  status: ('A' for Active; 'I' for Inactive)
REMARK    1  A    between atoms: C1_1  and  C2_2
REMARK    2  A    between atoms: C4_5  and  O6_33
REMARK    3  A    between atoms: C7_11  and  C8_12
REMARK    4  A    between atoms: C7_11  and  C9_13
REMARK    5  A    between atoms: C9_13  and  C10_14
REMARK    6  A    between atoms: C10_14  and  C11_15
REMARK    7  A    between atoms: C18_24  and  C19_26
REMARK    8  A    between atoms: C19_26  and  O3_27
REMARK    9  A    between atoms: O3_27  and  C20_28
REMARK   10  A    between atoms: C20_28  and  C21_30
REMARK   11  A    between atoms: O6_33  and  C23_34
REMARK   12  A    between atoms: C23_34  and  C24_36
REMARK                            x       y       z     vdW  Elec       q    Type
REMARK                         _______ _______ _______ _____ _____    ______ ____
ROOT
ATOM      1  C   UNL     1      47.101  17.135  20.727  0.00  0.00    +0.026 C 
ATOM      2  C   UNL     1      46.490  18.200  19.816  0.00  0.00    -0.003 C 
ATOM      3  C   UNL     1      46.654  17.778  18.354  0.00  0.00    +0.022 C 
ATOM      4  C   UNL     1      48.143  17.613  18.041  0.00  0.00    +0.175 C 
ATOM      9  C   UNL     1      48.869  18.942  18.267  0.00  0.00    +0.042 C 
ATOM     10  C   UNL     1      48.689  19.387  19.720  0.00  0.00    +0.015 C 
ATOM     11  C   UNL     1      49.381  20.734  19.941  0.00  0.00    +0.036 C 
ATOM     12  C   UNL     1      50.886  20.585  19.705  0.00  0.00    +0.054 C 
ATOM     13  C   UNL     1      51.110  20.037  18.292  0.00  0.00    +0.030 C 
ATOM     14  C   UNL     1      51.326  21.042  17.162  0.00  0.00    +0.178 C 
ATOM     15  O   UNL     1      52.386  20.241  17.689  0.00  0.00    -0.332 OA
ATOM     16  C   UNL     1      50.358  18.747  17.965  0.00  0.00    +0.029 C 
ATOM     22  C   UNL     1      47.204  19.535  20.039  0.00  0.00    -0.045 C 
ATOM     31  C   UNL     1      47.034  19.964  21.499  0.00  0.00    +0.032 C 
ENDROOT
BRANCH   4   5
ATOM      5  O   UNL     1      48.701  16.616  18.900  0.00  0.00    -0.331 OA
BRANCH   5   6
ATOM      6  C   UNL     1      48.705  15.354  18.444  0.00  0.00    +0.454 C 
ATOM      7  C   UNL     1      48.890  15.086  16.972  0.00  0.00    +0.152 C 
ATOM      8  O   UNL     1      48.561  14.432  19.212  0.00  0.00    -0.507 OA
ENDBRANCH   5   6
ENDBRANCH   4   5
BRANCH  16  17
ATOM     17  C   UNL     1      50.911  17.609  18.826  0.00  0.00    +0.225 C 
BRANCH  17  18
ATOM     18  O   UNL     1      51.972  16.955  18.129  0.00  0.00    -0.346 OA
BRANCH  18  19
ATOM     19  C   UNL     1      52.755  16.132  18.843  0.00  0.00    +0.459 C 
ATOM     20  C   UNL     1      52.290  14.733  19.159  0.00  0.00    +0.151 C 
ATOM     21  O   UNL     1      53.833  16.513  19.234  0.00  0.00    -0.516 OA
ENDBRANCH  18  19
ENDBRANCH  17  18
ENDBRANCH  16  17
BRANCH  22  23
ATOM     23  C   UNL     1      46.593  20.598  19.124  0.00  0.00    +0.034 C 
BRANCH  23  24
ATOM     24  C   UNL     1      45.807  21.606  19.965  0.00  0.00    +0.107 C 
BRANCH  24  25
ATOM     25  C   UNL     1      44.353  21.563  19.573  0.00  0.00    -0.082 C 
ATOM     26  C   UNL     1      43.679  20.498  19.142  0.00  0.00    -0.072 C 
ATOM     27  C   UNL     1      42.292  20.889  18.871  0.00  0.00    +0.493 C 
ATOM     28  O   UNL     1      42.127  22.197  19.138  0.00  0.00    -0.321 OA
ATOM     29  O   UNL     1      41.422  20.143  18.467  0.00  0.00    -0.454 OA
ATOM     30  C   UNL     1      43.378  22.717  19.597  0.00  0.00    +0.297 C 
ENDBRANCH  24  25
ENDBRANCH  23  24
ENDBRANCH  22  23
TORSDOF 8
ENDMDL
MODEL 5
REMARK VINA RESULT:      -5.3      2.197      6.161
REMARK  Name = ZINC95486040
REMARK  12 active torsions:
REMARK  status: ('A' for Active; 'I' for Inactive)
REMARK    1  A    between atoms: C1_1  and  C2_2
REMARK    2  A    between atoms: C4_5  and  O6_33
REMARK    3  A    between atoms: C7_11  and  C8_12
REMARK    4  A    between atoms: C7_11  and  C9_13
REMARK    5  A    between atoms: C9_13  and  C10_14
REMARK    6  A    between atoms: C10_14  and  C11_15
REMARK    7  A    between atoms: C18_24  and  C19_26
REMARK    8  A    between atoms: C19_26  and  O3_27
REMARK    9  A    between atoms: O3_27  and  C20_28
REMARK   10  A    between atoms: C20_28  and  C21_30
REMARK   11  A    between atoms: O6_33  and  C23_34
REMARK   12  A    between atoms: C23_34  and  C24_36
REMARK                            x       y       z     vdW  Elec       q    Type
REMARK                         _______ _______ _______ _____ _____    ______ ____
ROOT
ATOM      1  C   UNL     1      47.616  16.605  20.659  0.00  0.00    +0.026 C 
ATOM      2  C   UNL     1      47.180  17.959  20.097  0.00  0.00    -0.003 C 
ATOM      3  C   UNL     1      46.656  17.775  18.670  0.00  0.00    +0.022 C 
ATOM      4  C   UNL     1      47.763  17.178  17.800  0.00  0.00    +0.175 C 
ATOM      9  C   UNL     1      48.968  18.123  17.776  0.00  0.00    +0.042 C 
ATOM     10  C   UNL     1      49.484  18.334  19.201  0.00  0.00    +0.015 C 
ATOM     11  C   UNL     1      50.666  19.307  19.187  0.00  0.00    +0.036 C 
ATOM     12  C   UNL     1      51.819  18.706  18.380  0.00  0.00    +0.054 C 
ATOM     13  C   UNL     1      51.316  18.378  16.972  0.00  0.00    +0.030 C 
ATOM     14  C   UNL     1      51.490  19.437  15.885  0.00  0.00    +0.178 C 
ATOM     15  O   UNL     1      52.279  18.246  15.930  0.00  0.00    -0.332 OA
ATOM     16  C   UNL     1      50.068  17.496  16.913  0.00  0.00    +0.029 C 
ATOM     22  C   UNL     1      48.376  18.912  20.076  0.00  0.00    -0.045 C 
ATOM     31  C   UNL     1      48.898  19.105  21.502  0.00  0.00    +0.032 C 
ENDROOT
BRANCH   4   5
ATOM      5  O   UNL     1      48.161  15.915  18.337  0.00  0.00    -0.331 OA
BRANCH   5   6
ATOM      6  C   UNL     1      47.580  14.823  17.817  0.00  0.00    +0.454 C 
ATOM      7  C   UNL     1      47.625  13.516  18.566  0.00  0.00    +0.152 C 
ATOM      8  O   UNL     1      47.019  14.886  16.748  0.00  0.00    -0.507 OA
ENDBRANCH   5   6
ENDBRANCH   4   5
BRANCH  16  17
ATOM     17  C   UNL     1      50.409  16.104  17.449  0.00  0.00    +0.225 C 
BRANCH  17  18
ATOM     18  O   UNL     1      51.081  15.354  16.436  0.00  0.00    -0.346 OA
BRANCH  18  19
ATOM     19  C   UNL     1      50.852  14.031  16.403  0.00  0.00    +0.459 C 
ATOM     20  C   UNL     1      51.575  13.118  17.360  0.00  0.00    +0.151 C 
ATOM     21  O   UNL     1      50.068  13.574  15.607  0.00  0.00    -0.516 OA
ENDBRANCH  18  19
ENDBRANCH  17  18
ENDBRANCH  16  17
BRANCH  22  23
ATOM     23  C   UNL     1      47.938  20.265  19.510  0.00  0.00    +0.034 C 
BRANCH  23  24
ATOM     24  C   UNL     1      47.813  21.279  20.649  0.00  0.00    +0.107 C 
BRANCH  24  25
ATOM     25  C   UNL     1      46.414  21.837  20.673  0.00  0.00    -0.082 C 
ATOM     26  C   UNL     1      45.478  21.674  19.740  0.00  0.00    -0.072 C 
ATOM     27  C   UNL     1      44.262  22.381  20.154  0.00  0.00    +0.493 C 
ATOM     28  O   UNL     1      44.464  22.975  21.344  0.00  0.00    -0.321 OA
ATOM     29  O   UNL     1      43.227  22.421  19.519  0.00  0.00    -0.454 OA
ATOM     30  C   UNL     1      45.801  22.685  21.763  0.00  0.00    +0.297 C 
ENDBRANCH  24  25
ENDBRANCH  23  24
ENDBRANCH  22  23
TORSDOF 8
ENDMDL
MODEL 6
REMARK VINA RESULT:      -5.3      2.167      6.944
REMARK  Name = ZINC95486040
REMARK  12 active torsions:
REMARK  status: ('A' for Active; 'I' for Inactive)
REMARK    1  A    between atoms: C1_1  and  C2_2
REMARK    2  A    between atoms: C4_5  and  O6_33
REMARK    3  A    between atoms: C7_11  and  C8_12
REMARK    4  A    between atoms: C7_11  and  C9_13
REMARK    5  A    between atoms: C9_13  and  C10_14
REMARK    6  A    between atoms: C10_14  and  C11_15
REMARK    7  A    between atoms: C18_24  and  C19_26
REMARK    8  A    between atoms: C19_26  and  O3_27
REMARK    9  A    between atoms: O3_27  and  C20_28
REMARK   10  A    between atoms: C20_28  and  C21_30
REMARK   11  A    between atoms: O6_33  and  C23_34
REMARK   12  A    between atoms: C23_34  and  C24_36
REMARK                            x       y       z     vdW  Elec       q    Type
REMARK                         _______ _______ _______ _____ _____    ______ ____
ROOT
ATOM      1  C   UNL     1      46.189  15.482  20.534  0.00  0.00    +0.026 C 
ATOM      2  C   UNL     1      45.400  16.657  19.955  0.00  0.00    -0.003 C 
ATOM      3  C   UNL     1      45.670  16.763  18.452  0.00  0.00    +0.022 C 
ATOM      4  C   UNL     1      47.168  16.974  18.222  0.00  0.00    +0.175 C 
ATOM      9  C   UNL     1      47.618  18.267  18.909  0.00  0.00    +0.042 C 
ATOM     10  C   UNL     1      47.329  18.181  20.408  0.00  0.00    +0.015 C 
ATOM     11  C   UNL     1      47.744  19.486  21.093  0.00  0.00    +0.036 C 
ATOM     12  C   UNL     1      49.253  19.691  20.942  0.00  0.00    +0.054 C 
ATOM     13  C   UNL     1      49.605  19.675  19.452  0.00  0.00    +0.030 C 
ATOM     14  C   UNL     1      49.643  21.011  18.712  0.00  0.00    +0.178 C 
ATOM     15  O   UNL     1      50.828  20.285  19.046  0.00  0.00    -0.332 OA
ATOM     16  C   UNL     1      49.123  18.447  18.680  0.00  0.00    +0.029 C 
ATOM     22  C   UNL     1      45.838  17.953  20.639  0.00  0.00    -0.045 C 
ATOM     31  C   UNL     1      45.562  17.853  22.141  0.00  0.00    +0.032 C 
ENDROOT
BRANCH   4   5
ATOM      5  O   UNL     1      47.892  15.870  18.769  0.00  0.00    -0.331 OA
BRANCH   5   6
ATOM      6  C   UNL     1      48.126  14.832  17.951  0.00  0.00    +0.454 C 
ATOM      7  C   UNL     1      48.357  13.458  18.525  0.00  0.00    +0.152 C 
ATOM      8  O   UNL     1      48.152  14.998  16.754  0.00  0.00    -0.507 OA
ENDBRANCH   5   6
ENDBRANCH   4   5
BRANCH  16  17
ATOM     17  C   UNL     1      49.869  17.209  19.184  0.00  0.00    +0.225 C 
BRANCH  17  18
ATOM     18  O   UNL     1      51.208  17.223  18.685  0.00  0.00    -0.346 OA
BRANCH  18  19
ATOM     19  C   UNL     1      51.381  16.895  17.395  0.00  0.00    +0.459 C 
ATOM     20  C   UNL     1      51.579  17.974  16.362  0.00  0.00    +0.151 C 
ATOM     21  O   UNL     1      51.378  15.733  17.062  0.00  0.00    -0.516 OA
ENDBRANCH  18  19
ENDBRANCH  17  18
ENDBRANCH  16  17
BRANCH  22  23
ATOM     23  C   UNL     1      45.050  19.128  20.056  0.00  0.00    +0.034 C 
BRANCH  23  24
ATOM     24  C   UNL     1      43.680  19.210  20.732  0.00  0.00    +0.107 C 
BRANCH  24  25
ATOM     25  C   UNL     1      42.781  20.120  19.937  0.00  0.00    -0.082 C 
ATOM     26  C   UNL     1      41.581  19.819  19.446  0.00  0.00    -0.072 C 
ATOM     27  C   UNL     1      41.047  20.987  18.737  0.00  0.00    +0.493 C 
ATOM     28  O   UNL     1      41.931  22.000  18.800  0.00  0.00    -0.321 OA
ATOM     29  O   UNL     1      39.969  21.034  18.180  0.00  0.00    -0.454 OA
ATOM     30  C   UNL     1      43.066  21.552  19.547  0.00  0.00    +0.297 C 
ENDBRANCH  24  25
ENDBRANCH  23  24
ENDBRANCH  22  23
TORSDOF 8
ENDMDL
MODEL 7
REMARK VINA RESULT:      -5.3      3.467      6.510
REMARK  Name = ZINC95486040
REMARK  12 active torsions:
REMARK  status: ('A' for Active; 'I' for Inactive)
REMARK    1  A    between atoms: C1_1  and  C2_2
REMARK    2  A    between atoms: C4_5  and  O6_33
REMARK    3  A    between atoms: C7_11  and  C8_12
REMARK    4  A    between atoms: C7_11  and  C9_13
REMARK    5  A    between atoms: C9_13  and  C10_14
REMARK    6  A    between atoms: C10_14  and  C11_15
REMARK    7  A    between atoms: C18_24  and  C19_26
REMARK    8  A    between atoms: C19_26  and  O3_27
REMARK    9  A    between atoms: O3_27  and  C20_28
REMARK   10  A    between atoms: C20_28  and  C21_30
REMARK   11  A    between atoms: O6_33  and  C23_34
REMARK   12  A    between atoms: C23_34  and  C24_36
REMARK                            x       y       z     vdW  Elec       q    Type
REMARK                         _______ _______ _______ _____ _____    ______ ____
ROOT
ATOM      1  C   UNL     1      52.724  17.364  18.823  0.00  0.00    +0.026 C 
ATOM      2  C   UNL     1      52.261  16.558  17.609  0.00  0.00    -0.003 C 
ATOM      3  C   UNL     1      51.750  17.512  16.526  0.00  0.00    +0.022 C 
ATOM      4  C   UNL     1      50.586  18.333  17.086  0.00  0.00    +0.175 C 
ATOM      9  C   UNL     1      49.451  17.396  17.509  0.00  0.00    +0.042 C 
ATOM     10  C   UNL     1      49.958  16.421  18.573  0.00  0.00    +0.015 C 
ATOM     11  C   UNL     1      48.836  15.459  18.974  0.00  0.00    +0.036 C 
ATOM     12  C   UNL     1      47.683  16.244  19.603  0.00  0.00    +0.054 C 
ATOM     13  C   UNL     1      47.213  17.309  18.608  0.00  0.00    +0.030 C 
ATOM     14  C   UNL     1      46.068  16.949  17.664  0.00  0.00    +0.178 C 
ATOM     15  O   UNL     1      45.900  17.841  18.768  0.00  0.00    -0.332 OA
ATOM     16  C   UNL     1      48.306  18.239  18.081  0.00  0.00    +0.029 C 
ATOM     22  C   UNL     1      51.131  15.614  18.024  0.00  0.00    -0.045 C 
ATOM     31  C   UNL     1      51.640  14.653  19.101  0.00  0.00    +0.032 C 
ENDROOT
BRANCH   4   5
ATOM      5  O   UNL     1      51.033  19.080  18.219  0.00  0.00    -0.331 OA
BRANCH   5   6
ATOM      6  C   UNL     1      51.613  20.265  17.975  0.00  0.00    +0.454 C 
ATOM      7  C   UNL     1      51.291  21.015  16.708  0.00  0.00    +0.152 C 
ATOM      8  O   UNL     1      52.393  20.732  18.772  0.00  0.00    -0.507 OA
ENDBRANCH   5   6
ENDBRANCH   4   5
BRANCH  16  17
ATOM     17  C   UNL     1      48.830  19.103  19.230  0.00  0.00    +0.225 C 
BRANCH  17  18
ATOM     18  O   UNL     1      48.366  20.444  19.069  0.00  0.00    -0.346 OA
BRANCH  18  19
ATOM     19  C   UNL     1      47.213  20.767  19.677  0.00  0.00    +0.459 C 
ATOM     20  C   UNL     1      46.057  21.296  18.867  0.00  0.00    +0.151 C 
ATOM     21  O   UNL     1      47.103  20.635  20.873  0.00  0.00    -0.516 OA
ENDBRANCH  18  19
ENDBRANCH  17  18
ENDBRANCH  16  17
BRANCH  22  23
ATOM     23  C   UNL     1      50.666  14.811  16.807  0.00  0.00    +0.034 C 
BRANCH  23  24
ATOM     24  C   UNL     1      51.402  13.470  16.768  0.00  0.00    +0.107 C 
BRANCH  24  25
ATOM     25  C   UNL     1      51.140  12.791  15.449  0.00  0.00    -0.082 C 
ATOM     26  C   UNL     1      51.386  13.287  14.239  0.00  0.00    -0.072 C 
ATOM     27  C   UNL     1      50.984  12.303  13.228  0.00  0.00    +0.493 C 
ATOM     28  O   UNL     1      50.490  11.206  13.832  0.00  0.00    -0.321 OA
ATOM     29  O   UNL     1      51.083  12.455  12.027  0.00  0.00    -0.454 OA
ATOM     30  C   UNL     1      50.551  11.414  15.246  0.00  0.00    +0.297 C 
ENDBRANCH  24  25
ENDBRANCH  23  24
ENDBRANCH  22  23
TORSDOF 8
ENDMDL
MODEL 8
REMARK VINA RESULT:      -5.2      4.138      5.955
REMARK  Name = ZINC95486040
REMARK  12 active torsions:
REMARK  status: ('A' for Active; 'I' for Inactive)
REMARK    1  A    between atoms: C1_1  and  C2_2
REMARK    2  A    between atoms: C4_5  and  O6_33
REMARK    3  A    between atoms: C7_11  and  C8_12
REMARK    4  A    between atoms: C7_11  and  C9_13
REMARK    5  A    between atoms: C9_13  and  C10_14
REMARK    6  A    between atoms: C10_14  and  C11_15
REMARK    7  A    between atoms: C18_24  and  C19_26
REMARK    8  A    between atoms: C19_26  and  O3_27
REMARK    9  A    between atoms: O3_27  and  C20_28
REMARK   10  A    between atoms: C20_28  and  C21_30
REMARK   11  A    between atoms: O6_33  and  C23_34
REMARK   12  A    between atoms: C23_34  and  C24_36
REMARK                            x       y       z     vdW  Elec       q    Type
REMARK                         _______ _______ _______ _____ _____    ______ ____
ROOT
ATOM      1  C   UNL     1      48.859  15.712  19.897  0.00  0.00    +0.026 C 
ATOM      2  C   UNL     1      49.836  16.405  18.947  0.00  0.00    -0.003 C 
ATOM      3  C   UNL     1      49.250  16.422  17.533  0.00  0.00    +0.022 C 
ATOM      4  C   UNL     1      49.001  14.985  17.072  0.00  0.00    +0.175 C 
ATOM      9  C   UNL     1      50.323  14.211  17.060  0.00  0.00    +0.042 C 
ATOM     10  C   UNL     1      50.931  14.210  18.464  0.00  0.00    +0.015 C 
ATOM     11  C   UNL     1      52.272  13.469  18.449  0.00  0.00    +0.036 C 
ATOM     12  C   UNL     1      52.048  12.006  18.060  0.00  0.00    +0.054 C 
ATOM     13  C   UNL     1      51.340  11.961  16.703  0.00  0.00    +0.030 C 
ATOM     14  C   UNL     1      52.205  11.860  15.448  0.00  0.00    +0.178 C 
ATOM     15  O   UNL     1      51.433  10.762  15.938  0.00  0.00    -0.332 OA
ATOM     16  C   UNL     1      50.046  12.771  16.613  0.00  0.00    +0.029 C 
ATOM     22  C   UNL     1      51.163  15.643  18.933  0.00  0.00    -0.045 C 
ATOM     31  C   UNL     1      51.757  15.631  20.344  0.00  0.00    +0.032 C 
ENDROOT
BRANCH   4   5
ATOM      5  O   UNL     1      48.088  14.349  17.969  0.00  0.00    -0.331 OA
BRANCH   5   6
ATOM      6  C   UNL     1      46.791  14.365  17.628  0.00  0.00    +0.454 C 
ATOM      7  C   UNL     1      45.734  14.093  18.668  0.00  0.00    +0.152 C 
ATOM      8  O   UNL     1      46.468  14.597  16.486  0.00  0.00    -0.507 OA
ENDBRANCH   5   6
ENDBRANCH   4   5
BRANCH  16  17
ATOM     17  C   UNL     1      48.993  12.144  17.529  0.00  0.00    +0.225 C 
BRANCH  17  18
ATOM     18  O   UNL     1      48.534  10.918  16.958  0.00  0.00    -0.346 OA
BRANCH  18  19
ATOM     19  C   UNL     1      47.598  11.004  16.000  0.00  0.00    +0.459 C 
ATOM     20  C   UNL     1      46.139  11.051  16.374  0.00  0.00    +0.151 C 
ATOM     21  O   UNL     1      47.926  11.044  14.838  0.00  0.00    -0.516 OA
ENDBRANCH  18  19
ENDBRANCH  17  18
ENDBRANCH  16  17
BRANCH  22  23
ATOM     23  C   UNL     1      52.138  16.336  17.979  0.00  0.00    +0.034 C 
BRANCH  23  24
ATOM     24  C   UNL     1      52.425  17.753  18.481  0.00  0.00    +0.107 C 
BRANCH  24  25
ATOM     25  C   UNL     1      52.108  18.745  17.393  0.00  0.00    -0.082 C 
ATOM     26  C   UNL     1      51.942  20.058  17.540  0.00  0.00    -0.072 C 
ATOM     27  C   UNL     1      51.648  20.653  16.232  0.00  0.00    +0.493 C 
ATOM     28  O   UNL     1      51.634  19.693  15.289  0.00  0.00    -0.321 OA
ATOM     29  O   UNL     1      51.448  21.834  16.030  0.00  0.00    -0.454 OA
ATOM     30  C   UNL     1      51.922  18.443  15.924  0.00  0.00    +0.297 C 
ENDBRANCH  24  25
ENDBRANCH  23  24
ENDBRANCH  22  23
TORSDOF 8
ENDMDL
MODEL 9
REMARK VINA RESULT:      -5.0      2.376      6.407
REMARK  Name = ZINC95486040
REMARK  12 active torsions:
REMARK  status: ('A' for Active; 'I' for Inactive)
REMARK    1  A    between atoms: C1_1  and  C2_2
REMARK    2  A    between atoms: C4_5  and  O6_33
REMARK    3  A    between atoms: C7_11  and  C8_12
REMARK    4  A    between atoms: C7_11  and  C9_13
REMARK    5  A    between atoms: C9_13  and  C10_14
REMARK    6  A    between atoms: C10_14  and  C11_15
REMARK    7  A    between atoms: C18_24  and  C19_26
REMARK    8  A    between atoms: C19_26  and  O3_27
REMARK    9  A    between atoms: O3_27  and  C20_28
REMARK   10  A    between atoms: C20_28  and  C21_30
REMARK   11  A    between atoms: O6_33  and  C23_34
REMARK   12  A    between atoms: C23_34  and  C24_36
REMARK                            x       y       z     vdW  Elec       q    Type
REMARK                         _______ _______ _______ _____ _____    ______ ____
ROOT
ATOM      1  C   UNL     1      51.648  19.159  18.986  0.00  0.00    +0.026 C 
ATOM      2  C   UNL     1      50.708  19.376  20.172  0.00  0.00    -0.003 C 
ATOM      3  C   UNL     1      50.729  18.139  21.074  0.00  0.00    +0.022 C 
ATOM      4  C   UNL     1      50.282  16.919  20.268  0.00  0.00    +0.175 C 
ATOM      9  C   UNL     1      48.859  17.138  19.746  0.00  0.00    +0.042 C 
ATOM     10  C   UNL     1      48.821  18.387  18.863  0.00  0.00    +0.015 C 
ATOM     11  C   UNL     1      47.393  18.632  18.369  0.00  0.00    +0.036 C 
ATOM     12  C   UNL     1      46.940  17.457  17.498  0.00  0.00    +0.054 C 
ATOM     13  C   UNL     1      47.065  16.165  18.311  0.00  0.00    +0.030 C 
ATOM     14  C   UNL     1      45.838  15.687  19.085  0.00  0.00    +0.178 C 
ATOM     15  O   UNL     1      46.297  15.037  17.898  0.00  0.00    -0.332 OA
ATOM     16  C   UNL     1      48.440  15.911  18.928  0.00  0.00    +0.029 C 
ATOM     22  C   UNL     1      49.284  19.603  19.660  0.00  0.00    -0.045 C 
ATOM     31  C   UNL     1      49.258  20.843  18.764  0.00  0.00    +0.032 C 
ENDROOT
BRANCH   4   5
ATOM      5  O   UNL     1      51.168  16.729  19.163  0.00  0.00    -0.331 OA
BRANCH   5   6
ATOM      6  C   UNL     1      52.225  15.926  19.363  0.00  0.00    +0.454 C 
ATOM      7  C   UNL     1      52.112  14.752  20.301  0.00  0.00    +0.152 C 
ATOM      8  O   UNL     1      53.267  16.144  18.791  0.00  0.00    -0.507 OA
ENDBRANCH   5   6
ENDBRANCH   4   5
BRANCH  16  17
ATOM     17  C   UNL     1      49.458  15.670  17.811  0.00  0.00    +0.225 C 
BRANCH  17  18
ATOM     18  O   UNL     1      49.628  14.265  17.616  0.00  0.00    -0.346 OA
BRANCH  18  19
ATOM     19  C   UNL     1      49.606  13.817  16.351  0.00  0.00    +0.459 C 
ATOM     20  C   UNL     1      50.899  13.564  15.619  0.00  0.00    +0.151 C 
ATOM     21  O   UNL     1      48.550  13.617  15.800  0.00  0.00    -0.516 OA
ENDBRANCH  18  19
ENDBRANCH  17  18
ENDBRANCH  16  17
BRANCH  22  23
ATOM     23  C   UNL     1      48.344  19.817  20.849  0.00  0.00    +0.034 C 
BRANCH  23  24
ATOM     24  C   UNL     1      47.834  21.259  20.844  0.00  0.00    +0.107 C 
BRANCH  24  25
ATOM     25  C   UNL     1      46.332  21.260  20.726  0.00  0.00    -0.082 C 
ATOM     26  C   UNL     1      45.597  22.063  19.960  0.00  0.00    -0.072 C 
ATOM     27  C   UNL     1      44.180  21.732  20.141  0.00  0.00    +0.493 C 
ATOM     28  O   UNL     1      44.058  20.723  21.023  0.00  0.00    -0.321 OA
ATOM     29  O   UNL     1      43.256  22.284  19.578  0.00  0.00    -0.454 OA
ATOM     30  C   UNL     1      45.371  20.347  21.450  0.00  0.00    +0.297 C 
ENDBRANCH  24  25
ENDBRANCH  23  24
ENDBRANCH  22  23
TORSDOF 8
ENDMDL
