MODEL 1
REMARK VINA RESULT:      -6.0      0.000      0.000
REMARK  Name = ZINC18825330
REMARK  4 active torsions:
REMARK  status: ('A' for Active; 'I' for Inactive)
REMARK    1  A    between atoms: C3_3  and  O5_20
REMARK    2  A    between atoms: C6_6  and  C7_7
REMARK    3  A    between atoms: C11_12  and  O4_19
REMARK    4  A    between atoms: C13_14  and  O3_18
REMARK                            x       y       z     vdW  Elec       q    Type
REMARK                         _______ _______ _______ _____ _____    ______ ____
ROOT
ATOM      9  C   UNL     1      45.489  20.431  19.995  0.00  0.00    -0.238 A 
ATOM     10  C   UNL     1      44.880  19.223  19.871  0.00  0.00    +0.330 A 
ATOM     11  O   UNL     1      43.564  19.093  19.691  0.00  0.00    -0.214 OA
ATOM     12  C   UNL     1      42.795  20.132  19.314  0.00  0.00    +0.175 A 
ATOM     13  C   UNL     1      41.512  19.921  18.826  0.00  0.00    -0.028 A 
ATOM     14  C   UNL     1      40.726  20.998  18.450  0.00  0.00    +0.192 A 
ATOM     17  C   UNL     1      41.203  22.299  18.557  0.00  0.00    -0.053 A 
ATOM     18  C   UNL     1      42.478  22.533  19.038  0.00  0.00    +0.218 A 
ATOM     21  C   UNL     1      43.281  21.448  19.411  0.00  0.00    -0.262 A 
ATOM     22  C   UNL     1      44.652  21.643  19.915  0.00  0.00    +0.433 A 
ATOM     23  O   UNL     1      45.071  22.741  20.242  0.00  0.00    -0.437 OA
ENDROOT
BRANCH   9   8
ATOM      1  C   UNL     1      47.816  20.620  19.118  0.00  0.00    +0.039 A 
ATOM      2  C   UNL     1      49.177  20.709  19.322  0.00  0.00    -0.012 A 
ATOM      3  C   UNL     1      49.689  20.708  20.611  0.00  0.00    +0.112 A 
ATOM      6  C   UNL     1      48.834  20.616  21.701  0.00  0.00    -0.011 A 
ATOM      7  C   UNL     1      47.471  20.526  21.504  0.00  0.00    +0.057 A 
ATOM      8  C   UNL     1      46.954  20.527  20.209  0.00  0.00    -0.039 A 
BRANCH   3   4
ATOM      4  O   UNL     1      51.030  20.797  20.809  0.00  0.00    -0.500 OA
ATOM      5  H   UNL     1      51.343  20.338  21.600  0.00  0.00    +0.393 HD
ENDBRANCH   3   4
ENDBRANCH   9   8
BRANCH  14  15
ATOM     15  O   UNL     1      39.474  20.779  17.972  0.00  0.00    -0.488 OA
ATOM     16  H   UNL     1      38.891  21.548  18.029  0.00  0.00    +0.404 HD
ENDBRANCH  14  15
BRANCH  18  19
ATOM     19  O   UNL     1      42.948  23.801  19.146  0.00  0.00    -0.476 OA
ATOM     20  H   UNL     1      42.696  24.378  18.412  0.00  0.00    +0.405 HD
ENDBRANCH  18  19
TORSDOF 4
ENDMDL
MODEL 2
REMARK VINA RESULT:      -5.6      0.931      1.524
REMARK  Name = ZINC18825330
REMARK  4 active torsions:
REMARK  status: ('A' for Active; 'I' for Inactive)
REMARK    1  A    between atoms: C3_3  and  O5_20
REMARK    2  A    between atoms: C6_6  and  C7_7
REMARK    3  A    between atoms: C11_12  and  O4_19
REMARK    4  A    between atoms: C13_14  and  O3_18
REMARK                            x       y       z     vdW  Elec       q    Type
REMARK                         _______ _______ _______ _____ _____    ______ ____
ROOT
ATOM      9  C   UNL     1      46.535  20.442  19.778  0.00  0.00    -0.238 A 
ATOM     10  C   UNL     1      45.968  19.267  19.402  0.00  0.00    +0.330 A 
ATOM     11  O   UNL     1      44.649  19.110  19.274  0.00  0.00    -0.214 OA
ATOM     12  C   UNL     1      43.813  20.164  19.205  0.00  0.00    +0.175 A 
ATOM     13  C   UNL     1      42.509  20.005  18.757  0.00  0.00    -0.028 A 
ATOM     14  C   UNL     1      41.655  21.094  18.699  0.00  0.00    +0.192 A 
ATOM     17  C   UNL     1      42.087  22.357  19.089  0.00  0.00    -0.053 A 
ATOM     18  C   UNL     1      43.382  22.540  19.536  0.00  0.00    +0.218 A 
ATOM     21  C   UNL     1      44.252  21.444  19.589  0.00  0.00    -0.262 A 
ATOM     22  C   UNL     1      45.647  21.590  20.043  0.00  0.00    +0.433 A 
ATOM     23  O   UNL     1      46.043  22.600  20.601  0.00  0.00    -0.437 OA
ENDROOT
BRANCH   9   8
ATOM      1  C   UNL     1      48.588  20.538  21.190  0.00  0.00    +0.039 A 
ATOM      2  C   UNL     1      49.956  20.653  21.321  0.00  0.00    -0.012 A 
ATOM      3  C   UNL     1      50.753  20.797  20.194  0.00  0.00    +0.112 A 
ATOM      6  C   UNL     1      50.178  20.826  18.931  0.00  0.00    -0.011 A 
ATOM      7  C   UNL     1      48.809  20.712  18.793  0.00  0.00    +0.057 A 
ATOM      8  C   UNL     1      48.006  20.567  19.923  0.00  0.00    -0.039 A 
BRANCH   3   4
ATOM      4  O   UNL     1      52.101  20.910  20.326  0.00  0.00    -0.500 OA
ATOM      5  H   UNL     1      52.543  21.286  19.552  0.00  0.00    +0.393 HD
ENDBRANCH   3   4
ENDBRANCH   9   8
BRANCH  14  15
ATOM     15  O   UNL     1      40.383  20.926  18.257  0.00  0.00    -0.488 OA
ATOM     16  H   UNL     1      39.709  21.065  18.936  0.00  0.00    +0.404 HD
ENDBRANCH  14  15
BRANCH  18  19
ATOM     19  O   UNL     1      43.807  23.770  19.920  0.00  0.00    -0.476 OA
ATOM     20  H   UNL     1      43.247  24.189  20.588  0.00  0.00    +0.405 HD
ENDBRANCH  18  19
TORSDOF 4
ENDMDL
MODEL 3
REMARK VINA RESULT:      -5.5      2.111      2.767
REMARK  Name = ZINC18825330
REMARK  4 active torsions:
REMARK  status: ('A' for Active; 'I' for Inactive)
REMARK    1  A    between atoms: C3_3  and  O5_20
REMARK    2  A    between atoms: C6_6  and  C7_7
REMARK    3  A    between atoms: C11_12  and  O4_19
REMARK    4  A    between atoms: C13_14  and  O3_18
REMARK                            x       y       z     vdW  Elec       q    Type
REMARK                         _______ _______ _______ _____ _____    ______ ____
ROOT
ATOM      9  C   UNL     1      46.333  19.576  20.178  0.00  0.00    -0.238 A 
ATOM     10  C   UNL     1      46.151  19.115  21.443  0.00  0.00    +0.330 A 
ATOM     11  O   UNL     1      44.954  19.080  22.033  0.00  0.00    -0.214 OA
ATOM     12  C   UNL     1      43.813  19.205  21.329  0.00  0.00    +0.175 A 
ATOM     13  C   UNL     1      42.593  18.852  21.891  0.00  0.00    -0.028 A 
ATOM     14  C   UNL     1      41.424  18.993  21.161  0.00  0.00    +0.192 A 
ATOM     17  C   UNL     1      41.452  19.489  19.863  0.00  0.00    -0.053 A 
ATOM     18  C   UNL     1      42.655  19.845  19.282  0.00  0.00    +0.218 A 
ATOM     21  C   UNL     1      43.841  19.696  20.012  0.00  0.00    -0.262 A 
ATOM     22  C   UNL     1      45.150  20.046  19.432  0.00  0.00    +0.433 A 
ATOM     23  O   UNL     1      45.250  20.682  18.396  0.00  0.00    -0.437 OA
ENDROOT
BRANCH   9   8
ATOM      1  C   UNL     1      48.469  20.759  19.671  0.00  0.00    +0.039 A 
ATOM      2  C   UNL     1      49.725  20.787  19.102  0.00  0.00    -0.012 A 
ATOM      3  C   UNL     1      50.208  19.675  18.427  0.00  0.00    +0.112 A 
ATOM      6  C   UNL     1      49.430  18.531  18.322  0.00  0.00    -0.011 A 
ATOM      7  C   UNL     1      48.172  18.495  18.888  0.00  0.00    +0.057 A 
ATOM      8  C   UNL     1      47.684  19.611  19.567  0.00  0.00    -0.039 A 
BRANCH   3   4
ATOM      4  O   UNL     1      51.446  19.706  17.868  0.00  0.00    -0.500 OA
ATOM      5  H   UNL     1      51.842  20.587  17.834  0.00  0.00    +0.393 HD
ENDBRANCH   3   4
ENDBRANCH   9   8
BRANCH  14  15
ATOM     15  O   UNL     1      40.238  18.642  21.721  0.00  0.00    -0.488 OA
ATOM     16  H   UNL     1      39.609  19.371  21.797  0.00  0.00    +0.404 HD
ENDBRANCH  14  15
BRANCH  18  19
ATOM     19  O   UNL     1      42.687  20.332  18.016  0.00  0.00    -0.476 OA
ATOM     20  H   UNL     1      43.309  19.874  17.434  0.00  0.00    +0.405 HD
ENDBRANCH  18  19
TORSDOF 4
ENDMDL
MODEL 4
REMARK VINA RESULT:      -5.5      3.950      6.724
REMARK  Name = ZINC18825330
REMARK  4 active torsions:
REMARK  status: ('A' for Active; 'I' for Inactive)
REMARK    1  A    between atoms: C3_3  and  O5_20
REMARK    2  A    between atoms: C6_6  and  C7_7
REMARK    3  A    between atoms: C11_12  and  O4_19
REMARK    4  A    between atoms: C13_14  and  O3_18
REMARK                            x       y       z     vdW  Elec       q    Type
REMARK                         _______ _______ _______ _____ _____    ______ ____
ROOT
ATOM      9  C   UNL     1      45.686  18.368  18.467  0.00  0.00    -0.238 A 
ATOM     10  C   UNL     1      46.469  18.335  17.357  0.00  0.00    +0.330 A 
ATOM     11  O   UNL     1      47.068  17.221  16.929  0.00  0.00    -0.214 OA
ATOM     12  C   UNL     1      46.701  16.004  17.373  0.00  0.00    +0.175 A 
ATOM     13  C   UNL     1      47.097  14.857  16.699  0.00  0.00    -0.028 A 
ATOM     14  C   UNL     1      46.722  13.609  17.170  0.00  0.00    +0.192 A 
ATOM     17  C   UNL     1      45.949  13.485  18.320  0.00  0.00    -0.053 A 
ATOM     18  C   UNL     1      45.541  14.614  19.006  0.00  0.00    +0.218 A 
ATOM     21  C   UNL     1      45.910  15.879  18.530  0.00  0.00    -0.262 A 
ATOM     22  C   UNL     1      45.488  17.112  19.216  0.00  0.00    +0.433 A 
ATOM     23  O   UNL     1      45.000  17.096  20.334  0.00  0.00    -0.437 OA
ENDROOT
BRANCH   9   8
ATOM      1  C   UNL     1      45.843  20.682  19.380  0.00  0.00    +0.039 A 
ATOM      2  C   UNL     1      45.251  21.857  19.796  0.00  0.00    -0.012 A 
ATOM      3  C   UNL     1      43.871  21.994  19.751  0.00  0.00    +0.112 A 
ATOM      6  C   UNL     1      43.081  20.950  19.288  0.00  0.00    -0.011 A 
ATOM      7  C   UNL     1      43.667  19.772  18.871  0.00  0.00    +0.057 A 
ATOM      8  C   UNL     1      45.053  19.632  18.915  0.00  0.00    -0.039 A 
BRANCH   3   4
ATOM      4  O   UNL     1      43.290  23.152  20.160  0.00  0.00    -0.500 OA
ATOM      5  H   UNL     1      42.343  23.208  19.968  0.00  0.00    +0.393 HD
ENDBRANCH   3   4
ENDBRANCH   9   8
BRANCH  14  15
ATOM     15  O   UNL     1      47.114  12.494  16.501  0.00  0.00    -0.488 OA
ATOM     16  H   UNL     1      47.489  11.807  17.067  0.00  0.00    +0.404 HD
ENDBRANCH  14  15
BRANCH  18  19
ATOM     19  O   UNL     1      44.790  14.498  20.129  0.00  0.00    -0.476 OA
ATOM     20  H   UNL     1      43.922  14.099  19.983  0.00  0.00    +0.405 HD
ENDBRANCH  18  19
TORSDOF 4
ENDMDL
MODEL 5
REMARK VINA RESULT:      -5.4      3.110      5.520
REMARK  Name = ZINC18825330
REMARK  4 active torsions:
REMARK  status: ('A' for Active; 'I' for Inactive)
REMARK    1  A    between atoms: C3_3  and  O5_20
REMARK    2  A    between atoms: C6_6  and  C7_7
REMARK    3  A    between atoms: C11_12  and  O4_19
REMARK    4  A    between atoms: C13_14  and  O3_18
REMARK                            x       y       z     vdW  Elec       q    Type
REMARK                         _______ _______ _______ _____ _____    ______ ____
ROOT
ATOM      9  C   UNL     1      45.105  19.319  20.253  0.00  0.00    -0.238 A 
ATOM     10  C   UNL     1      44.677  18.476  21.229  0.00  0.00    +0.330 A 
ATOM     11  O   UNL     1      44.559  17.159  21.044  0.00  0.00    -0.214 OA
ATOM     12  C   UNL     1      45.138  16.535  20.001  0.00  0.00    +0.175 A 
ATOM     13  C   UNL     1      45.279  15.155  19.993  0.00  0.00    -0.028 A 
ATOM     14  C   UNL     1      45.868  14.522  18.910  0.00  0.00    +0.192 A 
ATOM     17  C   UNL     1      46.322  15.255  17.819  0.00  0.00    -0.053 A 
ATOM     18  C   UNL     1      46.194  16.631  17.806  0.00  0.00    +0.218 A 
ATOM     21  C   UNL     1      45.607  17.277  18.902  0.00  0.00    -0.262 A 
ATOM     22  C   UNL     1      45.462  18.743  18.943  0.00  0.00    +0.433 A 
ATOM     23  O   UNL     1      45.631  19.438  17.955  0.00  0.00    -0.437 OA
ENDROOT
BRANCH   9   8
ATOM      1  C   UNL     1      44.163  21.624  20.121  0.00  0.00    +0.039 A 
ATOM      2  C   UNL     1      44.261  22.981  20.351  0.00  0.00    -0.012 A 
ATOM      3  C   UNL     1      45.394  23.504  20.956  0.00  0.00    +0.112 A 
ATOM      6  C   UNL     1      46.434  22.666  21.333  0.00  0.00    -0.011 A 
ATOM      7  C   UNL     1      46.344  21.307  21.106  0.00  0.00    +0.057 A 
ATOM      8  C   UNL     1      45.206  20.779  20.498  0.00  0.00    -0.039 A 
BRANCH   3   4
ATOM      4  O   UNL     1      45.487  24.841  21.182  0.00  0.00    -0.500 OA
ATOM      5  H   UNL     1      46.372  25.138  21.434  0.00  0.00    +0.393 HD
ENDBRANCH   3   4
ENDBRANCH   9   8
BRANCH  14  15
ATOM     15  O   UNL     1      46.003  13.171  18.915  0.00  0.00    -0.488 OA
ATOM     16  H   UNL     1      46.783  12.856  19.390  0.00  0.00    +0.404 HD
ENDBRANCH  14  15
BRANCH  18  19
ATOM     19  O   UNL     1      46.633  17.350  16.742  0.00  0.00    -0.476 OA
ATOM     20  H   UNL     1      45.928  17.661  16.159  0.00  0.00    +0.405 HD
ENDBRANCH  18  19
TORSDOF 4
ENDMDL
MODEL 6
REMARK VINA RESULT:      -5.3      2.472      3.708
REMARK  Name = ZINC18825330
REMARK  4 active torsions:
REMARK  status: ('A' for Active; 'I' for Inactive)
REMARK    1  A    between atoms: C3_3  and  O5_20
REMARK    2  A    between atoms: C6_6  and  C7_7
REMARK    3  A    between atoms: C11_12  and  O4_19
REMARK    4  A    between atoms: C13_14  and  O3_18
REMARK                            x       y       z     vdW  Elec       q    Type
REMARK                         _______ _______ _______ _____ _____    ______ ____
ROOT
ATOM      9  C   UNL     1      46.416  19.314  19.167  0.00  0.00    -0.238 A 
ATOM     10  C   UNL     1      45.504  20.050  18.479  0.00  0.00    +0.330 A 
ATOM     11  O   UNL     1      44.190  19.958  18.695  0.00  0.00    -0.214 OA
ATOM     12  C   UNL     1      43.694  19.372  19.801  0.00  0.00    +0.175 A 
ATOM     13  C   UNL     1      42.368  19.563  20.168  0.00  0.00    -0.028 A 
ATOM     14  C   UNL     1      41.865  18.948  21.303  0.00  0.00    +0.192 A 
ATOM     17  C   UNL     1      42.673  18.133  22.088  0.00  0.00    -0.053 A 
ATOM     18  C   UNL     1      43.997  17.931  21.744  0.00  0.00    +0.218 A 
ATOM     21  C   UNL     1      44.513  18.557  20.602  0.00  0.00    -0.262 A 
ATOM     22  C   UNL     1      45.921  18.386  20.202  0.00  0.00    +0.433 A 
ATOM     23  O   UNL     1      46.636  17.531  20.698  0.00  0.00    -0.437 OA
ENDROOT
BRANCH   9   8
ATOM      1  C   UNL     1      48.544  20.612  19.206  0.00  0.00    +0.039 A 
ATOM      2  C   UNL     1      49.893  20.723  18.940  0.00  0.00    -0.012 A 
ATOM      3  C   UNL     1      50.575  19.668  18.350  0.00  0.00    +0.112 A 
ATOM      6  C   UNL     1      49.903  18.497  18.026  0.00  0.00    -0.011 A 
ATOM      7  C   UNL     1      48.553  18.379  18.290  0.00  0.00    +0.057 A 
ATOM      8  C   UNL     1      47.866  19.438  18.882  0.00  0.00    -0.039 A 
BRANCH   3   4
ATOM      4  O   UNL     1      51.904  19.779  18.090  0.00  0.00    -0.500 OA
ATOM      5  H   UNL     1      52.200  20.687  17.934  0.00  0.00    +0.393 HD
ENDBRANCH   3   4
ENDBRANCH   9   8
BRANCH  14  15
ATOM     15  O   UNL     1      40.568  19.144  21.652  0.00  0.00    -0.488 OA
ATOM     16  H   UNL     1      39.940  18.996  20.932  0.00  0.00    +0.404 HD
ENDBRANCH  14  15
BRANCH  18  19
ATOM     19  O   UNL     1      44.789  17.135  22.505  0.00  0.00    -0.476 OA
ATOM     20  H   UNL     1      44.659  17.245  23.457  0.00  0.00    +0.405 HD
ENDBRANCH  18  19
TORSDOF 4
ENDMDL
MODEL 7
REMARK VINA RESULT:      -5.3      2.793      7.595
REMARK  Name = ZINC18825330
REMARK  4 active torsions:
REMARK  status: ('A' for Active; 'I' for Inactive)
REMARK    1  A    between atoms: C3_3  and  O5_20
REMARK    2  A    between atoms: C6_6  and  C7_7
REMARK    3  A    between atoms: C11_12  and  O4_19
REMARK    4  A    between atoms: C13_14  and  O3_18
REMARK                            x       y       z     vdW  Elec       q    Type
REMARK                         _______ _______ _______ _____ _____    ______ ____
ROOT
ATOM      9  C   UNL     1      48.190  19.784  19.466  0.00  0.00    -0.238 A 
ATOM     10  C   UNL     1      48.151  18.463  19.781  0.00  0.00    +0.330 A 
ATOM     11  O   UNL     1      49.144  17.621  19.486  0.00  0.00    -0.214 OA
ATOM     12  C   UNL     1      50.368  18.063  19.140  0.00  0.00    +0.175 A 
ATOM     13  C   UNL     1      51.458  17.203  19.149  0.00  0.00    -0.028 A 
ATOM     14  C   UNL     1      52.712  17.665  18.783  0.00  0.00    +0.192 A 
ATOM     17  C   UNL     1      52.897  18.989  18.399  0.00  0.00    -0.053 A 
ATOM     18  C   UNL     1      51.827  19.863  18.384  0.00  0.00    +0.218 A 
ATOM     21  C   UNL     1      50.559  19.404  18.762  0.00  0.00    -0.262 A 
ATOM     22  C   UNL     1      49.389  20.300  18.779  0.00  0.00    +0.433 A 
ATOM     23  O   UNL     1      49.412  21.404  18.259  0.00  0.00    -0.437 OA
ENDROOT
BRANCH   9   8
ATOM      1  C   UNL     1      45.964  20.775  18.939  0.00  0.00    +0.039 A 
ATOM      2  C   UNL     1      44.911  21.609  19.253  0.00  0.00    -0.012 A 
ATOM      3  C   UNL     1      44.939  22.354  20.423  0.00  0.00    +0.112 A 
ATOM      6  C   UNL     1      46.025  22.263  21.283  0.00  0.00    -0.011 A 
ATOM      7  C   UNL     1      47.082  21.430  20.975  0.00  0.00    +0.057 A 
ATOM      8  C   UNL     1      47.057  20.681  19.800  0.00  0.00    -0.039 A 
BRANCH   3   4
ATOM      4  O   UNL     1      43.900  23.175  20.731  0.00  0.00    -0.500 OA
ATOM      5  H   UNL     1      43.938  23.540  21.625  0.00  0.00    +0.393 HD
ENDBRANCH   3   4
ENDBRANCH   9   8
BRANCH  14  15
ATOM     15  O   UNL     1      53.771  16.815  18.798  0.00  0.00    -0.488 OA
ATOM     16  H   UNL     1      53.554  15.913  18.528  0.00  0.00    +0.404 HD
ENDBRANCH  14  15
BRANCH  18  19
ATOM     19  O   UNL     1      52.003  21.155  18.008  0.00  0.00    -0.476 OA
ATOM     20  H   UNL     1      52.202  21.754  18.741  0.00  0.00    +0.405 HD
ENDBRANCH  18  19
TORSDOF 4
ENDMDL
MODEL 8
REMARK VINA RESULT:      -5.2      2.965      5.051
REMARK  Name = ZINC18825330
REMARK  4 active torsions:
REMARK  status: ('A' for Active; 'I' for Inactive)
REMARK    1  A    between atoms: C3_3  and  O5_20
REMARK    2  A    between atoms: C6_6  and  C7_7
REMARK    3  A    between atoms: C11_12  and  O4_19
REMARK    4  A    between atoms: C13_14  and  O3_18
REMARK                            x       y       z     vdW  Elec       q    Type
REMARK                         _______ _______ _______ _____ _____    ______ ____
ROOT
ATOM      9  C   UNL     1      46.108  18.612  19.589  0.00  0.00    -0.238 A 
ATOM     10  C   UNL     1      47.166  19.100  20.288  0.00  0.00    +0.330 A 
ATOM     11  O   UNL     1      47.310  20.398  20.567  0.00  0.00    -0.214 OA
ATOM     12  C   UNL     1      46.287  21.265  20.450  0.00  0.00    +0.175 A 
ATOM     13  C   UNL     1      46.355  22.521  21.037  0.00  0.00    -0.028 A 
ATOM     14  C   UNL     1      45.300  23.410  20.903  0.00  0.00    +0.192 A 
ATOM     17  C   UNL     1      44.164  23.061  20.181  0.00  0.00    -0.053 A 
ATOM     18  C   UNL     1      44.073  21.815  19.590  0.00  0.00    +0.218 A 
ATOM     21  C   UNL     1      45.133  20.909  19.729  0.00  0.00    -0.262 A 
ATOM     22  C   UNL     1      45.078  19.563  19.132  0.00  0.00    +0.433 A 
ATOM     23  O   UNL     1      44.229  19.253  18.313  0.00  0.00    -0.437 OA
ENDROOT
BRANCH   9   8
ATOM      1  C   UNL     1      46.587  16.641  18.138  0.00  0.00    +0.039 A 
ATOM      2  C   UNL     1      46.481  15.294  17.863  0.00  0.00    -0.012 A 
ATOM      3  C   UNL     1      45.789  14.458  18.728  0.00  0.00    +0.112 A 
ATOM      6  C   UNL     1      45.201  14.975  19.875  0.00  0.00    -0.011 A 
ATOM      7  C   UNL     1      45.303  16.322  20.157  0.00  0.00    +0.057 A 
ATOM      8  C   UNL     1      45.997  17.164  19.288  0.00  0.00    -0.039 A 
BRANCH   3   4
ATOM      4  O   UNL     1      45.688  13.131  18.455  0.00  0.00    -0.500 OA
ATOM      5  H   UNL     1      46.366  12.800  17.850  0.00  0.00    +0.393 HD
ENDBRANCH   3   4
ENDBRANCH   9   8
BRANCH  14  15
ATOM     15  O   UNL     1      45.378  24.635  21.484  0.00  0.00    -0.488 OA
ATOM     16  H   UNL     1      44.604  24.868  22.013  0.00  0.00    +0.404 HD
ENDBRANCH  14  15
BRANCH  18  19
ATOM     19  O   UNL     1      42.968  21.471  18.883  0.00  0.00    -0.476 OA
ATOM     20  H   UNL     1      42.382  22.214  18.683  0.00  0.00    +0.405 HD
ENDBRANCH  18  19
TORSDOF 4
ENDMDL
MODEL 9
REMARK VINA RESULT:      -5.2      4.227      5.187
REMARK  Name = ZINC18825330
REMARK  4 active torsions:
REMARK  status: ('A' for Active; 'I' for Inactive)
REMARK    1  A    between atoms: C3_3  and  O5_20
REMARK    2  A    between atoms: C6_6  and  C7_7
REMARK    3  A    between atoms: C11_12  and  O4_19
REMARK    4  A    between atoms: C13_14  and  O3_18
REMARK                            x       y       z     vdW  Elec       q    Type
REMARK                         _______ _______ _______ _____ _____    ______ ____
ROOT
ATOM      9  C   UNL     1      45.933  16.325  19.323  0.00  0.00    -0.238 A 
ATOM     10  C   UNL     1      45.550  15.750  20.493  0.00  0.00    +0.330 A 
ATOM     11  O   UNL     1      44.739  16.355  21.364  0.00  0.00    -0.214 OA
ATOM     12  C   UNL     1      44.001  17.427  21.017  0.00  0.00    +0.175 A 
ATOM     13  C   UNL     1      42.942  17.843  21.812  0.00  0.00    -0.028 A 
ATOM     14  C   UNL     1      42.195  18.953  21.451  0.00  0.00    +0.192 A 
ATOM     17  C   UNL     1      42.494  19.666  20.296  0.00  0.00    -0.053 A 
ATOM     18  C   UNL     1      43.543  19.270  19.488  0.00  0.00    +0.218 A 
ATOM     21  C   UNL     1      44.296  18.143  19.843  0.00  0.00    -0.262 A 
ATOM     22  C   UNL     1      45.414  17.670  19.007  0.00  0.00    +0.433 A 
ATOM     23  O   UNL     1      45.879  18.347  18.105  0.00  0.00    -0.437 OA
ENDROOT
BRANCH   9   8
ATOM      1  C   UNL     1      46.348  14.682  17.494  0.00  0.00    +0.039 A 
ATOM      2  C   UNL     1      47.204  14.031  16.631  0.00  0.00    -0.012 A 
ATOM      3  C   UNL     1      48.563  14.311  16.655  0.00  0.00    +0.112 A 
ATOM      6  C   UNL     1      49.066  15.248  17.548  0.00  0.00    -0.011 A 
ATOM      7  C   UNL     1      48.215  15.903  18.415  0.00  0.00    +0.057 A 
ATOM      8  C   UNL     1      46.850  15.623  18.393  0.00  0.00    -0.039 A 
BRANCH   3   4
ATOM      4  O   UNL     1      49.404  13.669  15.803  0.00  0.00    -0.500 OA
ATOM      5  H   UNL     1      49.111  13.674  14.881  0.00  0.00    +0.393 HD
ENDBRANCH   3   4
ENDBRANCH   9   8
BRANCH  14  15
ATOM     15  O   UNL     1      41.160  19.348  22.236  0.00  0.00    -0.488 OA
ATOM     16  H   UNL     1      41.309  20.189  22.689  0.00  0.00    +0.404 HD
ENDBRANCH  14  15
BRANCH  18  19
ATOM     19  O   UNL     1      43.841  19.964  18.361  0.00  0.00    -0.476 OA
ATOM     20  H   UNL     1      44.002  19.407  17.587  0.00  0.00    +0.405 HD
ENDBRANCH  18  19
TORSDOF 4
ENDMDL
