MODEL 1
REMARK VINA RESULT:      -6.7      0.000      0.000
REMARK  Name = ZINC95486217
REMARK  1 active torsions:
REMARK  status: ('A' for Active; 'I' for Inactive)
REMARK    1  A    between atoms: C17_20  and  C18_21
REMARK                            x       y       z     vdW  Elec       q    Type
REMARK                         _______ _______ _______ _____ _____    ______ ____
ROOT
ATOM      1  C   UNL     1      53.508  14.603  20.082  0.00  0.00    -0.028 A 
ATOM      2  C   UNL     1      52.937  15.743  20.638  0.00  0.00    -0.003 A 
ATOM      3  C   UNL     1      51.700  16.169  20.248  0.00  0.00    +0.033 A 
ATOM      4  C   UNL     1      50.995  15.451  19.275  0.00  0.00    +0.021 A 
ATOM      5  C   UNL     1      51.577  14.294  18.711  0.00  0.00    -0.077 A 
ATOM      6  C   UNL     1      50.831  13.546  17.692  0.00  0.00    +0.016 A 
ATOM      7  C   UNL     1      49.556  14.001  17.300  0.00  0.00    -0.042 A 
ATOM      8  C   UNL     1      48.833  13.283  16.316  0.00  0.00    +0.018 A 
ATOM      9  C   UNL     1      47.505  13.774  15.921  0.00  0.00    -0.116 A 
ATOM     10  C   UNL     1      47.015  14.879  16.498  0.00  0.00    +0.301 A 
ATOM     11  N   UNL     1      47.721  15.570  17.452  0.00  0.00    -0.620 N 
ATOM     12  H   UNL     1      47.331  16.367  17.846  0.00  0.00    +0.419 HD
ATOM     13  C   UNL     1      49.383  12.142  15.750  0.00  0.00    -0.002 A 
ATOM     14  C   UNL     1      50.642  11.699  16.145  0.00  0.00    +0.051 A 
ATOM     15  O   UNL     1      51.377  10.622  15.738  0.00  0.00    -0.313 OA
ATOM     16  C   UNL     1      52.380  10.434  16.753  0.00  0.00    +0.415 C 
ATOM     17  O   UNL     1      52.556  11.752  17.305  0.00  0.00    -0.304 OA
ATOM     18  C   UNL     1      48.981  15.158  17.868  0.00  0.00    +0.170 A 
ATOM     19  C   UNL     1      51.366  12.393  17.107  0.00  0.00    +0.005 A 
ATOM     20  C   UNL     1      49.667  15.882  18.834  0.00  0.00    -0.013 A 
ATOM     41  C   UNL     1      52.843  13.883  19.130  0.00  0.00    +0.034 A 
ENDROOT
BRANCH  20  21
ATOM     21  C   UNL     1      49.054  17.091  19.420  0.00  0.00    -0.261 A 
ATOM     22  C   UNL     1      49.496  18.417  18.984  0.00  0.00    +0.061 A 
ATOM     23  C   UNL     1      50.499  18.562  18.018  0.00  0.00    -0.039 A 
ATOM     24  C   UNL     1      50.893  19.811  17.632  0.00  0.00    +0.008 A 
ATOM     25  C   UNL     1      50.311  20.944  18.187  0.00  0.00    -0.083 A 
ATOM     26  C   UNL     1      49.330  20.835  19.132  0.00  0.00    +0.055 A 
ATOM     27  C   UNL     1      48.906  19.571  19.546  0.00  0.00    -0.123 A 
ATOM     28  C   UNL     1      47.856  19.411  20.559  0.00  0.00    +0.050 A 
ATOM     29  C   UNL     1      47.463  18.115  20.945  0.00  0.00    -0.107 A 
ATOM     30  C   UNL     1      46.450  17.956  21.922  0.00  0.00    +0.050 A 
ATOM     31  C   UNL     1      45.854  19.075  22.487  0.00  0.00    -0.059 A 
ATOM     32  C   UNL     1      46.247  20.352  22.099  0.00  0.00    +0.075 A 
ATOM     33  O   UNL     1      45.813  21.582  22.505  0.00  0.00    -0.319 OA
ATOM     34  C   UNL     1      46.262  22.502  21.493  0.00  0.00    +0.403 C 
ATOM     35  O   UNL     1      47.432  21.864  20.948  0.00  0.00    -0.308 OA
ATOM     36  C   UNL     1      46.044  16.595  22.302  0.00  0.00    -0.219 A 
ATOM     37  C   UNL     1      46.650  15.546  21.727  0.00  0.00    +0.264 A 
ATOM     38  N   UNL     1      47.635  15.707  20.782  0.00  0.00    -0.602 NA
ATOM     39  C   UNL     1      47.241  20.525  21.142  0.00  0.00    -0.058 A 
ATOM     40  C   UNL     1      48.055  16.967  20.376  0.00  0.00    +0.246 A 
ENDBRANCH  20  21
TORSDOF 1
ENDMDL
MODEL 2
REMARK VINA RESULT:      -6.7      0.087      8.157
REMARK  Name = ZINC95486217
REMARK  1 active torsions:
REMARK  status: ('A' for Active; 'I' for Inactive)
REMARK    1  A    between atoms: C17_20  and  C18_21
REMARK                            x       y       z     vdW  Elec       q    Type
REMARK                         _______ _______ _______ _____ _____    ______ ____
ROOT
ATOM      1  C   UNL     1      50.234  20.901  18.182  0.00  0.00    -0.028 A 
ATOM      2  C   UNL     1      50.832  19.773  17.633  0.00  0.00    -0.003 A 
ATOM      3  C   UNL     1      50.460  18.520  18.028  0.00  0.00    +0.033 A 
ATOM      4  C   UNL     1      49.462  18.367  18.998  0.00  0.00    +0.021 A 
ATOM      5  C   UNL     1      48.855  19.515  19.554  0.00  0.00    -0.077 A 
ATOM      6  C   UNL     1      47.810  19.346  20.570  0.00  0.00    +0.016 A 
ATOM      7  C   UNL     1      47.438  18.046  20.966  0.00  0.00    -0.042 A 
ATOM      8  C   UNL     1      46.430  17.877  21.947  0.00  0.00    +0.018 A 
ATOM      9  C   UNL     1      46.058  16.513  22.346  0.00  0.00    -0.116 A 
ATOM     10  C   UNL     1      46.676  15.470  21.776  0.00  0.00    +0.301 A 
ATOM     11  N   UNL     1      47.652  15.640  20.825  0.00  0.00    -0.620 N 
ATOM     12  H   UNL     1      48.076  14.858  20.437  0.00  0.00    +0.419 HD
ATOM     13  C   UNL     1      45.818  18.990  22.505  0.00  0.00    -0.002 A 
ATOM     14  C   UNL     1      46.189  20.270  22.106  0.00  0.00    +0.051 A 
ATOM     15  O   UNL     1      45.738  21.496  22.505  0.00  0.00    -0.313 OA
ATOM     16  C   UNL     1      46.170  22.417  21.488  0.00  0.00    +0.415 C 
ATOM     17  O   UNL     1      47.348  21.793  20.944  0.00  0.00    -0.304 OA
ATOM     18  C   UNL     1      48.049  16.903  20.406  0.00  0.00    +0.170 A 
ATOM     19  C   UNL     1      47.179  20.454  21.147  0.00  0.00    +0.005 A 
ATOM     20  C   UNL     1      49.041  17.037  19.443  0.00  0.00    -0.013 A 
ATOM     41  C   UNL     1      49.258  20.783  19.131  0.00  0.00    +0.034 A 
ENDROOT
BRANCH  20  21
ATOM     21  C   UNL     1      49.672  15.833  18.865  0.00  0.00    -0.261 A 
ATOM     22  C   UNL     1      51.003  15.422  19.314  0.00  0.00    +0.061 A 
ATOM     23  C   UNL     1      51.696  16.153  20.286  0.00  0.00    -0.039 A 
ATOM     24  C   UNL     1      52.937  15.746  20.685  0.00  0.00    +0.008 A 
ATOM     25  C   UNL     1      53.525  14.613  20.137  0.00  0.00    -0.083 A 
ATOM     26  C   UNL     1      52.873  13.877  19.187  0.00  0.00    +0.055 A 
ATOM     27  C   UNL     1      51.603  14.269  18.760  0.00  0.00    -0.123 A 
ATOM     28  C   UNL     1      50.871  13.506  17.741  0.00  0.00    +0.050 A 
ATOM     29  C   UNL     1      49.592  13.941  17.341  0.00  0.00    -0.107 A 
ATOM     30  C   UNL     1      48.883  13.209  16.359  0.00  0.00    +0.050 A 
ATOM     31  C   UNL     1      49.450  12.073  15.801  0.00  0.00    -0.059 A 
ATOM     32  C   UNL     1      50.713  11.648  16.202  0.00  0.00    +0.075 A 
ATOM     33  O   UNL     1      51.464  10.579  15.805  0.00  0.00    -0.319 OA
ATOM     34  C   UNL     1      52.463  10.409  16.827  0.00  0.00    +0.403 C 
ATOM     35  O   UNL     1      52.621  11.732  17.372  0.00  0.00    -0.308 OA
ATOM     36  C   UNL     1      47.544  13.672  15.965  0.00  0.00    -0.219 A 
ATOM     37  C   UNL     1      47.038  14.776  16.534  0.00  0.00    +0.264 A 
ATOM     38  N   UNL     1      47.734  15.484  17.484  0.00  0.00    -0.602 NA
ATOM     39  C   UNL     1      51.423  12.357  17.165  0.00  0.00    -0.058 A 
ATOM     40  C   UNL     1      48.999  15.092  17.904  0.00  0.00    +0.246 A 
ENDBRANCH  20  21
TORSDOF 1
ENDMDL
MODEL 3
REMARK VINA RESULT:      -6.6      2.106      7.854
REMARK  Name = ZINC95486217
REMARK  1 active torsions:
REMARK  status: ('A' for Active; 'I' for Inactive)
REMARK    1  A    between atoms: C17_20  and  C18_21
REMARK                            x       y       z     vdW  Elec       q    Type
REMARK                         _______ _______ _______ _____ _____    ______ ____
ROOT
ATOM      1  C   UNL     1      50.683  21.149  22.407  0.00  0.00    -0.028 A 
ATOM      2  C   UNL     1      51.246  19.953  21.976  0.00  0.00    -0.003 A 
ATOM      3  C   UNL     1      50.571  19.128  21.123  0.00  0.00    +0.033 A 
ATOM      4  C   UNL     1      49.295  19.489  20.674  0.00  0.00    +0.021 A 
ATOM      5  C   UNL     1      48.724  20.704  21.113  0.00  0.00    -0.077 A 
ATOM      6  C   UNL     1      47.387  21.076  20.638  0.00  0.00    +0.016 A 
ATOM      7  C   UNL     1      46.704  20.212  19.758  0.00  0.00    -0.042 A 
ATOM      8  C   UNL     1      45.412  20.566  19.297  0.00  0.00    +0.018 A 
ATOM      9  C   UNL     1      44.717  19.651  18.381  0.00  0.00    -0.116 A 
ATOM     10  C   UNL     1      45.319  18.514  18.005  0.00  0.00    +0.301 A 
ATOM     11  N   UNL     1      46.573  18.178  18.456  0.00  0.00    -0.620 N 
ATOM     12  H   UNL     1      46.974  17.345  18.161  0.00  0.00    +0.419 HD
ATOM     13  C   UNL     1      44.833  21.756  19.713  0.00  0.00    -0.002 A 
ATOM     14  C   UNL     1      45.516  22.604  20.580  0.00  0.00    +0.051 A 
ATOM     15  O   UNL     1      45.157  23.807  21.118  0.00  0.00    -0.313 OA
ATOM     16  C   UNL     1      46.381  24.400  21.589  0.00  0.00    +0.415 C 
ATOM     17  O   UNL     1      47.220  23.264  21.873  0.00  0.00    -0.304 OA
ATOM     18  C   UNL     1      47.281  18.999  19.324  0.00  0.00    +0.170 A 
ATOM     19  C   UNL     1      46.782  22.271  21.044  0.00  0.00    +0.005 A 
ATOM     20  C   UNL     1      48.545  18.626  19.759  0.00  0.00    -0.013 A 
ATOM     41  C   UNL     1      49.439  21.527  21.986  0.00  0.00    +0.034 A 
ENDROOT
BRANCH  20  21
ATOM     21  C   UNL     1      49.136  17.354  19.297  0.00  0.00    -0.261 A 
ATOM     22  C   UNL     1      50.070  17.351  18.169  0.00  0.00    +0.061 A 
ATOM     23  C   UNL     1      50.414  18.539  17.513  0.00  0.00    -0.039 A 
ATOM     24  C   UNL     1      51.286  18.506  16.463  0.00  0.00    +0.008 A 
ATOM     25  C   UNL     1      51.839  17.306  16.034  0.00  0.00    -0.083 A 
ATOM     26  C   UNL     1      51.523  16.130  16.654  0.00  0.00    +0.055 A 
ATOM     27  C   UNL     1      50.634  16.132  17.731  0.00  0.00    -0.123 A 
ATOM     28  C   UNL     1      50.269  14.890  18.423  0.00  0.00    +0.050 A 
ATOM     29  C   UNL     1      49.367  14.943  19.504  0.00  0.00    -0.107 A 
ATOM     30  C   UNL     1      49.011  13.747  20.174  0.00  0.00    +0.050 A 
ATOM     31  C   UNL     1      49.554  12.539  19.763  0.00  0.00    -0.059 A 
ATOM     32  C   UNL     1      50.445  12.495  18.696  0.00  0.00    +0.075 A 
ATOM     33  O   UNL     1      51.099  11.442  18.121  0.00  0.00    -0.319 OA
ATOM     34  C   UNL     1      52.173  12.025  17.360  0.00  0.00    +0.403 C 
ATOM     35  O   UNL     1      51.682  13.338  17.030  0.00  0.00    -0.308 OA
ATOM     36  C   UNL     1      48.079  13.826  21.308  0.00  0.00    -0.219 A 
ATOM     37  C   UNL     1      47.582  15.018  21.667  0.00  0.00    +0.264 A 
ATOM     38  N   UNL     1      47.928  16.175  21.010  0.00  0.00    -0.602 NA
ATOM     39  C   UNL     1      50.803  13.659  18.026  0.00  0.00    -0.058 A 
ATOM     40  C   UNL     1      48.810  16.166  19.937  0.00  0.00    +0.246 A 
ENDBRANCH  20  21
TORSDOF 1
ENDMDL
MODEL 4
REMARK VINA RESULT:      -6.6      4.351      7.304
REMARK  Name = ZINC95486217
REMARK  1 active torsions:
REMARK  status: ('A' for Active; 'I' for Inactive)
REMARK    1  A    between atoms: C17_20  and  C18_21
REMARK                            x       y       z     vdW  Elec       q    Type
REMARK                         _______ _______ _______ _____ _____    ______ ____
ROOT
ATOM      1  C   UNL     1      52.802  17.654  18.737  0.00  0.00    -0.028 A 
ATOM      2  C   UNL     1      51.620  17.230  18.141  0.00  0.00    -0.003 A 
ATOM      3  C   UNL     1      51.321  15.901  18.044  0.00  0.00    +0.033 A 
ATOM      4  C   UNL     1      52.215  14.951  18.552  0.00  0.00    +0.021 A 
ATOM      5  C   UNL     1      53.416  15.384  19.157  0.00  0.00    -0.077 A 
ATOM      6  C   UNL     1      54.348  14.382  19.687  0.00  0.00    +0.016 A 
ATOM      7  C   UNL     1      54.024  13.016  19.579  0.00  0.00    -0.042 A 
ATOM      8  C   UNL     1      54.921  12.045  20.089  0.00  0.00    +0.018 A 
ATOM      9  C   UNL     1      54.565  10.624  19.965  0.00  0.00    -0.116 A 
ATOM     10  C   UNL     1      53.409  10.285  19.379  0.00  0.00    +0.301 A 
ATOM     11  N   UNL     1      52.543  11.232  18.887  0.00  0.00    -0.620 N 
ATOM     12  H   UNL     1      51.716  10.945  18.468  0.00  0.00    +0.419 HD
ATOM     13  C   UNL     1      56.105  12.447  20.690  0.00  0.00    -0.002 A 
ATOM     14  C   UNL     1      56.415  13.799  20.795  0.00  0.00    +0.051 A 
ATOM     15  O   UNL     1      57.501  14.427  21.336  0.00  0.00    -0.313 OA
ATOM     16  C   UNL     1      57.099  15.795  21.531  0.00  0.00    +0.415 C 
ATOM     17  O   UNL     1      56.088  15.998  20.527  0.00  0.00    -0.304 OA
ATOM     18  C   UNL     1      52.823  12.590  18.973  0.00  0.00    +0.170 A 
ATOM     19  C   UNL     1      55.548  14.765  20.298  0.00  0.00    +0.005 A 
ATOM     20  C   UNL     1      51.925  13.518  18.464  0.00  0.00    -0.013 A 
ATOM     41  C   UNL     1      53.693  16.750  19.241  0.00  0.00    +0.034 A 
ENDROOT
BRANCH  20  21
ATOM     21  C   UNL     1      50.671  13.060  17.832  0.00  0.00    -0.261 A 
ATOM     22  C   UNL     1      50.690  12.556  16.457  0.00  0.00    +0.061 A 
ATOM     23  C   UNL     1      51.882  12.503  15.724  0.00  0.00    -0.039 A 
ATOM     24  C   UNL     1      51.869  12.029  14.443  0.00  0.00    +0.008 A 
ATOM     25  C   UNL     1      50.686  11.599  13.855  0.00  0.00    -0.083 A 
ATOM     26  C   UNL     1      49.507  11.638  14.545  0.00  0.00    +0.055 A 
ATOM     27  C   UNL     1      49.489  12.117  15.856  0.00  0.00    -0.123 A 
ATOM     28  C   UNL     1      48.244  12.175  16.631  0.00  0.00    +0.050 A 
ATOM     29  C   UNL     1      48.276  12.667  17.951  0.00  0.00    -0.107 A 
ATOM     30  C   UNL     1      47.077  12.726  18.702  0.00  0.00    +0.050 A 
ATOM     31  C   UNL     1      45.885  12.299  18.134  0.00  0.00    -0.059 A 
ATOM     32  C   UNL     1      45.862  11.812  16.831  0.00  0.00    +0.075 A 
ATOM     33  O   UNL     1      44.828  11.342  16.071  0.00  0.00    -0.319 OA
ATOM     34  C   UNL     1      45.444  10.610  14.995  0.00  0.00    +0.403 C 
ATOM     35  O   UNL     1      46.730  11.239  14.847  0.00  0.00    -0.308 OA
ATOM     36  C   UNL     1      47.134  13.230  20.082  0.00  0.00    -0.219 A 
ATOM     37  C   UNL     1      48.310  13.631  20.586  0.00  0.00    +0.264 A 
ATOM     38  N   UNL     1      49.469  13.575  19.850  0.00  0.00    -0.602 NA
ATOM     39  C   UNL     1      47.030  11.750  16.079  0.00  0.00    -0.058 A 
ATOM     40  C   UNL     1      49.481  13.101  18.545  0.00  0.00    +0.246 A 
ENDBRANCH  20  21
TORSDOF 1
ENDMDL
MODEL 5
REMARK VINA RESULT:      -6.6      4.063      7.241
REMARK  Name = ZINC95486217
REMARK  1 active torsions:
REMARK  status: ('A' for Active; 'I' for Inactive)
REMARK    1  A    between atoms: C17_20  and  C18_21
REMARK                            x       y       z     vdW  Elec       q    Type
REMARK                         _______ _______ _______ _____ _____    ______ ____
ROOT
ATOM      1  C   UNL     1      51.723  17.421  17.510  0.00  0.00    -0.028 A 
ATOM      2  C   UNL     1      50.462  17.013  17.091  0.00  0.00    -0.003 A 
ATOM      3  C   UNL     1      49.959  15.798  17.460  0.00  0.00    +0.033 A 
ATOM      4  C   UNL     1      50.722  14.950  18.271  0.00  0.00    +0.021 A 
ATOM      5  C   UNL     1      52.004  15.366  18.696  0.00  0.00    -0.077 A 
ATOM      6  C   UNL     1      52.797  14.471  19.546  0.00  0.00    +0.016 A 
ATOM      7  C   UNL     1      52.264  13.221  19.916  0.00  0.00    -0.042 A 
ATOM      8  C   UNL     1      53.026  12.354  20.737  0.00  0.00    +0.018 A 
ATOM      9  C   UNL     1      52.452  11.054  21.111  0.00  0.00    -0.116 A 
ATOM     10  C   UNL     1      51.230  10.724  20.672  0.00  0.00    +0.301 A 
ATOM     11  N   UNL     1      50.495  11.571  19.877  0.00  0.00    -0.620 N 
ATOM     12  H   UNL     1      49.614  11.294  19.579  0.00  0.00    +0.419 HD
ATOM     13  C   UNL     1      54.286  12.742  21.168  0.00  0.00    -0.002 A 
ATOM     14  C   UNL     1      54.804  13.980  20.800  0.00  0.00    +0.051 A 
ATOM     15  O   UNL     1      55.999  14.572  21.096  0.00  0.00    -0.313 OA
ATOM     16  C   UNL     1      55.821  15.969  20.802  0.00  0.00    +0.415 C 
ATOM     17  O   UNL     1      54.804  15.975  19.783  0.00  0.00    -0.304 OA
ATOM     18  C   UNL     1      50.982  12.812  19.488  0.00  0.00    +0.170 A 
ATOM     19  C   UNL     1      54.071  14.842  19.993  0.00  0.00    +0.005 A 
ATOM     20  C   UNL     1      50.212  13.641  18.683  0.00  0.00    -0.013 A 
ATOM     41  C   UNL     1      52.490  16.614  18.302  0.00  0.00    +0.034 A 
ENDROOT
BRANCH  20  21
ATOM     21  C   UNL     1      48.874  13.200  18.242  0.00  0.00    -0.261 A 
ATOM     22  C   UNL     1      47.683  13.649  18.966  0.00  0.00    +0.061 A 
ATOM     23  C   UNL     1      47.790  14.491  20.079  0.00  0.00    -0.039 A 
ATOM     24  C   UNL     1      46.662  14.892  20.736  0.00  0.00    +0.008 A 
ATOM     25  C   UNL     1      45.406  14.474  20.315  0.00  0.00    -0.083 A 
ATOM     26  C   UNL     1      45.269  13.652  19.232  0.00  0.00    +0.055 A 
ATOM     27  C   UNL     1      46.404  13.226  18.540  0.00  0.00    -0.123 A 
ATOM     28  C   UNL     1      46.300  12.342  17.372  0.00  0.00    +0.050 A 
ATOM     29  C   UNL     1      47.474  11.938  16.707  0.00  0.00    -0.107 A 
ATOM     30  C   UNL     1      47.378  11.085  15.580  0.00  0.00    +0.050 A 
ATOM     31  C   UNL     1      46.133  10.659  15.142  0.00  0.00    -0.059 A 
ATOM     32  C   UNL     1      44.978  11.064  15.803  0.00  0.00    +0.075 A 
ATOM     33  O   UNL     1      43.664  10.780  15.560  0.00  0.00    -0.319 OA
ATOM     34  C   UNL     1      42.916  11.778  16.279  0.00  0.00    +0.403 C 
ATOM     35  O   UNL     1      43.789  12.140  17.365  0.00  0.00    -0.308 OA
ATOM     36  C   UNL     1      48.615  10.686  14.892  0.00  0.00    -0.219 A 
ATOM     37  C   UNL     1      49.794  11.125  15.354  0.00  0.00    +0.264 A 
ATOM     38  N   UNL     1      49.880  11.949  16.451  0.00  0.00    -0.602 NA
ATOM     39  C   UNL     1      45.055  11.899  16.911  0.00  0.00    -0.058 A 
ATOM     40  C   UNL     1      48.748  12.368  17.138  0.00  0.00    +0.246 A 
ENDBRANCH  20  21
TORSDOF 1
ENDMDL
MODEL 6
REMARK VINA RESULT:      -6.6      4.065      6.714
REMARK  Name = ZINC95486217
REMARK  1 active torsions:
REMARK  status: ('A' for Active; 'I' for Inactive)
REMARK    1  A    between atoms: C17_20  and  C18_21
REMARK                            x       y       z     vdW  Elec       q    Type
REMARK                         _______ _______ _______ _____ _____    ______ ____
ROOT
ATOM      1  C   UNL     1      45.440  14.526  20.220  0.00  0.00    -0.028 A 
ATOM      2  C   UNL     1      46.696  14.947  20.642  0.00  0.00    -0.003 A 
ATOM      3  C   UNL     1      47.827  14.523  20.006  0.00  0.00    +0.033 A 
ATOM      4  C   UNL     1      47.724  13.654  18.913  0.00  0.00    +0.021 A 
ATOM      5  C   UNL     1      46.447  13.228  18.486  0.00  0.00    -0.077 A 
ATOM      6  C   UNL     1      46.347  12.317  17.340  0.00  0.00    +0.016 A 
ATOM      7  C   UNL     1      47.524  11.890  16.695  0.00  0.00    -0.042 A 
ATOM      8  C   UNL     1      47.433  11.010  15.589  0.00  0.00    +0.018 A 
ATOM      9  C   UNL     1      48.673  10.576  14.930  0.00  0.00    -0.116 A 
ATOM     10  C   UNL     1      49.850  11.020  15.389  0.00  0.00    +0.301 A 
ATOM     11  N   UNL     1      49.932  11.874  16.463  0.00  0.00    -0.620 N 
ATOM     12  H   UNL     1      50.805  12.172  16.765  0.00  0.00    +0.419 HD
ATOM     13  C   UNL     1      46.188  10.580  15.149  0.00  0.00    -0.002 A 
ATOM     14  C   UNL     1      45.031  11.010  15.791  0.00  0.00    +0.051 A 
ATOM     15  O   UNL     1      43.717  10.728  15.545  0.00  0.00    -0.313 OA
ATOM     16  C   UNL     1      42.968  11.745  16.234  0.00  0.00    +0.415 C 
ATOM     17  O   UNL     1      43.835  12.130  17.317  0.00  0.00    -0.304 OA
ATOM     18  C   UNL     1      48.797  12.320  17.128  0.00  0.00    +0.170 A 
ATOM     19  C   UNL     1      45.102  11.870  16.879  0.00  0.00    +0.005 A 
ATOM     20  C   UNL     1      48.918  13.182  18.210  0.00  0.00    -0.013 A 
ATOM     41  C   UNL     1      45.308  13.678  19.158  0.00  0.00    +0.034 A 
ENDROOT
BRANCH  20  21
ATOM     21  C   UNL     1      50.256  13.624  18.652  0.00  0.00    -0.261 A 
ATOM     22  C   UNL     1      50.761  14.937  18.247  0.00  0.00    +0.061 A 
ATOM     23  C   UNL     1      49.995  15.787  17.440  0.00  0.00    -0.039 A 
ATOM     24  C   UNL     1      50.493  17.006  17.076  0.00  0.00    +0.008 A 
ATOM     25  C   UNL     1      51.752  17.415  17.497  0.00  0.00    -0.083 A 
ATOM     26  C   UNL     1      52.522  16.608  18.285  0.00  0.00    +0.055 A 
ATOM     27  C   UNL     1      52.041  15.356  18.673  0.00  0.00    -0.123 A 
ATOM     28  C   UNL     1      52.838  14.459  19.519  0.00  0.00    +0.050 A 
ATOM     29  C   UNL     1      52.309  13.205  19.883  0.00  0.00    -0.107 A 
ATOM     30  C   UNL     1      53.075  12.337  20.699  0.00  0.00    +0.050 A 
ATOM     31  C   UNL     1      54.333  12.728  21.131  0.00  0.00    -0.059 A 
ATOM     32  C   UNL     1      54.848  13.968  20.769  0.00  0.00    +0.075 A 
ATOM     33  O   UNL     1      56.041  14.563  21.068  0.00  0.00    -0.319 OA
ATOM     34  C   UNL     1      55.856  15.961  20.783  0.00  0.00    +0.403 C 
ATOM     35  O   UNL     1      54.840  15.969  19.763  0.00  0.00    -0.308 OA
ATOM     36  C   UNL     1      52.499  11.038  21.079  0.00  0.00    -0.219 A 
ATOM     37  C   UNL     1      51.278  10.707  20.636  0.00  0.00    +0.264 A 
ATOM     38  N   UNL     1      50.542  11.553  19.842  0.00  0.00    -0.602 NA
ATOM     39  C   UNL     1      54.110  14.832  19.968  0.00  0.00    -0.058 A 
ATOM     40  C   UNL     1      51.027  12.796  19.456  0.00  0.00    +0.246 A 
ENDBRANCH  20  21
TORSDOF 1
ENDMDL
MODEL 7
REMARK VINA RESULT:      -6.6      0.844      3.091
REMARK  Name = ZINC95486217
REMARK  1 active torsions:
REMARK  status: ('A' for Active; 'I' for Inactive)
REMARK    1  A    between atoms: C17_20  and  C18_21
REMARK                            x       y       z     vdW  Elec       q    Type
REMARK                         _______ _______ _______ _____ _____    ______ ____
ROOT
ATOM      1  C   UNL     1      47.906  13.597  15.921  0.00  0.00    -0.028 A 
ATOM      2  C   UNL     1      47.311  14.753  16.414  0.00  0.00    -0.003 A 
ATOM      3  C   UNL     1      47.907  15.480  17.404  0.00  0.00    +0.033 A 
ATOM      4  C   UNL     1      49.133  15.059  17.932  0.00  0.00    +0.021 A 
ATOM      5  C   UNL     1      49.735  13.884  17.430  0.00  0.00    -0.077 A 
ATOM      6  C   UNL     1      51.021  13.449  17.988  0.00  0.00    +0.016 A 
ATOM      7  C   UNL     1      51.621  14.210  19.010  0.00  0.00    -0.042 A 
ATOM      8  C   UNL     1      52.862  13.794  19.552  0.00  0.00    +0.018 A 
ATOM      9  C   UNL     1      53.471  14.602  20.618  0.00  0.00    -0.116 A 
ATOM     10  C   UNL     1      52.843  15.705  21.046  0.00  0.00    +0.301 A 
ATOM     11  N   UNL     1      51.640  16.104  20.515  0.00  0.00    -0.620 N 
ATOM     12  H   UNL     1      51.217  16.910  20.853  0.00  0.00    +0.419 HD
ATOM     13  C   UNL     1      53.474  12.644  19.073  0.00  0.00    -0.002 A 
ATOM     14  C   UNL     1      52.874  11.900  18.061  0.00  0.00    +0.051 A 
ATOM     15  O   UNL     1      53.278  10.753  17.438  0.00  0.00    -0.313 OA
ATOM     16  C   UNL     1      52.499  10.675  16.230  0.00  0.00    +0.415 C 
ATOM     17  O   UNL     1      51.295  11.394  16.557  0.00  0.00    -0.304 OA
ATOM     18  C   UNL     1      51.013  15.383  19.506  0.00  0.00    +0.170 A 
ATOM     19  C   UNL     1      51.656  12.292  17.520  0.00  0.00    +0.005 A 
ATOM     20  C   UNL     1      49.797  15.816  18.995  0.00  0.00    -0.013 A 
ATOM     41  C   UNL     1      49.101  13.161  16.417  0.00  0.00    +0.034 A 
ENDROOT
BRANCH  20  21
ATOM     21  C   UNL     1      49.172  17.045  19.524  0.00  0.00    -0.261 A 
ATOM     22  C   UNL     1      49.597  18.353  19.023  0.00  0.00    +0.061 A 
ATOM     23  C   UNL     1      50.594  18.463  18.046  0.00  0.00    -0.039 A 
ATOM     24  C   UNL     1      50.972  19.697  17.599  0.00  0.00    +0.008 A 
ATOM     25  C   UNL     1      50.379  20.848  18.101  0.00  0.00    -0.083 A 
ATOM     26  C   UNL     1      49.402  20.773  19.054  0.00  0.00    +0.055 A 
ATOM     27  C   UNL     1      48.995  19.526  19.531  0.00  0.00    -0.123 A 
ATOM     28  C   UNL     1      47.951  19.403  20.555  0.00  0.00    +0.050 A 
ATOM     29  C   UNL     1      47.574  18.122  21.005  0.00  0.00    -0.107 A 
ATOM     30  C   UNL     1      46.567  17.999  21.993  0.00  0.00    +0.050 A 
ATOM     31  C   UNL     1      45.961  19.137  22.505  0.00  0.00    -0.059 A 
ATOM     32  C   UNL     1      46.336  20.398  22.054  0.00  0.00    +0.075 A 
ATOM     33  O   UNL     1      45.889  21.641  22.403  0.00  0.00    -0.319 OA
ATOM     34  C   UNL     1      46.323  22.516  21.345  0.00  0.00    +0.403 C 
ATOM     35  O   UNL     1      47.498  21.867  20.827  0.00  0.00    -0.308 OA
ATOM     36  C   UNL     1      46.180  16.653  22.440  0.00  0.00    -0.219 A 
ATOM     37  C   UNL     1      46.795  15.585  21.913  0.00  0.00    +0.264 A 
ATOM     38  N   UNL     1      47.775  15.712  20.958  0.00  0.00    -0.602 NA
ATOM     39  C   UNL     1      47.324  20.536  21.086  0.00  0.00    -0.058 A 
ATOM     40  C   UNL     1      48.178  16.955  20.489  0.00  0.00    +0.246 A 
ENDBRANCH  20  21
TORSDOF 1
ENDMDL
MODEL 8
REMARK VINA RESULT:      -6.5      1.618      8.142
REMARK  Name = ZINC95486217
REMARK  1 active torsions:
REMARK  status: ('A' for Active; 'I' for Inactive)
REMARK    1  A    between atoms: C17_20  and  C18_21
REMARK                            x       y       z     vdW  Elec       q    Type
REMARK                         _______ _______ _______ _____ _____    ______ ____
ROOT
ATOM      1  C   UNL     1      49.762  20.746  18.517  0.00  0.00    -0.028 A 
ATOM      2  C   UNL     1      50.386  19.536  18.233  0.00  0.00    -0.003 A 
ATOM      3  C   UNL     1      49.814  18.351  18.595  0.00  0.00    +0.033 A 
ATOM      4  C   UNL     1      48.582  18.351  19.261  0.00  0.00    +0.021 A 
ATOM      5  C   UNL     1      47.950  19.581  19.548  0.00  0.00    -0.077 A 
ATOM      6  C   UNL     1      46.659  19.572  20.246  0.00  0.00    +0.016 A 
ATOM      7  C   UNL     1      46.083  18.340  20.613  0.00  0.00    -0.042 A 
ATOM      8  C   UNL     1      44.838  18.326  21.287  0.00  0.00    +0.018 A 
ATOM      9  C   UNL     1      44.254  17.030  21.662  0.00  0.00    -0.116 A 
ATOM     10  C   UNL     1      44.909  15.902  21.357  0.00  0.00    +0.301 A 
ATOM     11  N   UNL     1      46.117  15.922  20.702  0.00  0.00    -0.620 N 
ATOM     12  H   UNL     1      46.560  15.083  20.500  0.00  0.00    +0.419 HD
ATOM     13  C   UNL     1      44.197  19.522  21.578  0.00  0.00    -0.002 A 
ATOM     14  C   UNL     1      44.772  20.734  21.209  0.00  0.00    +0.051 A 
ATOM     15  O   UNL     1      44.338  22.018  21.384  0.00  0.00    -0.313 OA
ATOM     16  C   UNL     1      45.107  22.814  20.464  0.00  0.00    +0.415 C 
ATOM     17  O   UNL     1      46.329  22.068  20.310  0.00  0.00    -0.304 OA
ATOM     18  C   UNL     1      46.721  17.114  20.322  0.00  0.00    +0.170 A 
ATOM     19  C   UNL     1      45.995  20.766  20.550  0.00  0.00    +0.005 A 
ATOM     20  C   UNL     1      47.942  17.096  19.663  0.00  0.00    -0.013 A 
ATOM     41  C   UNL     1      48.561  20.777  19.166  0.00  0.00    +0.034 A 
ENDROOT
BRANCH  20  21
ATOM     21  C   UNL     1      48.598  15.807  19.365  0.00  0.00    -0.261 A 
ATOM     22  C   UNL     1      48.240  15.070  18.152  0.00  0.00    +0.061 A 
ATOM     23  C   UNL     1      47.279  15.565  17.263  0.00  0.00    -0.039 A 
ATOM     24  C   UNL     1      46.963  14.855  16.140  0.00  0.00    +0.008 A 
ATOM     25  C   UNL     1      47.585  13.643  15.867  0.00  0.00    -0.083 A 
ATOM     26  C   UNL     1      48.528  13.134  16.715  0.00  0.00    +0.055 A 
ATOM     27  C   UNL     1      48.871  13.837  17.871  0.00  0.00    -0.123 A 
ATOM     28  C   UNL     1      49.878  13.324  18.807  0.00  0.00    +0.050 A 
ATOM     29  C   UNL     1      50.190  14.070  19.961  0.00  0.00    -0.107 A 
ATOM     30  C   UNL     1      51.161  13.578  20.867  0.00  0.00    +0.050 A 
ATOM     31  C   UNL     1      51.795  12.371  20.611  0.00  0.00    -0.059 A 
ATOM     32  C   UNL     1      51.483  11.641  19.469  0.00  0.00    +0.075 A 
ATOM     33  O   UNL     1      51.967  10.448  19.011  0.00  0.00    -0.319 OA
ATOM     34  C   UNL     1      51.601  10.394  17.619  0.00  0.00    +0.403 C 
ATOM     35  O   UNL     1      50.418  11.210  17.547  0.00  0.00    -0.308 OA
ATOM     36  C   UNL     1      51.482  14.378  22.058  0.00  0.00    -0.219 A 
ATOM     37  C   UNL     1      50.841  15.538  22.261  0.00  0.00    +0.264 A 
ATOM     38  N   UNL     1      49.897  16.008  21.379  0.00  0.00    -0.602 NA
ATOM     39  C   UNL     1      50.532  12.109  18.569  0.00  0.00    -0.058 A 
ATOM     40  C   UNL     1      49.557  15.302  20.232  0.00  0.00    +0.246 A 
ENDBRANCH  20  21
TORSDOF 1
ENDMDL
MODEL 9
REMARK VINA RESULT:      -6.4      1.338      8.384
REMARK  Name = ZINC95486217
REMARK  1 active torsions:
REMARK  status: ('A' for Active; 'I' for Inactive)
REMARK    1  A    between atoms: C17_20  and  C18_21
REMARK                            x       y       z     vdW  Elec       q    Type
REMARK                         _______ _______ _______ _____ _____    ______ ____
ROOT
ATOM      1  C   UNL     1      44.717  15.547  21.996  0.00  0.00    -0.028 A 
ATOM      2  C   UNL     1      45.510  14.523  21.491  0.00  0.00    -0.003 A 
ATOM      3  C   UNL     1      46.620  14.798  20.745  0.00  0.00    +0.033 A 
ATOM      4  C   UNL     1      46.968  16.129  20.486  0.00  0.00    +0.021 A 
ATOM      5  C   UNL     1      46.162  17.169  21.000  0.00  0.00    -0.077 A 
ATOM      6  C   UNL     1      46.533  18.561  20.724  0.00  0.00    +0.016 A 
ATOM      7  C   UNL     1      47.682  18.828  19.954  0.00  0.00    -0.042 A 
ATOM      8  C   UNL     1      48.044  20.170  19.684  0.00  0.00    +0.018 A 
ATOM      9  C   UNL     1      49.246  20.427  18.877  0.00  0.00    -0.116 A 
ATOM     10  C   UNL     1      49.964  19.391  18.421  0.00  0.00    +0.301 A 
ATOM     11  N   UNL     1      49.607  18.092  18.687  0.00  0.00    -0.620 N 
ATOM     12  H   UNL     1      50.154  17.370  18.338  0.00  0.00    +0.419 HD
ATOM     13  C   UNL     1      47.268  21.208  20.181  0.00  0.00    -0.002 A 
ATOM     14  C   UNL     1      46.137  20.935  20.944  0.00  0.00    +0.051 A 
ATOM     15  O   UNL     1      45.233  21.774  21.531  0.00  0.00    -0.313 OA
ATOM     16  C   UNL     1      44.539  20.974  22.505  0.00  0.00    +0.415 C 
ATOM     17  O   UNL     1      44.630  19.639  21.973  0.00  0.00    -0.304 OA
ATOM     18  C   UNL     1      48.483  17.784  19.443  0.00  0.00    +0.170 A 
ATOM     19  C   UNL     1      45.766  19.624  21.216  0.00  0.00    +0.005 A 
ATOM     20  C   UNL     1      48.153  16.458  19.690  0.00  0.00    -0.013 A 
ATOM     41  C   UNL     1      45.032  16.855  21.758  0.00  0.00    +0.034 A 
ENDROOT
BRANCH  20  21
ATOM     21  C   UNL     1      48.999  15.376  19.149  0.00  0.00    -0.261 A 
ATOM     22  C   UNL     1      48.587  14.664  17.938  0.00  0.00    +0.061 A 
ATOM     23  C   UNL     1      47.395  14.990  17.280  0.00  0.00    -0.039 A 
ATOM     24  C   UNL     1      47.035  14.307  16.153  0.00  0.00    +0.008 A 
ATOM     25  C   UNL     1      47.837  13.290  15.649  0.00  0.00    -0.083 A 
ATOM     26  C   UNL     1      49.006  12.950  16.270  0.00  0.00    +0.055 A 
ATOM     27  C   UNL     1      49.401  13.630  17.424  0.00  0.00    -0.123 A 
ATOM     28  C   UNL     1      50.648  13.293  18.120  0.00  0.00    +0.050 A 
ATOM     29  C   UNL     1      51.004  14.007  19.281  0.00  0.00    -0.107 A 
ATOM     30  C   UNL     1      52.206  13.686  19.956  0.00  0.00    +0.050 A 
ATOM     31  C   UNL     1      53.022  12.676  19.468  0.00  0.00    -0.059 A 
ATOM     32  C   UNL     1      52.666  11.977  18.320  0.00  0.00    +0.075 A 
ATOM     33  O   UNL     1      53.297  10.960  17.661  0.00  0.00    -0.319 OA
ATOM     34  C   UNL     1      52.701  10.922  16.351  0.00  0.00    +0.403 C 
ATOM     35  O   UNL     1      51.379  11.451  16.564  0.00  0.00    -0.308 OA
ATOM     36  C   UNL     1      52.566  14.452  21.159  0.00  0.00    -0.219 A 
ATOM     37  C   UNL     1      51.744  15.419  21.590  0.00  0.00    +0.264 A 
ATOM     38  N   UNL     1      50.576  15.723  20.932  0.00  0.00    -0.602 NA
ATOM     39  C   UNL     1      51.488  12.278  17.646  0.00  0.00    -0.058 A 
ATOM     40  C   UNL     1      50.186  15.042  19.787  0.00  0.00    +0.246 A 
ENDBRANCH  20  21
TORSDOF 1
ENDMDL
