MODEL 1
REMARK VINA RESULT:      -4.6      0.000      0.000
REMARK  Name = ZINC00039811
REMARK  3 active torsions:
REMARK  status: ('A' for Active; 'I' for Inactive)
REMARK    1  A    between atoms: C3_3  and  O2_11
REMARK    2  A    between atoms: C6_6  and  C7_7
REMARK    3  A    between atoms: C8_8  and  C9_9
REMARK                            x       y       z     vdW  Elec       q    Type
REMARK                         _______ _______ _______ _____ _____    ______ ____
ROOT
ATOM      1  C   UNL     1      53.610  34.882   6.911  0.00  0.00    +0.029 A 
ATOM      2  C   UNL     1      52.250  34.750   7.068  0.00  0.00    -0.018 A 
ATOM      3  C   UNL     1      51.588  33.653   6.529  0.00  0.00    +0.085 A 
ATOM      6  C   UNL     1      52.298  32.677   5.839  0.00  0.00    -0.014 A 
ATOM      7  C   UNL     1      53.660  32.797   5.680  0.00  0.00    +0.029 A 
ATOM      8  C   UNL     1      54.330  33.903   6.217  0.00  0.00    -0.043 A 
ENDROOT
BRANCH   3   4
ATOM      4  O   UNL     1      50.245  33.530   6.684  0.00  0.00    -0.501 OA
ATOM      5  H   UNL     1      49.887  32.692   6.361  0.00  0.00    +0.385 HD
ENDBRANCH   3   4
BRANCH   8   9
ATOM      9  C   UNL     1      55.784  34.036   6.051  0.00  0.00    +0.013 C 
ATOM     10  C   UNL     1      56.477  33.089   5.379  0.00  0.00    -0.033 C 
BRANCH  10  11
ATOM     11  C   UNL     1      57.880  33.218   5.220  0.00  0.00    +0.469 C 
ATOM     12  O   UNL     1      58.546  32.374   4.404  0.00  0.00    -0.764 OA
ATOM     13  O   UNL     1      58.483  34.089   5.817  0.00  0.00    -0.637 OA
ENDBRANCH  10  11
ENDBRANCH   8   9
TORSDOF 3
ENDMDL
MODEL 2
REMARK VINA RESULT:      -4.4     22.557     24.250
REMARK  Name = ZINC00039811
REMARK  3 active torsions:
REMARK  status: ('A' for Active; 'I' for Inactive)
REMARK    1  A    between atoms: C3_3  and  O2_11
REMARK    2  A    between atoms: C6_6  and  C7_7
REMARK    3  A    between atoms: C8_8  and  C9_9
REMARK                            x       y       z     vdW  Elec       q    Type
REMARK                         _______ _______ _______ _____ _____    ______ ____
ROOT
ATOM      1  C   UNL     1      44.094  18.329  19.855  0.00  0.00    +0.029 A 
ATOM      2  C   UNL     1      44.624  17.236  20.501  0.00  0.00    -0.018 A 
ATOM      3  C   UNL     1      44.033  16.760  21.666  0.00  0.00    +0.085 A 
ATOM      6  C   UNL     1      42.897  17.376  22.178  0.00  0.00    -0.014 A 
ATOM      7  C   UNL     1      42.356  18.468  21.536  0.00  0.00    +0.029 A 
ATOM      8  C   UNL     1      42.951  18.955  20.365  0.00  0.00    -0.043 A 
ENDROOT
BRANCH   3   4
ATOM      4  O   UNL     1      44.563  15.684  22.302  0.00  0.00    -0.501 OA
ATOM      5  H   UNL     1      44.830  14.968  21.709  0.00  0.00    +0.385 HD
ENDBRANCH   3   4
BRANCH   8   9
ATOM      9  C   UNL     1      42.376  20.119  19.676  0.00  0.00    +0.013 C 
ATOM     10  C   UNL     1      41.043  20.189  19.465  0.00  0.00    -0.033 C 
BRANCH  10  11
ATOM     11  C   UNL     1      40.490  21.313  18.800  0.00  0.00    +0.469 C 
ATOM     12  O   UNL     1      39.185  21.319  18.459  0.00  0.00    -0.764 OA
ATOM     13  O   UNL     1      41.192  22.271  18.537  0.00  0.00    -0.637 OA
ENDBRANCH  10  11
ENDBRANCH   8   9
TORSDOF 3
ENDMDL
MODEL 3
REMARK VINA RESULT:      -4.3     20.349     22.111
REMARK  Name = ZINC00039811
REMARK  3 active torsions:
REMARK  status: ('A' for Active; 'I' for Inactive)
REMARK    1  A    between atoms: C3_3  and  O2_11
REMARK    2  A    between atoms: C6_6  and  C7_7
REMARK    3  A    between atoms: C8_8  and  C9_9
REMARK                            x       y       z     vdW  Elec       q    Type
REMARK                         _______ _______ _______ _____ _____    ______ ____
ROOT
ATOM      1  C   UNL     1      44.014  22.860  19.671  0.00  0.00    +0.029 A 
ATOM      2  C   UNL     1      45.033  23.469  20.367  0.00  0.00    -0.018 A 
ATOM      3  C   UNL     1      45.728  22.765  21.344  0.00  0.00    +0.085 A 
ATOM      6  C   UNL     1      45.407  21.440  21.615  0.00  0.00    -0.014 A 
ATOM      7  C   UNL     1      44.392  20.820  20.920  0.00  0.00    +0.029 A 
ATOM      8  C   UNL     1      43.685  21.526  19.939  0.00  0.00    -0.043 A 
ENDROOT
BRANCH   3   4
ATOM      4  O   UNL     1      46.729  23.372  22.031  0.00  0.00    -0.501 OA
ATOM      5  H   UNL     1      46.599  24.321  22.160  0.00  0.00    +0.385 HD
ENDBRANCH   3   4
BRANCH   8   9
ATOM      9  C   UNL     1      42.603  20.868  19.194  0.00  0.00    +0.013 C 
ATOM     10  C   UNL     1      41.407  21.482  19.055  0.00  0.00    -0.033 C 
BRANCH  10  11
ATOM     11  C   UNL     1      40.363  20.847  18.337  0.00  0.00    +0.469 C 
ATOM     12  O   UNL     1      40.592  19.673  17.713  0.00  0.00    -0.764 OA
ATOM     13  O   UNL     1      39.261  21.358  18.285  0.00  0.00    -0.637 OA
ENDBRANCH  10  11
ENDBRANCH   8   9
TORSDOF 3
ENDMDL
MODEL 4
REMARK VINA RESULT:      -4.2     20.346     21.392
REMARK  Name = ZINC00039811
REMARK  3 active torsions:
REMARK  status: ('A' for Active; 'I' for Inactive)
REMARK    1  A    between atoms: C3_3  and  O2_11
REMARK    2  A    between atoms: C6_6  and  C7_7
REMARK    3  A    between atoms: C8_8  and  C9_9
REMARK                            x       y       z     vdW  Elec       q    Type
REMARK                         _______ _______ _______ _____ _____    ______ ____
ROOT
ATOM      1  C   UNL     1      45.908  21.159  18.875  0.00  0.00    +0.029 A 
ATOM      2  C   UNL     1      45.261  22.231  19.446  0.00  0.00    -0.018 A 
ATOM      3  C   UNL     1      43.903  22.155  19.730  0.00  0.00    +0.085 A 
ATOM      6  C   UNL     1      43.192  20.994  19.450  0.00  0.00    -0.014 A 
ATOM      7  C   UNL     1      43.831  19.914  18.884  0.00  0.00    +0.029 A 
ATOM      8  C   UNL     1      45.198  19.987  18.591  0.00  0.00    -0.043 A 
ENDROOT
BRANCH   3   4
ATOM      4  O   UNL     1      43.268  23.218  20.289  0.00  0.00    -0.501 OA
ATOM      5  H   UNL     1      43.556  24.074  19.944  0.00  0.00    +0.385 HD
ENDBRANCH   3   4
BRANCH   8   9
ATOM      9  C   UNL     1      45.885  18.836  17.987  0.00  0.00    +0.013 C 
ATOM     10  C   UNL     1      45.626  17.586  18.429  0.00  0.00    -0.033 C 
BRANCH  10  11
ATOM     11  C   UNL     1      46.289  16.477  17.846  0.00  0.00    +0.469 C 
ATOM     12  O   UNL     1      46.685  16.529  16.558  0.00  0.00    -0.764 OA
ATOM     13  O   UNL     1      46.502  15.479  18.508  0.00  0.00    -0.637 OA
ENDBRANCH  10  11
ENDBRANCH   8   9
TORSDOF 3
ENDMDL
MODEL 5
REMARK VINA RESULT:      -4.2     18.040     19.675
REMARK  Name = ZINC00039811
REMARK  3 active torsions:
REMARK  status: ('A' for Active; 'I' for Inactive)
REMARK    1  A    between atoms: C3_3  and  O2_11
REMARK    2  A    between atoms: C6_6  and  C7_7
REMARK    3  A    between atoms: C8_8  and  C9_9
REMARK                            x       y       z     vdW  Elec       q    Type
REMARK                         _______ _______ _______ _____ _____    ______ ____
ROOT
ATOM      1  C   UNL     1      50.058  18.885  18.082  0.00  0.00    +0.029 A 
ATOM      2  C   UNL     1      50.851  18.372  17.081  0.00  0.00    -0.018 A 
ATOM      3  C   UNL     1      51.721  19.204  16.386  0.00  0.00    +0.085 A 
ATOM      6  C   UNL     1      51.805  20.554  16.705  0.00  0.00    -0.014 A 
ATOM      7  C   UNL     1      51.019  21.076  17.708  0.00  0.00    +0.029 A 
ATOM      8  C   UNL     1      50.137  20.243  18.408  0.00  0.00    -0.043 A 
ENDROOT
BRANCH   3   4
ATOM      4  O   UNL     1      52.498  18.694  15.396  0.00  0.00    -0.501 OA
ATOM      5  H   UNL     1      52.901  19.365  14.827  0.00  0.00    +0.385 HD
ENDBRANCH   3   4
BRANCH   8   9
ATOM      9  C   UNL     1      49.297  20.795  19.481  0.00  0.00    +0.013 C 
ATOM     10  C   UNL     1      47.952  20.693  19.406  0.00  0.00    -0.033 C 
BRANCH  10  11
ATOM     11  C   UNL     1      47.143  21.226  20.441  0.00  0.00    +0.469 C 
ATOM     12  O   UNL     1      45.815  20.987  20.450  0.00  0.00    -0.764 OA
ATOM     13  O   UNL     1      47.645  21.898  21.321  0.00  0.00    -0.637 OA
ENDBRANCH  10  11
ENDBRANCH   8   9
TORSDOF 3
ENDMDL
MODEL 6
REMARK VINA RESULT:      -4.1     18.367     20.081
REMARK  Name = ZINC00039811
REMARK  3 active torsions:
REMARK  status: ('A' for Active; 'I' for Inactive)
REMARK    1  A    between atoms: C3_3  and  O2_11
REMARK    2  A    between atoms: C6_6  and  C7_7
REMARK    3  A    between atoms: C8_8  and  C9_9
REMARK                            x       y       z     vdW  Elec       q    Type
REMARK                         _______ _______ _______ _____ _____    ______ ____
ROOT
ATOM      1  C   UNL     1      50.043  20.756  20.762  0.00  0.00    +0.029 A 
ATOM      2  C   UNL     1      51.381  21.056  20.652  0.00  0.00    -0.018 A 
ATOM      3  C   UNL     1      51.943  21.288  19.402  0.00  0.00    +0.085 A 
ATOM      6  C   UNL     1      51.155  21.231  18.258  0.00  0.00    -0.014 A 
ATOM      7  C   UNL     1      49.814  20.936  18.358  0.00  0.00    +0.029 A 
ATOM      8  C   UNL     1      49.244  20.696  19.615  0.00  0.00    -0.043 A 
ENDROOT
BRANCH   3   4
ATOM      4  O   UNL     1      53.265  21.579  19.298  0.00  0.00    -0.501 OA
ATOM      5  H   UNL     1      53.648  21.962  20.099  0.00  0.00    +0.385 HD
ENDBRANCH   3   4
BRANCH   8   9
ATOM      9  C   UNL     1      47.813  20.383  19.727  0.00  0.00    +0.013 C 
ATOM     10  C   UNL     1      46.957  20.774  18.757  0.00  0.00    -0.033 C 
BRANCH  10  11
ATOM     11  C   UNL     1      45.576  20.471  18.866  0.00  0.00    +0.469 C 
ATOM     12  O   UNL     1      44.761  21.284  19.570  0.00  0.00    -0.764 OA
ATOM     13  O   UNL     1      45.126  19.480  18.325  0.00  0.00    -0.637 OA
ENDBRANCH  10  11
ENDBRANCH   8   9
TORSDOF 3
ENDMDL
MODEL 7
REMARK VINA RESULT:      -4.1      1.637      2.081
REMARK  Name = ZINC00039811
REMARK  3 active torsions:
REMARK  status: ('A' for Active; 'I' for Inactive)
REMARK    1  A    between atoms: C3_3  and  O2_11
REMARK    2  A    between atoms: C6_6  and  C7_7
REMARK    3  A    between atoms: C8_8  and  C9_9
REMARK                            x       y       z     vdW  Elec       q    Type
REMARK                         _______ _______ _______ _____ _____    ______ ____
ROOT
ATOM      1  C   UNL     1      53.584  33.890   6.465  0.00  0.00    +0.029 A 
ATOM      2  C   UNL     1      52.355  34.058   7.062  0.00  0.00    -0.018 A 
ATOM      3  C   UNL     1      51.220  33.492   6.493  0.00  0.00    +0.085 A 
ATOM      6  C   UNL     1      51.321  32.744   5.326  0.00  0.00    -0.014 A 
ATOM      7  C   UNL     1      52.546  32.566   4.724  0.00  0.00    +0.029 A 
ATOM      8  C   UNL     1      53.692  33.138   5.290  0.00  0.00    -0.043 A 
ENDROOT
BRANCH   3   4
ATOM      4  O   UNL     1      50.010  33.665   7.083  0.00  0.00    -0.501 OA
ATOM      5  H   UNL     1      49.835  34.573   7.364  0.00  0.00    +0.385 HD
ENDBRANCH   3   4
BRANCH   8   9
ATOM      9  C   UNL     1      55.002  32.950   4.651  0.00  0.00    +0.013 C 
ATOM     10  C   UNL     1      55.166  31.989   3.716  0.00  0.00    -0.033 C 
BRANCH  10  11
ATOM     11  C   UNL     1      56.431  31.808   3.101  0.00  0.00    +0.469 C 
ATOM     12  O   UNL     1      57.543  31.722   3.860  0.00  0.00    -0.764 OA
ATOM     13  O   UNL     1      56.513  31.728   1.890  0.00  0.00    -0.637 OA
ENDBRANCH  10  11
ENDBRANCH   8   9
TORSDOF 3
ENDMDL
MODEL 8
REMARK VINA RESULT:      -4.1     18.516     19.661
REMARK  Name = ZINC00039811
REMARK  3 active torsions:
REMARK  status: ('A' for Active; 'I' for Inactive)
REMARK    1  A    between atoms: C3_3  and  O2_11
REMARK    2  A    between atoms: C6_6  and  C7_7
REMARK    3  A    between atoms: C8_8  and  C9_9
REMARK                            x       y       z     vdW  Elec       q    Type
REMARK                         _______ _______ _______ _____ _____    ______ ____
ROOT
ATOM      1  C   UNL     1      46.152  21.070  18.848  0.00  0.00    +0.029 A 
ATOM      2  C   UNL     1      45.055  21.761  19.308  0.00  0.00    -0.018 A 
ATOM      3  C   UNL     1      45.088  22.371  20.557  0.00  0.00    +0.085 A 
ATOM      6  C   UNL     1      46.232  22.297  21.343  0.00  0.00    -0.014 A 
ATOM      7  C   UNL     1      47.337  21.612  20.890  0.00  0.00    +0.029 A 
ATOM      8  C   UNL     1      47.307  20.991  19.635  0.00  0.00    -0.043 A 
ENDROOT
BRANCH   3   4
ATOM      4  O   UNL     1      44.000  23.048  21.008  0.00  0.00    -0.501 OA
ATOM      5  H   UNL     1      43.810  23.858  20.517  0.00  0.00    +0.385 HD
ENDBRANCH   3   4
BRANCH   8   9
ATOM      9  C   UNL     1      48.484  20.260  19.146  0.00  0.00    +0.013 C 
ATOM     10  C   UNL     1      49.597  20.935  18.784  0.00  0.00    -0.033 C 
BRANCH  10  11
ATOM     11  C   UNL     1      50.732  20.228  18.312  0.00  0.00    +0.469 C 
ATOM     12  O   UNL     1      51.771  20.902  17.777  0.00  0.00    -0.764 OA
ATOM     13  O   UNL     1      50.770  19.015  18.392  0.00  0.00    -0.637 OA
ENDBRANCH  10  11
ENDBRANCH   8   9
TORSDOF 3
ENDMDL
MODEL 9
REMARK VINA RESULT:      -4.1     18.673     20.124
REMARK  Name = ZINC00039811
REMARK  3 active torsions:
REMARK  status: ('A' for Active; 'I' for Inactive)
REMARK    1  A    between atoms: C3_3  and  O2_11
REMARK    2  A    between atoms: C6_6  and  C7_7
REMARK    3  A    between atoms: C8_8  and  C9_9
REMARK                            x       y       z     vdW  Elec       q    Type
REMARK                         _______ _______ _______ _____ _____    ______ ____
ROOT
ATOM      1  C   UNL     1      50.365  19.956  18.160  0.00  0.00    +0.029 A 
ATOM      2  C   UNL     1      51.071  20.970  17.556  0.00  0.00    -0.018 A 
ATOM      3  C   UNL     1      51.778  20.726  16.384  0.00  0.00    +0.085 A 
ATOM      6  C   UNL     1      51.768  19.460  15.811  0.00  0.00    -0.014 A 
ATOM      7  C   UNL     1      51.061  18.439  16.405  0.00  0.00    +0.029 A 
ATOM      8  C   UNL     1      50.350  18.679  17.588  0.00  0.00    -0.043 A 
ENDROOT
BRANCH   3   4
ATOM      4  O   UNL     1      52.477  21.730  15.795  0.00  0.00    -0.501 OA
ATOM      5  H   UNL     1      53.330  21.914  16.212  0.00  0.00    +0.385 HD
ENDBRANCH   3   4
BRANCH   8   9
ATOM      9  C   UNL     1      49.593  17.592  18.225  0.00  0.00    +0.013 C 
ATOM     10  C   UNL     1      48.503  17.079  17.614  0.00  0.00    -0.033 C 
BRANCH  10  11
ATOM     11  C   UNL     1      47.773  16.031  18.230  0.00  0.00    +0.469 C 
ATOM     12  O   UNL     1      48.402  15.161  19.047  0.00  0.00    -0.764 OA
ATOM     13  O   UNL     1      46.580  15.918  18.024  0.00  0.00    -0.637 OA
ENDBRANCH  10  11
ENDBRANCH   8   9
TORSDOF 3
ENDMDL
