MODEL 1
REMARK VINA RESULT:      -6.8      0.000      0.000
REMARK  Name = ZINC95486286
REMARK  10 active torsions:
REMARK  status: ('A' for Active; 'I' for Inactive)
REMARK    1  A    between atoms: C1_1  and  C2_2
REMARK    2  A    between atoms: C3_3  and  O8_26
REMARK    3  A    between atoms: C4_4  and  C18_25
REMARK    4  A    between atoms: C7_7  and  O1_8
REMARK    5  A    between atoms: C9_11  and  O7_23
REMARK    6  A    between atoms: C10_12  and  O4_14
REMARK    7  A    between atoms: O4_14  and  C11_15
REMARK    8  A    between atoms: C14_18  and  O6_22
REMARK    9  A    between atoms: C15_19  and  O5_21
REMARK   10  A    between atoms: O7_23  and  C17_24
REMARK                            x       y       z     vdW  Elec       q    Type
REMARK                         _______ _______ _______ _____ _____    ______ ____
ROOT
ATOM      1  C   UNL     1      46.727  12.959  18.888  0.00  0.00    +0.121 C 
ATOM      2  C   UNL     1      46.123  14.259  19.357  0.00  0.00    -0.161 A 
ATOM      3  C   UNL     1      45.390  14.297  20.538  0.00  0.00    +0.187 A 
ATOM      6  C   UNL     1      44.828  15.484  20.982  0.00  0.00    -0.136 A 
ATOM      7  C   UNL     1      44.034  15.508  22.263  0.00  0.00    +0.122 C 
ATOM      8  C   UNL     1      44.995  16.648  20.248  0.00  0.00    +0.182 A 
ATOM      9  C   UNL     1      45.737  16.612  19.055  0.00  0.00    -0.247 A 
ATOM     10  C   UNL     1      45.901  17.861  18.292  0.00  0.00    +0.442 A 
ATOM     11  C   UNL     1      45.296  19.027  18.816  0.00  0.00    -0.077 A 
ATOM     14  C   UNL     1      44.598  18.955  19.981  0.00  0.00    +0.225 A 
ATOM     26  O   UNL     1      46.534  17.889  17.249  0.00  0.00    -0.427 OA
ATOM     27  O   UNL     1      44.455  17.812  20.666  0.00  0.00    -0.229 OA
ATOM     28  C   UNL     1      46.306  15.410  18.615  0.00  0.00    +0.213 A 
ENDROOT
BRANCH   3   4
ATOM      4  O   UNL     1      45.221  13.161  21.262  0.00  0.00    -0.480 OA
ATOM      5  H   UNL     1      45.880  13.037  21.959  0.00  0.00    +0.402 HD
ENDBRANCH   3   4
BRANCH  11  12
ATOM     12  O   UNL     1      45.412  20.215  18.158  0.00  0.00    -0.285 OA
ATOM     13  C   UNL     1      46.440  21.103  18.598  0.00  0.00    +0.258 C 
ENDBRANCH  11  12
BRANCH  28  29
ATOM     29  O   UNL     1      47.027  15.376  17.465  0.00  0.00    -0.468 OA
ATOM     30  H   UNL     1      46.512  15.129  16.685  0.00  0.00    +0.402 HD
ENDBRANCH  28  29
BRANCH  14  15
ATOM     15  O   UNL     1      44.026  20.079  20.466  0.00  0.00    -0.206 OA
BRANCH  15  16
ATOM     16  C   UNL     1      42.884  20.521  19.874  0.00  0.00    +0.060 A 
ATOM     17  C   UNL     1      41.756  19.714  19.858  0.00  0.00    +0.036 A 
ATOM     18  C   UNL     1      40.594  20.161  19.257  0.00  0.00    +0.029 A 
ATOM     19  C   UNL     1      40.554  21.415  18.669  0.00  0.00    +0.098 A 
ATOM     22  C   UNL     1      41.685  22.226  18.684  0.00  0.00    +0.096 A 
ATOM     25  C   UNL     1      42.847  21.780  19.292  0.00  0.00    +0.023 A 
BRANCH  19  20
ATOM     20  O   UNL     1      39.411  21.853  18.077  0.00  0.00    -0.484 OA
ATOM     21  H   UNL     1      39.392  22.806  17.914  0.00  0.00    +0.394 HD
ENDBRANCH  19  20
BRANCH  22  23
ATOM     23  O   UNL     1      41.648  23.457  18.109  0.00  0.00    -0.481 OA
ATOM     24  H   UNL     1      40.886  23.992  18.372  0.00  0.00    +0.393 HD
ENDBRANCH  22  23
ENDBRANCH  15  16
ENDBRANCH  14  15
TORSDOF 7
ENDMDL
MODEL 2
REMARK VINA RESULT:      -6.4      3.161      7.534
REMARK  Name = ZINC95486286
REMARK  10 active torsions:
REMARK  status: ('A' for Active; 'I' for Inactive)
REMARK    1  A    between atoms: C1_1  and  C2_2
REMARK    2  A    between atoms: C3_3  and  O8_26
REMARK    3  A    between atoms: C4_4  and  C18_25
REMARK    4  A    between atoms: C7_7  and  O1_8
REMARK    5  A    between atoms: C9_11  and  O7_23
REMARK    6  A    between atoms: C10_12  and  O4_14
REMARK    7  A    between atoms: O4_14  and  C11_15
REMARK    8  A    between atoms: C14_18  and  O6_22
REMARK    9  A    between atoms: C15_19  and  O5_21
REMARK   10  A    between atoms: O7_23  and  C17_24
REMARK                            x       y       z     vdW  Elec       q    Type
REMARK                         _______ _______ _______ _____ _____    ______ ____
ROOT
ATOM      1  C   UNL     1      40.796  21.856  18.523  0.00  0.00    +0.121 C 
ATOM      2  C   UNL     1      42.183  21.740  19.103  0.00  0.00    -0.161 A 
ATOM      3  C   UNL     1      42.964  22.879  19.267  0.00  0.00    +0.187 A 
ATOM      6  C   UNL     1      44.241  22.790  19.798  0.00  0.00    -0.136 A 
ATOM      7  C   UNL     1      45.075  24.034  19.967  0.00  0.00    +0.122 C 
ATOM      8  C   UNL     1      44.752  21.557  20.173  0.00  0.00    +0.182 A 
ATOM      9  C   UNL     1      43.964  20.404  20.009  0.00  0.00    -0.247 A 
ATOM     10  C   UNL     1      44.528  19.106  20.415  0.00  0.00    +0.442 A 
ATOM     11  C   UNL     1      45.838  19.103  20.948  0.00  0.00    -0.077 A 
ATOM     14  C   UNL     1      46.517  20.276  21.065  0.00  0.00    +0.225 A 
ATOM     26  O   UNL     1      43.890  18.072  20.296  0.00  0.00    -0.427 OA
ATOM     27  O   UNL     1      45.993  21.452  20.691  0.00  0.00    -0.229 OA
ATOM     28  C   UNL     1      42.673  20.503  19.477  0.00  0.00    +0.213 A 
ENDROOT
BRANCH   3   4
ATOM      4  O   UNL     1      42.471  24.091  18.902  0.00  0.00    -0.480 OA
ATOM      5  H   UNL     1      43.144  24.778  18.810  0.00  0.00    +0.402 HD
ENDBRANCH   3   4
BRANCH  11  12
ATOM     12  O   UNL     1      46.417  17.934  21.342  0.00  0.00    -0.285 OA
ATOM     13  C   UNL     1      47.085  17.170  20.338  0.00  0.00    +0.258 C 
ENDBRANCH  11  12
BRANCH  28  29
ATOM     29  O   UNL     1      41.910  19.390  19.324  0.00  0.00    -0.468 OA
ATOM     30  H   UNL     1      42.415  18.566  19.309  0.00  0.00    +0.402 HD
ENDBRANCH  28  29
BRANCH  14  15
ATOM     15  O   UNL     1      47.768  20.254  21.575  0.00  0.00    -0.206 OA
BRANCH  15  16
ATOM     16  C   UNL     1      48.805  20.519  20.737  0.00  0.00    +0.060 A 
ATOM     17  C   UNL     1      48.582  20.627  19.372  0.00  0.00    +0.036 A 
ATOM     18  C   UNL     1      49.635  20.895  18.518  0.00  0.00    +0.029 A 
ATOM     19  C   UNL     1      50.916  21.056  19.023  0.00  0.00    +0.098 A 
ATOM     22  C   UNL     1      51.141  20.948  20.392  0.00  0.00    +0.096 A 
ATOM     25  C   UNL     1      50.084  20.685  21.247  0.00  0.00    +0.023 A 
BRANCH  19  20
ATOM     20  O   UNL     1      51.951  21.319  18.181  0.00  0.00    -0.484 OA
ATOM     21  H   UNL     1      51.857  22.146  17.687  0.00  0.00    +0.394 HD
ENDBRANCH  19  20
BRANCH  22  23
ATOM     23  O   UNL     1      52.396  21.106  20.889  0.00  0.00    -0.481 OA
ATOM     24  H   UNL     1      52.453  21.733  21.624  0.00  0.00    +0.393 HD
ENDBRANCH  22  23
ENDBRANCH  15  16
ENDBRANCH  14  15
TORSDOF 7
ENDMDL
MODEL 3
REMARK VINA RESULT:      -6.4      3.890      7.634
REMARK  Name = ZINC95486286
REMARK  10 active torsions:
REMARK  status: ('A' for Active; 'I' for Inactive)
REMARK    1  A    between atoms: C1_1  and  C2_2
REMARK    2  A    between atoms: C3_3  and  O8_26
REMARK    3  A    between atoms: C4_4  and  C18_25
REMARK    4  A    between atoms: C7_7  and  O1_8
REMARK    5  A    between atoms: C9_11  and  O7_23
REMARK    6  A    between atoms: C10_12  and  O4_14
REMARK    7  A    between atoms: O4_14  and  C11_15
REMARK    8  A    between atoms: C14_18  and  O6_22
REMARK    9  A    between atoms: C15_19  and  O5_21
REMARK   10  A    between atoms: O7_23  and  C17_24
REMARK                            x       y       z     vdW  Elec       q    Type
REMARK                         _______ _______ _______ _____ _____    ______ ____
ROOT
ATOM      1  C   UNL     1      42.313  21.965  19.138  0.00  0.00    +0.121 C 
ATOM      2  C   UNL     1      43.695  21.515  19.539  0.00  0.00    -0.161 A 
ATOM      3  C   UNL     1      44.404  22.227  20.501  0.00  0.00    +0.187 A 
ATOM      6  C   UNL     1      45.675  21.827  20.881  0.00  0.00    -0.136 A 
ATOM      7  C   UNL     1      46.431  22.610  21.923  0.00  0.00    +0.122 C 
ATOM      8  C   UNL     1      46.253  20.708  20.300  0.00  0.00    +0.182 A 
ATOM      9  C   UNL     1      45.538  19.987  19.328  0.00  0.00    -0.247 A 
ATOM     10  C   UNL     1      46.172  18.802  18.726  0.00  0.00    +0.442 A 
ATOM     11  C   UNL     1      47.472  18.463  19.170  0.00  0.00    -0.077 A 
ATOM     14  C   UNL     1      48.077  19.229  20.117  0.00  0.00    +0.225 A 
ATOM     26  O   UNL     1      45.599  18.139  17.877  0.00  0.00    -0.427 OA
ATOM     27  O   UNL     1      47.490  20.306  20.657  0.00  0.00    -0.229 OA
ATOM     28  C   UNL     1      44.252  20.394  18.953  0.00  0.00    +0.213 A 
ENDROOT
BRANCH   3   4
ATOM      4  O   UNL     1      43.845  23.324  21.074  0.00  0.00    -0.480 OA
ATOM      5  H   UNL     1      44.444  23.813  21.654  0.00  0.00    +0.402 HD
ENDBRANCH   3   4
BRANCH  11  12
ATOM     12  O   UNL     1      48.113  17.378  18.652  0.00  0.00    -0.285 OA
ATOM     13  C   UNL     1      48.856  17.577  17.449  0.00  0.00    +0.258 C 
ENDBRANCH  11  12
BRANCH  28  29
ATOM     29  O   UNL     1      43.559  19.694  18.019  0.00  0.00    -0.468 OA
ATOM     30  H   UNL     1      43.704  18.739  18.055  0.00  0.00    +0.402 HD
ENDBRANCH  28  29
BRANCH  14  15
ATOM     15  O   UNL     1      49.319  18.890  20.528  0.00  0.00    -0.206 OA
BRANCH  15  16
ATOM     16  C   UNL     1      50.312  19.807  20.383  0.00  0.00    +0.060 A 
ATOM     17  C   UNL     1      50.850  20.429  21.501  0.00  0.00    +0.036 A 
ATOM     18  C   UNL     1      51.859  21.362  21.356  0.00  0.00    +0.029 A 
ATOM     19  C   UNL     1      52.335  21.680  20.094  0.00  0.00    +0.098 A 
ATOM     22  C   UNL     1      51.797  21.058  18.972  0.00  0.00    +0.096 A 
ATOM     25  C   UNL     1      50.790  20.118  19.119  0.00  0.00    +0.023 A 
BRANCH  19  20
ATOM     20  O   UNL     1      53.328  22.599  19.952  0.00  0.00    -0.484 OA
ATOM     21  H   UNL     1      53.034  23.441  19.576  0.00  0.00    +0.394 HD
ENDBRANCH  19  20
BRANCH  22  23
ATOM     23  O   UNL     1      52.263  21.368  17.733  0.00  0.00    -0.481 OA
ATOM     24  H   UNL     1      53.188  21.650  17.719  0.00  0.00    +0.393 HD
ENDBRANCH  22  23
ENDBRANCH  15  16
ENDBRANCH  14  15
TORSDOF 7
ENDMDL
MODEL 4
REMARK VINA RESULT:      -6.3      6.189      8.116
REMARK  Name = ZINC95486286
REMARK  10 active torsions:
REMARK  status: ('A' for Active; 'I' for Inactive)
REMARK    1  A    between atoms: C1_1  and  C2_2
REMARK    2  A    between atoms: C3_3  and  O8_26
REMARK    3  A    between atoms: C4_4  and  C18_25
REMARK    4  A    between atoms: C7_7  and  O1_8
REMARK    5  A    between atoms: C9_11  and  O7_23
REMARK    6  A    between atoms: C10_12  and  O4_14
REMARK    7  A    between atoms: O4_14  and  C11_15
REMARK    8  A    between atoms: C14_18  and  O6_22
REMARK    9  A    between atoms: C15_19  and  O5_21
REMARK   10  A    between atoms: O7_23  and  C17_24
REMARK                            x       y       z     vdW  Elec       q    Type
REMARK                         _______ _______ _______ _____ _____    ______ ____
ROOT
ATOM      1  C   UNL     1      47.058  11.487  14.693  0.00  0.00    +0.121 C 
ATOM      2  C   UNL     1      48.111  12.438  15.202  0.00  0.00    -0.161 A 
ATOM      3  C   UNL     1      49.426  12.316  14.766  0.00  0.00    +0.187 A 
ATOM      6  C   UNL     1      50.405  13.182  15.225  0.00  0.00    -0.136 A 
ATOM      7  C   UNL     1      51.826  13.035  14.744  0.00  0.00    +0.122 C 
ATOM      8  C   UNL     1      50.080  14.183  16.127  0.00  0.00    +0.182 A 
ATOM      9  C   UNL     1      48.751  14.309  16.569  0.00  0.00    -0.247 A 
ATOM     10  C   UNL     1      48.429  15.380  17.528  0.00  0.00    +0.442 A 
ATOM     11  C   UNL     1      49.487  16.220  17.945  0.00  0.00    -0.077 A 
ATOM     14  C   UNL     1      50.740  16.013  17.457  0.00  0.00    +0.225 A 
ATOM     26  O   UNL     1      47.293  15.536  17.945  0.00  0.00    -0.427 OA
ATOM     27  O   UNL     1      51.021  15.034  16.585  0.00  0.00    -0.229 OA
ATOM     28  C   UNL     1      47.765  13.434  16.097  0.00  0.00    +0.213 A 
ENDROOT
BRANCH   3   4
ATOM      4  O   UNL     1      49.753  11.339  13.882  0.00  0.00    -0.480 OA
ATOM      5  H   UNL     1      49.857  10.465  14.283  0.00  0.00    +0.402 HD
ENDBRANCH   3   4
BRANCH  11  12
ATOM     12  O   UNL     1      49.255  17.229  18.830  0.00  0.00    -0.285 OA
ATOM     13  C   UNL     1      49.369  16.914  20.219  0.00  0.00    +0.258 C 
ENDBRANCH  11  12
BRANCH  28  29
ATOM     29  O   UNL     1      46.481  13.559  16.519  0.00  0.00    -0.468 OA
ATOM     30  H   UNL     1      45.904  14.015  15.891  0.00  0.00    +0.402 HD
ENDBRANCH  28  29
BRANCH  14  15
ATOM     15  O   UNL     1      51.739  16.825  17.867  0.00  0.00    -0.206 OA
BRANCH  15  16
ATOM     16  C   UNL     1      51.797  18.080  17.347  0.00  0.00    +0.060 A 
ATOM     17  C   UNL     1      51.728  18.264  15.973  0.00  0.00    +0.036 A 
ATOM     18  C   UNL     1      51.788  19.538  15.442  0.00  0.00    +0.029 A 
ATOM     19  C   UNL     1      51.917  20.635  16.280  0.00  0.00    +0.098 A 
ATOM     22  C   UNL     1      51.986  20.452  17.657  0.00  0.00    +0.096 A 
ATOM     25  C   UNL     1      51.920  19.175  18.189  0.00  0.00    +0.023 A 
BRANCH  19  20
ATOM     20  O   UNL     1      51.976  21.889  15.756  0.00  0.00    -0.484 OA
ATOM     21  H   UNL     1      52.782  22.066  15.250  0.00  0.00    +0.394 HD
ENDBRANCH  19  20
BRANCH  22  23
ATOM     23  O   UNL     1      52.112  21.526  18.481  0.00  0.00    -0.481 OA
ATOM     24  H   UNL     1      53.017  21.860  18.558  0.00  0.00    +0.393 HD
ENDBRANCH  22  23
ENDBRANCH  15  16
ENDBRANCH  14  15
TORSDOF 7
ENDMDL
MODEL 5
REMARK VINA RESULT:      -6.2      2.414      3.689
REMARK  Name = ZINC95486286
REMARK  10 active torsions:
REMARK  status: ('A' for Active; 'I' for Inactive)
REMARK    1  A    between atoms: C1_1  and  C2_2
REMARK    2  A    between atoms: C3_3  and  O8_26
REMARK    3  A    between atoms: C4_4  and  C18_25
REMARK    4  A    between atoms: C7_7  and  O1_8
REMARK    5  A    between atoms: C9_11  and  O7_23
REMARK    6  A    between atoms: C10_12  and  O4_14
REMARK    7  A    between atoms: O4_14  and  C11_15
REMARK    8  A    between atoms: C14_18  and  O6_22
REMARK    9  A    between atoms: C15_19  and  O5_21
REMARK   10  A    between atoms: O7_23  and  C17_24
REMARK                            x       y       z     vdW  Elec       q    Type
REMARK                         _______ _______ _______ _____ _____    ______ ____
ROOT
ATOM      1  C   UNL     1      50.647  17.946  17.171  0.00  0.00    +0.121 C 
ATOM      2  C   UNL     1      49.334  18.217  17.862  0.00  0.00    -0.161 A 
ATOM      3  C   UNL     1      48.237  17.399  17.611  0.00  0.00    +0.187 A 
ATOM      6  C   UNL     1      47.023  17.635  18.238  0.00  0.00    -0.136 A 
ATOM      7  C   UNL     1      45.844  16.741  17.954  0.00  0.00    +0.122 C 
ATOM      8  C   UNL     1      46.894  18.693  19.124  0.00  0.00    +0.182 A 
ATOM      9  C   UNL     1      48.001  19.520  19.379  0.00  0.00    -0.247 A 
ATOM     10  C   UNL     1      47.840  20.638  20.325  0.00  0.00    +0.442 A 
ATOM     11  C   UNL     1      46.568  20.807  20.920  0.00  0.00    -0.077 A 
ATOM     14  C   UNL     1      45.560  19.951  20.604  0.00  0.00    +0.225 A 
ATOM     26  O   UNL     1      48.767  21.388  20.584  0.00  0.00    -0.427 OA
ATOM     27  O   UNL     1      45.719  18.937  19.742  0.00  0.00    -0.229 OA
ATOM     28  C   UNL     1      49.226  19.273  18.747  0.00  0.00    +0.213 A 
ENDROOT
BRANCH   3   4
ATOM      4  O   UNL     1      48.356  16.361  16.745  0.00  0.00    -0.480 OA
ATOM      5  H   UNL     1      49.232  16.282  16.343  0.00  0.00    +0.402 HD
ENDBRANCH   3   4
BRANCH  11  12
ATOM     12  O   UNL     1      46.354  21.823  21.803  0.00  0.00    -0.285 OA
ATOM     13  C   UNL     1      45.997  23.093  21.257  0.00  0.00    +0.258 C 
ENDBRANCH  11  12
BRANCH  28  29
ATOM     29  O   UNL     1      50.298  20.068  18.998  0.00  0.00    -0.468 OA
ATOM     30  H   UNL     1      50.439  20.253  19.937  0.00  0.00    +0.402 HD
ENDBRANCH  28  29
BRANCH  14  15
ATOM     15  O   UNL     1      44.352  20.129  21.183  0.00  0.00    -0.206 OA
BRANCH  15  16
ATOM     16  C   UNL     1      43.271  20.273  20.371  0.00  0.00    +0.060 A 
ATOM     17  C   UNL     1      42.410  19.204  20.167  0.00  0.00    +0.036 A 
ATOM     18  C   UNL     1      41.311  19.349  19.342  0.00  0.00    +0.029 A 
ATOM     19  C   UNL     1      41.066  20.560  18.716  0.00  0.00    +0.098 A 
ATOM     22  C   UNL     1      41.928  21.633  18.919  0.00  0.00    +0.096 A 
ATOM     25  C   UNL     1      43.026  21.490  19.751  0.00  0.00    +0.023 A 
BRANCH  19  20
ATOM     20  O   UNL     1      39.984  20.701  17.903  0.00  0.00    -0.484 OA
ATOM     21  H   UNL     1      40.104  21.350  17.196  0.00  0.00    +0.394 HD
ENDBRANCH  19  20
BRANCH  22  23
ATOM     23  O   UNL     1      41.690  22.823  18.306  0.00  0.00    -0.481 OA
ATOM     24  H   UNL     1      42.402  23.470  18.411  0.00  0.00    +0.393 HD
ENDBRANCH  22  23
ENDBRANCH  15  16
ENDBRANCH  14  15
TORSDOF 7
ENDMDL
MODEL 6
REMARK VINA RESULT:      -6.0      3.706      7.303
REMARK  Name = ZINC95486286
REMARK  10 active torsions:
REMARK  status: ('A' for Active; 'I' for Inactive)
REMARK    1  A    between atoms: C1_1  and  C2_2
REMARK    2  A    between atoms: C3_3  and  O8_26
REMARK    3  A    between atoms: C4_4  and  C18_25
REMARK    4  A    between atoms: C7_7  and  O1_8
REMARK    5  A    between atoms: C9_11  and  O7_23
REMARK    6  A    between atoms: C10_12  and  O4_14
REMARK    7  A    between atoms: O4_14  and  C11_15
REMARK    8  A    between atoms: C14_18  and  O6_22
REMARK    9  A    between atoms: C15_19  and  O5_21
REMARK   10  A    between atoms: O7_23  and  C17_24
REMARK                            x       y       z     vdW  Elec       q    Type
REMARK                         _______ _______ _______ _____ _____    ______ ____
ROOT
ATOM      1  C   UNL     1      42.593  18.897  20.777  0.00  0.00    +0.121 C 
ATOM      2  C   UNL     1      44.091  19.000  20.639  0.00  0.00    -0.161 A 
ATOM      3  C   UNL     1      44.724  20.223  20.837  0.00  0.00    +0.187 A 
ATOM      6  C   UNL     1      46.099  20.334  20.714  0.00  0.00    -0.136 A 
ATOM      7  C   UNL     1      46.769  21.667  20.930  0.00  0.00    +0.122 C 
ATOM      8  C   UNL     1      46.859  19.221  20.391  0.00  0.00    +0.182 A 
ATOM      9  C   UNL     1      46.223  17.984  20.191  0.00  0.00    -0.247 A 
ATOM     10  C   UNL     1      47.051  16.815  19.849  0.00  0.00    +0.442 A 
ATOM     11  C   UNL     1      48.447  17.015  19.743  0.00  0.00    -0.077 A 
ATOM     14  C   UNL     1      48.964  18.255  19.956  0.00  0.00    +0.225 A 
ATOM     26  O   UNL     1      46.552  15.717  19.664  0.00  0.00    -0.427 OA
ATOM     27  O   UNL     1      48.200  19.312  20.266  0.00  0.00    -0.229 OA
ATOM     28  C   UNL     1      44.833  17.877  20.323  0.00  0.00    +0.213 A 
ENDROOT
BRANCH   3   4
ATOM      4  O   UNL     1      43.986  21.318  21.154  0.00  0.00    -0.480 OA
ATOM      5  H   UNL     1      43.540  21.724  20.398  0.00  0.00    +0.402 HD
ENDBRANCH   3   4
BRANCH  11  12
ATOM     12  O   UNL     1      49.268  15.974  19.430  0.00  0.00    -0.285 OA
ATOM     13  C   UNL     1      49.360  15.612  18.051  0.00  0.00    +0.258 C 
ENDBRANCH  11  12
BRANCH  28  29
ATOM     29  O   UNL     1      44.218  16.681  20.136  0.00  0.00    -0.468 OA
ATOM     30  H   UNL     1      43.387  16.587  20.621  0.00  0.00    +0.402 HD
ENDBRANCH  28  29
BRANCH  14  15
ATOM     15  O   UNL     1      50.300  18.428  19.850  0.00  0.00    -0.206 OA
BRANCH  15  16
ATOM     16  C   UNL     1      50.766  19.189  18.824  0.00  0.00    +0.060 A 
ATOM     17  C   UNL     1      50.616  20.568  18.862  0.00  0.00    +0.036 A 
ATOM     18  C   UNL     1      51.088  21.344  17.820  0.00  0.00    +0.029 A 
ATOM     19  C   UNL     1      51.712  20.747  16.736  0.00  0.00    +0.098 A 
ATOM     22  C   UNL     1      51.863  19.365  16.697  0.00  0.00    +0.096 A 
ATOM     25  C   UNL     1      51.395  18.588  17.744  0.00  0.00    +0.023 A 
BRANCH  19  20
ATOM     20  O   UNL     1      52.175  21.513  15.711  0.00  0.00    -0.484 OA
ATOM     21  H   UNL     1      52.607  21.009  15.008  0.00  0.00    +0.394 HD
ENDBRANCH  19  20
BRANCH  22  23
ATOM     23  O   UNL     1      52.476  18.777  15.635  0.00  0.00    -0.481 OA
ATOM     24  H   UNL     1      52.020  17.992  15.302  0.00  0.00    +0.393 HD
ENDBRANCH  22  23
ENDBRANCH  15  16
ENDBRANCH  14  15
TORSDOF 7
ENDMDL
MODEL 7
REMARK VINA RESULT:      -6.0      2.858      4.635
REMARK  Name = ZINC95486286
REMARK  10 active torsions:
REMARK  status: ('A' for Active; 'I' for Inactive)
REMARK    1  A    between atoms: C1_1  and  C2_2
REMARK    2  A    between atoms: C3_3  and  O8_26
REMARK    3  A    between atoms: C4_4  and  C18_25
REMARK    4  A    between atoms: C7_7  and  O1_8
REMARK    5  A    between atoms: C9_11  and  O7_23
REMARK    6  A    between atoms: C10_12  and  O4_14
REMARK    7  A    between atoms: O4_14  and  C11_15
REMARK    8  A    between atoms: C14_18  and  O6_22
REMARK    9  A    between atoms: C15_19  and  O5_21
REMARK   10  A    between atoms: O7_23  and  C17_24
REMARK                            x       y       z     vdW  Elec       q    Type
REMARK                         _______ _______ _______ _____ _____    ______ ____
ROOT
ATOM      1  C   UNL     1      51.435  17.067  16.385  0.00  0.00    +0.121 C 
ATOM      2  C   UNL     1      50.404  17.686  17.294  0.00  0.00    -0.161 A 
ATOM      3  C   UNL     1      50.674  18.894  17.929  0.00  0.00    +0.187 A 
ATOM      6  C   UNL     1      49.737  19.476  18.768  0.00  0.00    -0.136 A 
ATOM      7  C   UNL     1      50.047  20.784  19.449  0.00  0.00    +0.122 C 
ATOM      8  C   UNL     1      48.517  18.854  18.982  0.00  0.00    +0.182 A 
ATOM      9  C   UNL     1      48.241  17.634  18.341  0.00  0.00    -0.247 A 
ATOM     10  C   UNL     1      46.937  16.993  18.583  0.00  0.00    +0.442 A 
ATOM     11  C   UNL     1      46.039  17.654  19.453  0.00  0.00    -0.077 A 
ATOM     14  C   UNL     1      46.404  18.833  20.024  0.00  0.00    +0.225 A 
ATOM     26  O   UNL     1      46.644  15.933  18.054  0.00  0.00    -0.427 OA
ATOM     27  O   UNL     1      47.593  19.407  19.796  0.00  0.00    -0.229 OA
ATOM     28  C   UNL     1      49.190  17.054  17.490  0.00  0.00    +0.213 A 
ENDROOT
BRANCH   3   4
ATOM      4  O   UNL     1      51.867  19.508  17.725  0.00  0.00    -0.480 OA
ATOM      5  H   UNL     1      52.314  19.781  18.538  0.00  0.00    +0.402 HD
ENDBRANCH   3   4
BRANCH  11  12
ATOM     12  O   UNL     1      44.817  17.112  19.718  0.00  0.00    -0.285 OA
ATOM     13  C   UNL     1      44.732  16.209  20.822  0.00  0.00    +0.258 C 
ENDBRANCH  11  12
BRANCH  28  29
ATOM     29  O   UNL     1      48.921  15.879  16.866  0.00  0.00    -0.468 OA
ATOM     30  H   UNL     1      49.093  15.098  17.410  0.00  0.00    +0.402 HD
ENDBRANCH  28  29
BRANCH  14  15
ATOM     15  O   UNL     1      45.532  19.449  20.853  0.00  0.00    -0.206 OA
BRANCH  15  16
ATOM     16  C   UNL     1      44.936  20.591  20.419  0.00  0.00    +0.060 A 
ATOM     17  C   UNL     1      45.539  21.819  20.649  0.00  0.00    +0.036 A 
ATOM     18  C   UNL     1      44.934  22.981  20.209  0.00  0.00    +0.029 A 
ATOM     19  C   UNL     1      43.723  22.922  19.537  0.00  0.00    +0.098 A 
ATOM     22  C   UNL     1      43.117  21.692  19.305  0.00  0.00    +0.096 A 
ATOM     25  C   UNL     1      43.727  20.527  19.741  0.00  0.00    +0.023 A 
BRANCH  19  20
ATOM     20  O   UNL     1      43.128  24.067  19.105  0.00  0.00    -0.484 OA
ATOM     21  H   UNL     1      42.223  23.944  18.788  0.00  0.00    +0.394 HD
ENDBRANCH  19  20
BRANCH  22  23
ATOM     23  O   UNL     1      41.930  21.632  18.645  0.00  0.00    -0.481 OA
ATOM     24  H   UNL     1      41.883  22.202  17.865  0.00  0.00    +0.393 HD
ENDBRANCH  22  23
ENDBRANCH  15  16
ENDBRANCH  14  15
TORSDOF 7
ENDMDL
MODEL 8
REMARK VINA RESULT:      -6.0      4.398      7.315
REMARK  Name = ZINC95486286
REMARK  10 active torsions:
REMARK  status: ('A' for Active; 'I' for Inactive)
REMARK    1  A    between atoms: C1_1  and  C2_2
REMARK    2  A    between atoms: C3_3  and  O8_26
REMARK    3  A    between atoms: C4_4  and  C18_25
REMARK    4  A    between atoms: C7_7  and  O1_8
REMARK    5  A    between atoms: C9_11  and  O7_23
REMARK    6  A    between atoms: C10_12  and  O4_14
REMARK    7  A    between atoms: O4_14  and  C11_15
REMARK    8  A    between atoms: C14_18  and  O6_22
REMARK    9  A    between atoms: C15_19  and  O5_21
REMARK   10  A    between atoms: O7_23  and  C17_24
REMARK                            x       y       z     vdW  Elec       q    Type
REMARK                         _______ _______ _______ _____ _____    ______ ____
ROOT
ATOM      1  C   UNL     1      47.307  11.670  15.039  0.00  0.00    +0.121 C 
ATOM      2  C   UNL     1      48.005  12.801  15.751  0.00  0.00    -0.161 A 
ATOM      3  C   UNL     1      49.383  12.951  15.630  0.00  0.00    +0.187 A 
ATOM      6  C   UNL     1      50.039  13.986  16.277  0.00  0.00    -0.136 A 
ATOM      7  C   UNL     1      51.533  14.133  16.138  0.00  0.00    +0.122 C 
ATOM      8  C   UNL     1      49.324  14.883  17.055  0.00  0.00    +0.182 A 
ATOM      9  C   UNL     1      47.931  14.733  17.178  0.00  0.00    -0.247 A 
ATOM     10  C   UNL     1      47.192  15.699  18.008  0.00  0.00    +0.442 A 
ATOM     11  C   UNL     1      47.939  16.725  18.634  0.00  0.00    -0.077 A 
ATOM     14  C   UNL     1      49.285  16.781  18.451  0.00  0.00    +0.225 A 
ATOM     26  O   UNL     1      45.983  15.618  18.151  0.00  0.00    -0.427 OA
ATOM     27  O   UNL     1      49.947  15.895  17.693  0.00  0.00    -0.229 OA
ATOM     28  C   UNL     1      47.273  13.689  16.516  0.00  0.00    +0.213 A 
ENDROOT
BRANCH   3   4
ATOM      4  O   UNL     1      50.091  12.076  14.870  0.00  0.00    -0.480 OA
ATOM      5  H   UNL     1      50.427  11.313  15.360  0.00  0.00    +0.402 HD
ENDBRANCH   3   4
BRANCH  11  12
ATOM     12  O   UNL     1      47.314  17.650  19.416  0.00  0.00    -0.285 OA
ATOM     13  C   UNL     1      46.761  18.789  18.756  0.00  0.00    +0.258 C 
ENDBRANCH  11  12
BRANCH  28  29
ATOM     29  O   UNL     1      45.928  13.548  16.630  0.00  0.00    -0.468 OA
ATOM     30  H   UNL     1      45.516  14.180  17.234  0.00  0.00    +0.402 HD
ENDBRANCH  28  29
BRANCH  14  15
ATOM     15  O   UNL     1      49.982  17.767  19.057  0.00  0.00    -0.206 OA
BRANCH  15  16
ATOM     16  C   UNL     1      50.510  18.748  18.278  0.00  0.00    +0.060 A 
ATOM     17  C   UNL     1      50.275  20.080  18.587  0.00  0.00    +0.036 A 
ATOM     18  C   UNL     1      50.810  21.079  17.795  0.00  0.00    +0.029 A 
ATOM     19  C   UNL     1      51.582  20.752  16.692  0.00  0.00    +0.098 A 
ATOM     22  C   UNL     1      51.819  19.417  16.381  0.00  0.00    +0.096 A 
ATOM     25  C   UNL     1      51.288  18.417  17.178  0.00  0.00    +0.023 A 
BRANCH  19  20
ATOM     20  O   UNL     1      52.108  21.736  15.914  0.00  0.00    -0.484 OA
ATOM     21  H   UNL     1      51.709  22.606  16.056  0.00  0.00    +0.394 HD
ENDBRANCH  19  20
BRANCH  22  23
ATOM     23  O   UNL     1      52.577  19.094  15.299  0.00  0.00    -0.481 OA
ATOM     24  H   UNL     1      53.522  19.269  15.413  0.00  0.00    +0.393 HD
ENDBRANCH  22  23
ENDBRANCH  15  16
ENDBRANCH  14  15
TORSDOF 7
ENDMDL
MODEL 9
REMARK VINA RESULT:      -5.9      3.043      5.223
REMARK  Name = ZINC95486286
REMARK  10 active torsions:
REMARK  status: ('A' for Active; 'I' for Inactive)
REMARK    1  A    between atoms: C1_1  and  C2_2
REMARK    2  A    between atoms: C3_3  and  O8_26
REMARK    3  A    between atoms: C4_4  and  C18_25
REMARK    4  A    between atoms: C7_7  and  O1_8
REMARK    5  A    between atoms: C9_11  and  O7_23
REMARK    6  A    between atoms: C10_12  and  O4_14
REMARK    7  A    between atoms: O4_14  and  C11_15
REMARK    8  A    between atoms: C14_18  and  O6_22
REMARK    9  A    between atoms: C15_19  and  O5_21
REMARK   10  A    between atoms: O7_23  and  C17_24
REMARK                            x       y       z     vdW  Elec       q    Type
REMARK                         _______ _______ _______ _____ _____    ______ ____
ROOT
ATOM      1  C   UNL     1      52.206  19.669  16.842  0.00  0.00    +0.121 C 
ATOM      2  C   UNL     1      50.946  19.380  17.617  0.00  0.00    -0.161 A 
ATOM      3  C   UNL     1      50.520  20.264  18.603  0.00  0.00    +0.187 A 
ATOM      6  C   UNL     1      49.364  20.013  19.324  0.00  0.00    -0.136 A 
ATOM      7  C   UNL     1      48.918  20.979  20.392  0.00  0.00    +0.122 C 
ATOM      8  C   UNL     1      48.618  18.874  19.066  0.00  0.00    +0.182 A 
ATOM      9  C   UNL     1      49.045  17.980  18.068  0.00  0.00    -0.247 A 
ATOM     10  C   UNL     1      48.236  16.776  17.811  0.00  0.00    +0.442 A 
ATOM     11  C   UNL     1      47.070  16.597  18.591  0.00  0.00    -0.077 A 
ATOM     14  C   UNL     1      46.745  17.523  19.533  0.00  0.00    +0.225 A 
ATOM     26  O   UNL     1      48.559  15.966  16.957  0.00  0.00    -0.427 OA
ATOM     27  O   UNL     1      47.490  18.614  19.759  0.00  0.00    -0.229 OA
ATOM     28  C   UNL     1      50.212  18.242  17.340  0.00  0.00    +0.213 A 
ENDROOT
BRANCH   3   4
ATOM      4  O   UNL     1      51.246  21.382  18.863  0.00  0.00    -0.480 OA
ATOM      5  H   UNL     1      52.163  21.335  18.559  0.00  0.00    +0.402 HD
ENDBRANCH   3   4
BRANCH  11  12
ATOM     12  O   UNL     1      46.279  15.504  18.402  0.00  0.00    -0.285 OA
ATOM     13  C   UNL     1      46.599  14.332  19.153  0.00  0.00    +0.258 C 
ENDBRANCH  11  12
BRANCH  28  29
ATOM     29  O   UNL     1      50.621  17.382  16.372  0.00  0.00    -0.468 OA
ATOM     30  H   UNL     1      50.067  17.389  15.580  0.00  0.00    +0.402 HD
ENDBRANCH  28  29
BRANCH  14  15
ATOM     15  O   UNL     1      45.628  17.334  20.270  0.00  0.00    -0.206 OA
BRANCH  15  16
ATOM     16  C   UNL     1      44.605  18.217  20.117  0.00  0.00    +0.060 A 
ATOM     17  C   UNL     1      44.589  19.077  19.029  0.00  0.00    +0.036 A 
ATOM     18  C   UNL     1      43.551  19.976  18.872  0.00  0.00    +0.029 A 
ATOM     19  C   UNL     1      42.524  20.020  19.802  0.00  0.00    +0.098 A 
ATOM     22  C   UNL     1      42.539  19.158  20.894  0.00  0.00    +0.096 A 
ATOM     25  C   UNL     1      43.576  18.253  21.047  0.00  0.00    +0.023 A 
BRANCH  19  20
ATOM     20  O   UNL     1      41.504  20.906  19.647  0.00  0.00    -0.484 OA
ATOM     21  H   UNL     1      41.750  21.711  19.170  0.00  0.00    +0.394 HD
ENDBRANCH  19  20
BRANCH  22  23
ATOM     23  O   UNL     1      41.532  19.199  21.807  0.00  0.00    -0.481 OA
ATOM     24  H   UNL     1      40.777  19.740  21.537  0.00  0.00    +0.393 HD
ENDBRANCH  22  23
ENDBRANCH  15  16
ENDBRANCH  14  15
TORSDOF 7
ENDMDL
