MODEL 1
REMARK VINA RESULT:      -5.2      0.000      0.000
REMARK  Name = ZINC40873959
REMARK  6 active torsions:
REMARK  status: ('A' for Active; 'I' for Inactive)
REMARK    1  A    between atoms: C1_1  and  C2_2
REMARK    2  A    between atoms: C2_2  and  C3_3
REMARK    3  A    between atoms: C2_2  and  C4_4
REMARK    4  A    between atoms: C9_10  and  O2_19
REMARK    5  A    between atoms: C12_14  and  C15_17
REMARK    6  A    between atoms: C12_14  and  O1_18
REMARK                            x       y       z     vdW  Elec       q    Type
REMARK                         _______ _______ _______ _____ _____    ______ ____
ROOT
ATOM      3  C   UNL     1      43.578  20.443  19.033  0.00  0.00    +0.018 C 
ATOM      4  C   UNL     1      44.068  19.021  19.309  0.00  0.00    +0.022 C 
ATOM      5  C   UNL     1      45.559  19.051  19.647  0.00  0.00    +0.060 C 
ATOM      6  C   UNL     1      45.733  19.185  21.139  0.00  0.00    -0.140 C 
ATOM      7  C   UNL     1      46.725  20.173  21.696  0.00  0.00    +0.199 C 
ATOM     10  C   UNL     1      45.980  21.272  22.455  0.00  0.00    +0.039 C 
ATOM     11  C   UNL     1      46.359  22.638  21.880  0.00  0.00    +0.067 C 
ATOM     12  C   UNL     1      45.156  23.235  21.147  0.00  0.00    +0.164 C 
ATOM     15  C   UNL     1      45.517  24.624  20.619  0.00  0.00    +0.009 C 
ATOM     16  C   UNL     1      44.776  22.342  19.994  0.00  0.00    -0.075 C 
ATOM     17  C   UNL     1      45.023  18.443  21.950  0.00  0.00    +0.000 C 
ATOM     18  C   UNL     1      43.957  21.337  20.186  0.00  0.00    -0.007 C 
ENDROOT
BRANCH   3   2
ATOM      1  C   UNL     1      41.426  19.636  20.012  0.00  0.00    +0.014 C 
ATOM      2  C   UNL     1      42.057  20.437  18.871  0.00  0.00    -0.019 C 
ATOM     19  C   UNL     1      41.535  21.875  18.907  0.00  0.00    +0.013 C 
ENDBRANCH   3   2
BRANCH   7   8
ATOM      8  O   UNL     1      47.470  20.756  20.624  0.00  0.00    -0.551 OA
ATOM      9  H   UNL     1      47.395  21.719  20.571  0.00  0.00    +0.371 HD
ENDBRANCH   7   8
BRANCH  12  13
ATOM     13  O   UNL     1      44.053  23.341  22.051  0.00  0.00    -0.559 OA
ATOM     14  H   UNL     1      44.286  23.713  22.913  0.00  0.00    +0.373 HD
ENDBRANCH  12  13
TORSDOF 3
ENDMDL
MODEL 2
REMARK VINA RESULT:      -5.0      4.772      6.876
REMARK  Name = ZINC40873959
REMARK  6 active torsions:
REMARK  status: ('A' for Active; 'I' for Inactive)
REMARK    1  A    between atoms: C1_1  and  C2_2
REMARK    2  A    between atoms: C2_2  and  C3_3
REMARK    3  A    between atoms: C2_2  and  C4_4
REMARK    4  A    between atoms: C9_10  and  O2_19
REMARK    5  A    between atoms: C12_14  and  C15_17
REMARK    6  A    between atoms: C12_14  and  O1_18
REMARK                            x       y       z     vdW  Elec       q    Type
REMARK                         _______ _______ _______ _____ _____    ______ ____
ROOT
ATOM      3  C   UNL     1      51.532  21.126  18.463  0.00  0.00    +0.018 C 
ATOM      4  C   UNL     1      52.573  21.065  19.582  0.00  0.00    +0.022 C 
ATOM      5  C   UNL     1      51.917  21.440  20.911  0.00  0.00    +0.060 C 
ATOM      6  C   UNL     1      51.410  20.193  21.590  0.00  0.00    -0.140 C 
ATOM      7  C   UNL     1      50.028  20.172  22.191  0.00  0.00    +0.199 C 
ATOM     10  C   UNL     1      49.150  19.185  21.418  0.00  0.00    +0.039 C 
ATOM     11  C   UNL     1      47.900  19.905  20.908  0.00  0.00    +0.067 C 
ATOM     12  C   UNL     1      47.968  20.028  19.384  0.00  0.00    +0.164 C 
ATOM     15  C   UNL     1      46.693  20.699  18.869  0.00  0.00    +0.009 C 
ATOM     16  C   UNL     1      49.164  20.861  19.000  0.00  0.00    -0.075 C 
ATOM     17  C   UNL     1      52.170  19.130  21.658  0.00  0.00    +0.000 C 
ATOM     18  C   UNL     1      50.335  20.293  18.846  0.00  0.00    -0.007 C 
ENDROOT
BRANCH   3   2
ATOM      1  C   UNL     1      51.850  19.083  17.061  0.00  0.00    +0.014 C 
ATOM      2  C   UNL     1      52.139  20.581  17.169  0.00  0.00    -0.019 C 
ATOM     19  C   UNL     1      51.524  21.308  15.972  0.00  0.00    +0.013 C 
ENDBRANCH   3   2
BRANCH   7   8
ATOM      8  O   UNL     1      49.455  21.479  22.115  0.00  0.00    -0.551 OA
ATOM      9  H   UNL     1      49.395  21.932  22.968  0.00  0.00    +0.371 HD
ENDBRANCH   7   8
BRANCH  12  13
ATOM     13  O   UNL     1      48.089  18.726  18.807  0.00  0.00    -0.559 OA
ATOM     14  H   UNL     1      48.283  18.029  19.448  0.00  0.00    +0.373 HD
ENDBRANCH  12  13
TORSDOF 3
ENDMDL
MODEL 3
REMARK VINA RESULT:      -5.0      5.178      7.480
REMARK  Name = ZINC40873959
REMARK  6 active torsions:
REMARK  status: ('A' for Active; 'I' for Inactive)
REMARK    1  A    between atoms: C1_1  and  C2_2
REMARK    2  A    between atoms: C2_2  and  C3_3
REMARK    3  A    between atoms: C2_2  and  C4_4
REMARK    4  A    between atoms: C9_10  and  O2_19
REMARK    5  A    between atoms: C12_14  and  C15_17
REMARK    6  A    between atoms: C12_14  and  O1_18
REMARK                            x       y       z     vdW  Elec       q    Type
REMARK                         _______ _______ _______ _____ _____    ______ ____
ROOT
ATOM      3  C   UNL     1      49.222  19.753  19.868  0.00  0.00    +0.018 C 
ATOM      4  C   UNL     1      50.108  20.975  19.621  0.00  0.00    +0.022 C 
ATOM      5  C   UNL     1      51.508  20.517  19.211  0.00  0.00    +0.060 C 
ATOM      6  C   UNL     1      51.582  20.411  17.709  0.00  0.00    -0.140 C 
ATOM      7  C   UNL     1      52.211  19.199  17.070  0.00  0.00    +0.199 C 
ATOM     10  C   UNL     1      51.143  18.413  16.307  0.00  0.00    +0.039 C 
ATOM     11  C   UNL     1      51.113  16.969  16.813  0.00  0.00    +0.067 C 
ATOM     12  C   UNL     1      49.811  16.725  17.580  0.00  0.00    +0.164 C 
ATOM     15  C   UNL     1      49.756  15.266  18.039  0.00  0.00    +0.009 C 
ATOM     16  C   UNL     1      49.758  17.633  18.782  0.00  0.00    -0.075 C 
ATOM     17  C   UNL     1      51.101  21.371  16.961  0.00  0.00    +0.000 C 
ATOM     18  C   UNL     1      49.274  18.845  18.666  0.00  0.00    -0.007 C 
ENDROOT
BRANCH   3   2
ATOM      1  C   UNL     1      47.766  21.377  21.087  0.00  0.00    +0.014 C 
ATOM      2  C   UNL     1      47.780  20.206  20.102  0.00  0.00    -0.019 C 
ATOM     19  C   UNL     1      47.163  20.650  18.773  0.00  0.00    +0.013 C 
ENDBRANCH   3   2
BRANCH   7   8
ATOM      8  O   UNL     1      52.781  18.368  18.083  0.00  0.00    -0.551 OA
ATOM      9  H   UNL     1      52.184  17.682  18.412  0.00  0.00    +0.371 HD
ENDBRANCH   7   8
BRANCH  12  13
ATOM     13  O   UNL     1      48.698  16.998  16.726  0.00  0.00    -0.559 OA
ATOM     14  H   UNL     1      48.166  17.757  17.005  0.00  0.00    +0.373 HD
ENDBRANCH  12  13
TORSDOF 3
ENDMDL
MODEL 4
REMARK VINA RESULT:      -4.9     20.953     22.881
REMARK  Name = ZINC40873959
REMARK  6 active torsions:
REMARK  status: ('A' for Active; 'I' for Inactive)
REMARK    1  A    between atoms: C1_1  and  C2_2
REMARK    2  A    between atoms: C2_2  and  C3_3
REMARK    3  A    between atoms: C2_2  and  C4_4
REMARK    4  A    between atoms: C9_10  and  O2_19
REMARK    5  A    between atoms: C12_14  and  C15_17
REMARK    6  A    between atoms: C12_14  and  O1_18
REMARK                            x       y       z     vdW  Elec       q    Type
REMARK                         _______ _______ _______ _____ _____    ______ ____
ROOT
ATOM      3  C   UNL     1      53.455  32.106   3.384  0.00  0.00    +0.018 C 
ATOM      4  C   UNL     1      52.331  32.782   4.170  0.00  0.00    +0.022 C 
ATOM      5  C   UNL     1      52.776  32.993   5.618  0.00  0.00    +0.060 C 
ATOM      6  C   UNL     1      53.415  34.352   5.754  0.00  0.00    -0.140 C 
ATOM      7  C   UNL     1      54.712  34.502   6.505  0.00  0.00    +0.199 C 
ATOM     10  C   UNL     1      55.818  34.926   5.536  0.00  0.00    +0.039 C 
ATOM     11  C   UNL     1      56.974  33.926   5.612  0.00  0.00    +0.067 C 
ATOM     12  C   UNL     1      57.041  33.124   4.310  0.00  0.00    +0.164 C 
ATOM     15  C   UNL     1      58.229  32.163   4.363  0.00  0.00    +0.009 C 
ATOM     16  C   UNL     1      55.766  32.339   4.137  0.00  0.00    -0.075 C 
ATOM     17  C   UNL     1      52.843  35.401   5.219  0.00  0.00    +0.000 C 
ATOM     18  C   UNL     1      54.729  32.891   3.556  0.00  0.00    -0.007 C 
ENDROOT
BRANCH   3   2
ATOM      1  C   UNL     1      51.562  31.948   1.760  0.00  0.00    +0.014 C 
ATOM      2  C   UNL     1      53.082  32.055   1.901  0.00  0.00    -0.019 C 
ATOM     19  C   UNL     1      53.570  33.331   1.210  0.00  0.00    +0.013 C 
ENDBRANCH   3   2
BRANCH   7   8
ATOM      8  O   UNL     1      55.060  33.255   7.109  0.00  0.00    -0.551 OA
ATOM      9  H   UNL     1      54.311  32.657   7.237  0.00  0.00    +0.371 HD
ENDBRANCH   7   8
BRANCH  12  13
ATOM     13  O   UNL     1      57.201  34.021   3.207  0.00  0.00    -0.559 OA
ATOM     14  H   UNL     1      56.452  34.029   2.595  0.00  0.00    +0.373 HD
ENDBRANCH  12  13
TORSDOF 3
ENDMDL
MODEL 5
REMARK VINA RESULT:      -4.8      2.516      4.929
REMARK  Name = ZINC40873959
REMARK  6 active torsions:
REMARK  status: ('A' for Active; 'I' for Inactive)
REMARK    1  A    between atoms: C1_1  and  C2_2
REMARK    2  A    between atoms: C2_2  and  C3_3
REMARK    3  A    between atoms: C2_2  and  C4_4
REMARK    4  A    between atoms: C9_10  and  O2_19
REMARK    5  A    between atoms: C12_14  and  C15_17
REMARK    6  A    between atoms: C12_14  and  O1_18
REMARK                            x       y       z     vdW  Elec       q    Type
REMARK                         _______ _______ _______ _____ _____    ______ ____
ROOT
ATOM      3  C   UNL     1      44.509  16.999  21.587  0.00  0.00    +0.018 C 
ATOM      4  C   UNL     1      43.114  17.355  22.103  0.00  0.00    +0.022 C 
ATOM      5  C   UNL     1      42.954  18.876  22.135  0.00  0.00    +0.060 C 
ATOM      6  C   UNL     1      42.371  19.347  20.827  0.00  0.00    -0.140 C 
ATOM      7  C   UNL     1      42.966  20.541  20.125  0.00  0.00    +0.199 C 
ATOM     10  C   UNL     1      43.595  20.095  18.804  0.00  0.00    +0.039 C 
ATOM     11  C   UNL     1      45.064  20.521  18.769  0.00  0.00    +0.067 C 
ATOM     12  C   UNL     1      45.957  19.281  18.859  0.00  0.00    +0.164 C 
ATOM     15  C   UNL     1      47.425  19.702  18.769  0.00  0.00    +0.009 C 
ATOM     16  C   UNL     1      45.715  18.581  20.171  0.00  0.00    -0.075 C 
ATOM     17  C   UNL     1      41.349  18.720  20.302  0.00  0.00    +0.000 C 
ATOM     18  C   UNL     1      44.752  17.698  20.275  0.00  0.00    -0.007 C 
ENDROOT
BRANCH   3   2
ATOM      1  C   UNL     1      45.262  15.193  20.033  0.00  0.00    +0.014 C 
ATOM      2  C   UNL     1      44.608  15.485  21.385  0.00  0.00    -0.019 C 
ATOM     19  C   UNL     1      45.455  14.876  22.505  0.00  0.00    +0.013 C 
ENDBRANCH   3   2
BRANCH   7   8
ATOM      8  O   UNL     1      43.968  21.132  20.955  0.00  0.00    -0.551 OA
ATOM      9  H   UNL     1      43.898  22.093  21.031  0.00  0.00    +0.371 HD
ENDBRANCH   7   8
BRANCH  12  13
ATOM     13  O   UNL     1      45.649  18.394  17.781  0.00  0.00    -0.559 OA
ATOM     14  H   UNL     1      45.583  17.465  18.044  0.00  0.00    +0.373 HD
ENDBRANCH  12  13
TORSDOF 3
ENDMDL
MODEL 6
REMARK VINA RESULT:      -4.7      3.581      5.698
REMARK  Name = ZINC40873959
REMARK  6 active torsions:
REMARK  status: ('A' for Active; 'I' for Inactive)
REMARK    1  A    between atoms: C1_1  and  C2_2
REMARK    2  A    between atoms: C2_2  and  C3_3
REMARK    3  A    between atoms: C2_2  and  C4_4
REMARK    4  A    between atoms: C9_10  and  O2_19
REMARK    5  A    between atoms: C12_14  and  C15_17
REMARK    6  A    between atoms: C12_14  and  O1_18
REMARK                            x       y       z     vdW  Elec       q    Type
REMARK                         _______ _______ _______ _____ _____    ______ ____
ROOT
ATOM      3  C   UNL     1      49.731  20.134  19.227  0.00  0.00    +0.018 C 
ATOM      4  C   UNL     1      50.070  18.725  18.738  0.00  0.00    +0.022 C 
ATOM      5  C   UNL     1      49.066  17.727  19.317  0.00  0.00    +0.060 C 
ATOM      6  C   UNL     1      47.913  17.563  18.360  0.00  0.00    -0.140 C 
ATOM      7  C   UNL     1      46.497  17.587  18.876  0.00  0.00    +0.199 C 
ATOM     10  C   UNL     1      45.776  18.821  18.332  0.00  0.00    +0.039 C 
ATOM     11  C   UNL     1      45.221  19.643  19.498  0.00  0.00    +0.067 C 
ATOM     12  C   UNL     1      45.999  20.956  19.613  0.00  0.00    +0.164 C 
ATOM     15  C   UNL     1      45.409  21.802  20.743  0.00  0.00    +0.009 C 
ATOM     16  C   UNL     1      47.446  20.658  19.911  0.00  0.00    -0.075 C 
ATOM     17  C   UNL     1      48.141  17.401  17.081  0.00  0.00    +0.000 C 
ATOM     18  C   UNL     1      48.285  20.433  18.929  0.00  0.00    -0.007 C 
ENDROOT
BRANCH   3   2
ATOM      1  C   UNL     1      51.822  21.491  19.395  0.00  0.00    +0.014 C 
ATOM      2  C   UNL     1      50.621  21.151  18.510  0.00  0.00    -0.019 C 
ATOM     19  C   UNL     1      51.112  20.557  17.188  0.00  0.00    +0.013 C 
ENDBRANCH   3   2
BRANCH   7   8
ATOM      8  O   UNL     1      46.512  17.634  20.304  0.00  0.00    -0.551 OA
ATOM      9  H   UNL     1      46.464  16.765  20.727  0.00  0.00    +0.371 HD
ENDBRANCH   7   8
BRANCH  12  13
ATOM     13  O   UNL     1      45.904  21.674  18.380  0.00  0.00    -0.559 OA
ATOM     14  H   UNL     1      46.035  22.628  18.471  0.00  0.00    +0.373 HD
ENDBRANCH  12  13
TORSDOF 3
ENDMDL
MODEL 7
REMARK VINA RESULT:      -4.6      3.515      5.762
REMARK  Name = ZINC40873959
REMARK  6 active torsions:
REMARK  status: ('A' for Active; 'I' for Inactive)
REMARK    1  A    between atoms: C1_1  and  C2_2
REMARK    2  A    between atoms: C2_2  and  C3_3
REMARK    3  A    between atoms: C2_2  and  C4_4
REMARK    4  A    between atoms: C9_10  and  O2_19
REMARK    5  A    between atoms: C12_14  and  C15_17
REMARK    6  A    between atoms: C12_14  and  O1_18
REMARK                            x       y       z     vdW  Elec       q    Type
REMARK                         _______ _______ _______ _____ _____    ______ ____
ROOT
ATOM      3  C   UNL     1      46.428  19.987  19.375  0.00  0.00    +0.018 C 
ATOM      4  C   UNL     1      47.592  20.859  19.847  0.00  0.00    +0.022 C 
ATOM      5  C   UNL     1      48.770  19.968  20.244  0.00  0.00    +0.060 C 
ATOM      6  C   UNL     1      49.669  19.765  19.052  0.00  0.00    -0.140 C 
ATOM      7  C   UNL     1      50.180  18.386  18.719  0.00  0.00    +0.199 C 
ATOM     10  C   UNL     1      49.586  17.930  17.385  0.00  0.00    +0.039 C 
ATOM     11  C   UNL     1      48.863  16.596  17.577  0.00  0.00    +0.067 C 
ATOM     12  C   UNL     1      47.354  16.808  17.428  0.00  0.00    +0.164 C 
ATOM     15  C   UNL     1      46.634  15.465  17.566  0.00  0.00    +0.009 C 
ATOM     16  C   UNL     1      46.871  17.750  18.501  0.00  0.00    -0.075 C 
ATOM     17  C   UNL     1      50.007  20.786  18.305  0.00  0.00    +0.000 C 
ATOM     18  C   UNL     1      46.910  19.045  18.302  0.00  0.00    -0.007 C 
ENDROOT
BRANCH   3   2
ATOM      1  C   UNL     1      43.985  20.127  18.866  0.00  0.00    +0.014 C 
ATOM      2  C   UNL     1      45.318  20.877  18.811  0.00  0.00    -0.019 C 
ATOM     19  C   UNL     1      45.219  22.157  19.644  0.00  0.00    +0.013 C 
ENDBRANCH   3   2
BRANCH   7   8
ATOM      8  O   UNL     1      49.792  17.474  19.749  0.00  0.00    -0.551 OA
ATOM      9  H   UNL     1      50.470  17.332  20.424  0.00  0.00    +0.371 HD
ENDBRANCH   7   8
BRANCH  12  13
ATOM     13  O   UNL     1      47.077  17.368  16.142  0.00  0.00    -0.559 OA
ATOM     14  H   UNL     1      47.821  17.849  15.755  0.00  0.00    +0.373 HD
ENDBRANCH  12  13
TORSDOF 3
ENDMDL
MODEL 8
REMARK VINA RESULT:      -4.6      4.972      6.637
REMARK  Name = ZINC40873959
REMARK  6 active torsions:
REMARK  status: ('A' for Active; 'I' for Inactive)
REMARK    1  A    between atoms: C1_1  and  C2_2
REMARK    2  A    between atoms: C2_2  and  C3_3
REMARK    3  A    between atoms: C2_2  and  C4_4
REMARK    4  A    between atoms: C9_10  and  O2_19
REMARK    5  A    between atoms: C12_14  and  C15_17
REMARK    6  A    between atoms: C12_14  and  O1_18
REMARK                            x       y       z     vdW  Elec       q    Type
REMARK                         _______ _______ _______ _____ _____    ______ ____
ROOT
ATOM      3  C   UNL     1      48.562  20.114  19.781  0.00  0.00    +0.018 C 
ATOM      4  C   UNL     1      48.462  18.759  20.482  0.00  0.00    +0.022 C 
ATOM      5  C   UNL     1      48.996  17.664  19.557  0.00  0.00    +0.060 C 
ATOM      6  C   UNL     1      50.467  17.462  19.815  0.00  0.00    -0.140 C 
ATOM      7  C   UNL     1      51.427  17.358  18.658  0.00  0.00    +0.199 C 
ATOM     10  C   UNL     1      52.372  18.561  18.667  0.00  0.00    +0.039 C 
ATOM     11  C   UNL     1      52.292  19.283  17.321  0.00  0.00    +0.067 C 
ATOM     12  C   UNL     1      51.614  20.642  17.510  0.00  0.00    +0.164 C 
ATOM     15  C   UNL     1      51.584  21.388  16.175  0.00  0.00    +0.009 C 
ATOM     16  C   UNL     1      50.205  20.437  18.004  0.00  0.00    -0.075 C 
ATOM     17  C   UNL     1      50.912  17.378  21.043  0.00  0.00    +0.000 C 
ATOM     18  C   UNL     1      49.971  20.321  19.288  0.00  0.00    -0.007 C 
ENDROOT
BRANCH   3   2
ATOM      1  C   UNL     1      46.700  21.526  20.666  0.00  0.00    +0.014 C 
ATOM      2  C   UNL     1      48.198  21.227  20.765  0.00  0.00    -0.019 C 
ATOM     19  C   UNL     1      48.535  20.778  22.189  0.00  0.00    +0.013 C 
ENDBRANCH   3   2
BRANCH   7   8
ATOM      8  O   UNL     1      50.694  17.338  17.431  0.00  0.00    -0.551 OA
ATOM      9  H   UNL     1      50.404  18.210  17.132  0.00  0.00    +0.371 HD
ENDBRANCH   7   8
BRANCH  12  13
ATOM     13  O   UNL     1      52.347  21.410  18.468  0.00  0.00    -0.559 OA
ATOM     14  H   UNL     1      51.863  21.583  19.287  0.00  0.00    +0.373 HD
ENDBRANCH  12  13
TORSDOF 3
ENDMDL
MODEL 9
REMARK VINA RESULT:      -4.6      2.344      4.520
REMARK  Name = ZINC40873959
REMARK  6 active torsions:
REMARK  status: ('A' for Active; 'I' for Inactive)
REMARK    1  A    between atoms: C1_1  and  C2_2
REMARK    2  A    between atoms: C2_2  and  C3_3
REMARK    3  A    between atoms: C2_2  and  C4_4
REMARK    4  A    between atoms: C9_10  and  O2_19
REMARK    5  A    between atoms: C12_14  and  C15_17
REMARK    6  A    between atoms: C12_14  and  O1_18
REMARK                            x       y       z     vdW  Elec       q    Type
REMARK                         _______ _______ _______ _____ _____    ______ ____
ROOT
ATOM      3  C   UNL     1      45.808  21.693  19.975  0.00  0.00    +0.018 C 
ATOM      4  C   UNL     1      44.416  21.067  19.888  0.00  0.00    +0.022 C 
ATOM      5  C   UNL     1      44.388  20.039  18.755  0.00  0.00    +0.060 C 
ATOM      6  C   UNL     1      44.745  18.680  19.302  0.00  0.00    -0.140 C 
ATOM      7  C   UNL     1      45.733  17.809  18.569  0.00  0.00    +0.199 C 
ATOM     10  C   UNL     1      46.992  17.636  19.421  0.00  0.00    +0.039 C 
ATOM     11  C   UNL     1      48.216  18.084  18.620  0.00  0.00    +0.067 C 
ATOM     12  C   UNL     1      48.776  19.374  19.224  0.00  0.00    +0.164 C 
ATOM     15  C   UNL     1      50.032  19.793  18.458  0.00  0.00    +0.009 C 
ATOM     16  C   UNL     1      47.741  20.466  19.127  0.00  0.00    -0.075 C 
ATOM     17  C   UNL     1      44.197  18.257  20.413  0.00  0.00    +0.000 C 
ATOM     18  C   UNL     1      46.843  20.603  20.072  0.00  0.00    -0.007 C 
ENDROOT
BRANCH   3   2
ATOM      1  C   UNL     1      45.531  24.024  20.832  0.00  0.00    +0.014 C 
ATOM      2  C   UNL     1      45.890  22.587  21.214  0.00  0.00    -0.019 C 
ATOM     19  C   UNL     1      44.908  22.080  22.273  0.00  0.00    +0.013 C 
ENDBRANCH   3   2
BRANCH   7   8
ATOM      8  O   UNL     1      46.080  18.424  17.326  0.00  0.00    -0.551 OA
ATOM      9  H   UNL     1      46.415  19.327  17.415  0.00  0.00    +0.371 HD
ENDBRANCH   7   8
BRANCH  12  13
ATOM     13  O   UNL     1      49.107  19.152  20.597  0.00  0.00    -0.559 OA
ATOM     14  H   UNL     1      49.016  18.231  20.879  0.00  0.00    +0.373 HD
ENDBRANCH  12  13
TORSDOF 3
ENDMDL
