MODEL 1
REMARK VINA RESULT:      -5.3      0.000      0.000
REMARK  Name = ZINC00058187
REMARK  2 active torsions:
REMARK  status: ('A' for Active; 'I' for Inactive)
REMARK    1  A    between atoms: C1_1  and  C2_2
REMARK    2  A    between atoms: C10_11  and  O2_12
REMARK                            x       y       z     vdW  Elec       q    Type
REMARK                         _______ _______ _______ _____ _____    ______ ____
ROOT
ATOM      1  C   UNL     1      45.573  19.552  22.225  0.00  0.00    +0.129 C 
ATOM      2  C   UNL     1      44.697  20.238  21.208  0.00  0.00    -0.112 C 
ATOM      3  C   UNL     1      44.930  21.518  20.883  0.00  0.00    +0.005 C 
ATOM      4  C   UNL     1      44.082  22.206  19.889  0.00  0.00    +0.417 C 
ATOM      5  C   UNL     1      42.805  21.588  19.481  0.00  0.00    -0.160 A 
ATOM      6  C   UNL     1      42.558  20.243  19.821  0.00  0.00    -0.111 A 
ATOM      7  C   UNL     1      41.364  19.645  19.447  0.00  0.00    +0.071 A 
ATOM      8  C   UNL     1      40.416  20.373  18.740  0.00  0.00    +0.064 A 
ATOM      9  C   UNL     1      40.649  21.690  18.405  0.00  0.00    +0.019 A 
ATOM     10  C   UNL     1      41.845  22.310  18.771  0.00  0.00    +0.165 A 
ATOM     13  O   UNL     1      44.430  23.267  19.411  0.00  0.00    -0.414 OA
ATOM     14  C   UNL     1      43.591  19.494  20.572  0.00  0.00    +0.422 C 
ATOM     15  O   UNL     1      43.529  18.284  20.666  0.00  0.00    -0.416 OA
ENDROOT
BRANCH  10  11
ATOM     11  O   UNL     1      42.073  23.605  18.439  0.00  0.00    -0.480 OA
ATOM     12  H   UNL     1      42.893  23.747  17.949  0.00  0.00    +0.403 HD
ENDBRANCH  10  11
TORSDOF 1
ENDMDL
MODEL 2
REMARK VINA RESULT:      -5.1     20.588     21.952
REMARK  Name = ZINC00058187
REMARK  2 active torsions:
REMARK  status: ('A' for Active; 'I' for Inactive)
REMARK    1  A    between atoms: C1_1  and  C2_2
REMARK    2  A    between atoms: C10_11  and  O2_12
REMARK                            x       y       z     vdW  Elec       q    Type
REMARK                         _______ _______ _______ _____ _____    ______ ____
ROOT
ATOM      1  C   UNL     1      56.864  32.047   3.733  0.00  0.00    +0.129 C 
ATOM      2  C   UNL     1      55.758  32.759   4.469  0.00  0.00    -0.112 C 
ATOM      3  C   UNL     1      56.060  33.691   5.385  0.00  0.00    +0.005 C 
ATOM      4  C   UNL     1      54.988  34.399   6.116  0.00  0.00    +0.417 C 
ATOM      5  C   UNL     1      53.610  33.874   6.059  0.00  0.00    -0.160 A 
ATOM      6  C   UNL     1      53.291  32.896   5.096  0.00  0.00    -0.111 A 
ATOM      7  C   UNL     1      52.001  32.390   5.028  0.00  0.00    +0.071 A 
ATOM      8  C   UNL     1      51.029  32.849   5.908  0.00  0.00    +0.064 A 
ATOM      9  C   UNL     1      51.334  33.805   6.853  0.00  0.00    +0.019 A 
ATOM     10  C   UNL     1      52.626  34.327   6.938  0.00  0.00    +0.165 A 
ATOM     13  O   UNL     1      55.238  35.401   6.755  0.00  0.00    -0.414 OA
ATOM     14  C   UNL     1      54.349  32.431   4.171  0.00  0.00    +0.422 C 
ATOM     15  O   UNL     1      54.063  31.786   3.182  0.00  0.00    -0.416 OA
ENDROOT
BRANCH  10  11
ATOM     11  O   UNL     1      52.922  35.268   7.868  0.00  0.00    -0.480 OA
ATOM     12  H   UNL     1      53.567  34.980   8.528  0.00  0.00    +0.403 HD
ENDBRANCH  10  11
TORSDOF 1
ENDMDL
MODEL 3
REMARK VINA RESULT:      -5.1     20.791     22.015
REMARK  Name = ZINC00058187
REMARK  2 active torsions:
REMARK  status: ('A' for Active; 'I' for Inactive)
REMARK    1  A    between atoms: C1_1  and  C2_2
REMARK    2  A    between atoms: C10_11  and  O2_12
REMARK                            x       y       z     vdW  Elec       q    Type
REMARK                         _______ _______ _______ _____ _____    ______ ____
ROOT
ATOM      1  C   UNL     1      56.872  33.158   5.474  0.00  0.00    +0.129 C 
ATOM      2  C   UNL     1      55.381  33.343   5.359  0.00  0.00    -0.112 C 
ATOM      3  C   UNL     1      54.657  33.617   6.455  0.00  0.00    +0.005 C 
ATOM      4  C   UNL     1      53.195  33.801   6.361  0.00  0.00    +0.417 C 
ATOM      5  C   UNL     1      52.495  33.390   5.129  0.00  0.00    -0.160 A 
ATOM      6  C   UNL     1      53.253  33.102   3.976  0.00  0.00    -0.111 A 
ATOM      7  C   UNL     1      52.613  32.713   2.809  0.00  0.00    +0.071 A 
ATOM      8  C   UNL     1      51.229  32.608   2.779  0.00  0.00    +0.064 A 
ATOM      9  C   UNL     1      50.480  32.886   3.902  0.00  0.00    +0.019 A 
ATOM     10  C   UNL     1      51.105  33.280   5.087  0.00  0.00    +0.165 A 
ATOM     13  O   UNL     1      52.574  34.287   7.286  0.00  0.00    -0.414 OA
ATOM     14  C   UNL     1      54.727  33.228   4.040  0.00  0.00    +0.422 C 
ATOM     15  O   UNL     1      55.390  33.233   3.022  0.00  0.00    -0.416 OA
ENDROOT
BRANCH  10  11
ATOM     11  O   UNL     1      50.365  33.554   6.190  0.00  0.00    -0.480 OA
ATOM     12  H   UNL     1      50.889  33.693   6.991  0.00  0.00    +0.403 HD
ENDBRANCH  10  11
TORSDOF 1
ENDMDL
MODEL 4
REMARK VINA RESULT:      -5.0      8.715      9.708
REMARK  Name = ZINC00058187
REMARK  2 active torsions:
REMARK  status: ('A' for Active; 'I' for Inactive)
REMARK    1  A    between atoms: C1_1  and  C2_2
REMARK    2  A    between atoms: C10_11  and  O2_12
REMARK                            x       y       z     vdW  Elec       q    Type
REMARK                         _______ _______ _______ _____ _____    ______ ____
ROOT
ATOM      1  C   UNL     1      52.346  18.640  21.945  0.00  0.00    +0.129 C 
ATOM      2  C   UNL     1      52.115  18.648  20.455  0.00  0.00    -0.112 C 
ATOM      3  C   UNL     1      52.408  17.558  19.730  0.00  0.00    +0.005 C 
ATOM      4  C   UNL     1      52.187  17.549  18.269  0.00  0.00    +0.417 C 
ATOM      5  C   UNL     1      51.932  18.824  17.571  0.00  0.00    -0.160 A 
ATOM      6  C   UNL     1      51.623  19.969  18.331  0.00  0.00    -0.111 A 
ATOM      7  C   UNL     1      51.382  21.177  17.693  0.00  0.00    +0.071 A 
ATOM      8  C   UNL     1      51.446  21.253  16.308  0.00  0.00    +0.064 A 
ATOM      9  C   UNL     1      51.748  20.138  15.557  0.00  0.00    +0.019 A 
ATOM     10  C   UNL     1      51.994  18.913  16.180  0.00  0.00    +0.165 A 
ATOM     13  O   UNL     1      52.213  16.504  17.649  0.00  0.00    -0.414 OA
ATOM     14  C   UNL     1      51.560  19.853  19.806  0.00  0.00    +0.422 C 
ATOM     15  O   UNL     1      51.061  20.737  20.473  0.00  0.00    -0.416 OA
ENDROOT
BRANCH  10  11
ATOM     11  O   UNL     1      52.291  17.817  15.439  0.00  0.00    -0.480 OA
ATOM     12  H   UNL     1      51.567  17.180  15.371  0.00  0.00    +0.403 HD
ENDBRANCH  10  11
TORSDOF 1
ENDMDL
MODEL 5
REMARK VINA RESULT:      -4.9     20.935     22.297
REMARK  Name = ZINC00058187
REMARK  2 active torsions:
REMARK  status: ('A' for Active; 'I' for Inactive)
REMARK    1  A    between atoms: C1_1  and  C2_2
REMARK    2  A    between atoms: C10_11  and  O2_12
REMARK                            x       y       z     vdW  Elec       q    Type
REMARK                         _______ _______ _______ _____ _____    ______ ____
ROOT
ATOM      1  C   UNL     1      51.068  32.371   1.520  0.00  0.00    +0.129 C 
ATOM      2  C   UNL     1      51.746  32.580   2.849  0.00  0.00    -0.112 C 
ATOM      3  C   UNL     1      51.041  33.045   3.891  0.00  0.00    +0.005 C 
ATOM      4  C   UNL     1      51.689  33.255   5.202  0.00  0.00    +0.417 C 
ATOM      5  C   UNL     1      53.162  33.243   5.286  0.00  0.00    -0.160 A 
ATOM      6  C   UNL     1      53.906  32.754   4.193  0.00  0.00    -0.111 A 
ATOM      7  C   UNL     1      55.291  32.735   4.254  0.00  0.00    +0.071 A 
ATOM      8  C   UNL     1      55.941  33.198   5.390  0.00  0.00    +0.064 A 
ATOM      9  C   UNL     1      55.222  33.679   6.463  0.00  0.00    +0.019 A 
ATOM     10  C   UNL     1      53.827  33.706   6.422  0.00  0.00    +0.165 A 
ATOM     13  O   UNL     1      51.018  33.436   6.199  0.00  0.00    -0.414 OA
ATOM     14  C   UNL     1      53.181  32.264   2.998  0.00  0.00    +0.422 C 
ATOM     15  O   UNL     1      53.759  31.614   2.150  0.00  0.00    -0.416 OA
ENDROOT
BRANCH  10  11
ATOM     11  O   UNL     1      53.122  34.179   7.479  0.00  0.00    -0.480 OA
ATOM     12  H   UNL     1      52.887  33.504   8.130  0.00  0.00    +0.403 HD
ENDBRANCH  10  11
TORSDOF 1
ENDMDL
MODEL 6
REMARK VINA RESULT:      -4.9      1.190      4.697
REMARK  Name = ZINC00058187
REMARK  2 active torsions:
REMARK  status: ('A' for Active; 'I' for Inactive)
REMARK    1  A    between atoms: C1_1  and  C2_2
REMARK    2  A    between atoms: C10_11  and  O2_12
REMARK                            x       y       z     vdW  Elec       q    Type
REMARK                         _______ _______ _______ _____ _____    ______ ____
ROOT
ATOM      1  C   UNL     1      39.530  21.194  18.536  0.00  0.00    +0.129 C 
ATOM      2  C   UNL     1      40.960  20.998  18.969  0.00  0.00    -0.112 C 
ATOM      3  C   UNL     1      41.363  19.798  19.414  0.00  0.00    +0.005 C 
ATOM      4  C   UNL     1      42.761  19.589  19.842  0.00  0.00    +0.417 C 
ATOM      5  C   UNL     1      43.630  20.761  20.065  0.00  0.00    -0.160 A 
ATOM      6  C   UNL     1      43.209  22.022  19.597  0.00  0.00    -0.111 A 
ATOM      7  C   UNL     1      44.011  23.135  19.798  0.00  0.00    +0.071 A 
ATOM      8  C   UNL     1      45.225  23.004  20.459  0.00  0.00    +0.064 A 
ATOM      9  C   UNL     1      45.644  21.775  20.920  0.00  0.00    +0.019 A 
ATOM     10  C   UNL     1      44.851  20.642  20.727  0.00  0.00    +0.165 A 
ATOM     13  O   UNL     1      43.192  18.465  20.007  0.00  0.00    -0.414 OA
ATOM     14  C   UNL     1      41.910  22.126  18.894  0.00  0.00    +0.422 C 
ATOM     15  O   UNL     1      41.628  23.127  18.265  0.00  0.00    -0.416 OA
ENDROOT
BRANCH  10  11
ATOM     11  O   UNL     1      45.266  19.433  21.181  0.00  0.00    -0.480 OA
ATOM     12  H   UNL     1      44.578  18.924  21.630  0.00  0.00    +0.403 HD
ENDBRANCH  10  11
TORSDOF 1
ENDMDL
MODEL 7
REMARK VINA RESULT:      -4.9      2.340      4.577
REMARK  Name = ZINC00058187
REMARK  2 active torsions:
REMARK  status: ('A' for Active; 'I' for Inactive)
REMARK    1  A    between atoms: C1_1  and  C2_2
REMARK    2  A    between atoms: C10_11  and  O2_12
REMARK                            x       y       z     vdW  Elec       q    Type
REMARK                         _______ _______ _______ _____ _____    ______ ____
ROOT
ATOM      1  C   UNL     1      40.079  20.821  18.950  0.00  0.00    +0.129 C 
ATOM      2  C   UNL     1      41.365  20.171  19.391  0.00  0.00    -0.112 C 
ATOM      3  C   UNL     1      42.474  20.318  18.649  0.00  0.00    +0.005 C 
ATOM      4  C   UNL     1      43.743  19.688  19.067  0.00  0.00    +0.417 C 
ATOM      5  C   UNL     1      43.723  18.660  20.124  0.00  0.00    -0.160 A 
ATOM      6  C   UNL     1      42.560  18.504  20.905  0.00  0.00    -0.111 A 
ATOM      7  C   UNL     1      42.522  17.542  21.903  0.00  0.00    +0.071 A 
ATOM      8  C   UNL     1      43.630  16.735  22.130  0.00  0.00    +0.064 A 
ATOM      9  C   UNL     1      44.770  16.880  21.370  0.00  0.00    +0.019 A 
ATOM     10  C   UNL     1      44.829  17.843  20.361  0.00  0.00    +0.165 A 
ATOM     13  O   UNL     1      44.792  20.014  18.547  0.00  0.00    -0.414 OA
ATOM     14  C   UNL     1      41.399  19.383  20.639  0.00  0.00    +0.422 C 
ATOM     15  O   UNL     1      40.484  19.454  21.436  0.00  0.00    -0.416 OA
ENDROOT
BRANCH  10  11
ATOM     11  O   UNL     1      45.953  17.983  19.616  0.00  0.00    -0.480 OA
ATOM     12  H   UNL     1      46.060  18.861  19.227  0.00  0.00    +0.403 HD
ENDBRANCH  10  11
TORSDOF 1
ENDMDL
MODEL 8
REMARK VINA RESULT:      -4.8      3.186      4.519
REMARK  Name = ZINC00058187
REMARK  2 active torsions:
REMARK  status: ('A' for Active; 'I' for Inactive)
REMARK    1  A    between atoms: C1_1  and  C2_2
REMARK    2  A    between atoms: C10_11  and  O2_12
REMARK                            x       y       z     vdW  Elec       q    Type
REMARK                         _______ _______ _______ _____ _____    ______ ____
ROOT
ATOM      1  C   UNL     1      47.229  17.141  17.203  0.00  0.00    +0.129 C 
ATOM      2  C   UNL     1      46.110  17.531  18.134  0.00  0.00    -0.112 C 
ATOM      3  C   UNL     1      45.596  18.769  18.076  0.00  0.00    +0.005 C 
ATOM      4  C   UNL     1      44.498  19.167  18.981  0.00  0.00    +0.417 C 
ATOM      5  C   UNL     1      44.176  18.314  20.141  0.00  0.00    -0.160 A 
ATOM      6  C   UNL     1      44.714  17.013  20.203  0.00  0.00    -0.111 A 
ATOM      7  C   UNL     1      44.422  16.197  21.286  0.00  0.00    +0.071 A 
ATOM      8  C   UNL     1      43.602  16.663  22.305  0.00  0.00    +0.064 A 
ATOM      9  C   UNL     1      43.072  17.934  22.252  0.00  0.00    +0.019 A 
ATOM     10  C   UNL     1      43.353  18.772  21.171  0.00  0.00    +0.165 A 
ATOM     13  O   UNL     1      43.868  20.185  18.774  0.00  0.00    -0.414 OA
ATOM     14  C   UNL     1      45.582  16.545  19.099  0.00  0.00    +0.422 C 
ATOM     15  O   UNL     1      45.859  15.368  18.989  0.00  0.00    -0.416 OA
ENDROOT
BRANCH  10  11
ATOM     11  O   UNL     1      42.830  20.022  21.121  0.00  0.00    -0.480 OA
ATOM     12  H   UNL     1      43.198  20.575  20.419  0.00  0.00    +0.403 HD
ENDBRANCH  10  11
TORSDOF 1
ENDMDL
MODEL 9
REMARK VINA RESULT:      -4.5      1.077      3.168
REMARK  Name = ZINC00058187
REMARK  2 active torsions:
REMARK  status: ('A' for Active; 'I' for Inactive)
REMARK    1  A    between atoms: C1_1  and  C2_2
REMARK    2  A    between atoms: C10_11  and  O2_12
REMARK                            x       y       z     vdW  Elec       q    Type
REMARK                         _______ _______ _______ _____ _____    ______ ____
ROOT
ATOM      1  C   UNL     1      46.989  21.281  19.928  0.00  0.00    +0.129 C 
ATOM      2  C   UNL     1      45.528  20.951  20.088  0.00  0.00    -0.112 C 
ATOM      3  C   UNL     1      45.165  19.785  20.644  0.00  0.00    +0.005 C 
ATOM      4  C   UNL     1      43.737  19.445  20.809  0.00  0.00    +0.417 C 
ATOM      5  C   UNL     1      42.720  20.243  20.097  0.00  0.00    -0.160 A 
ATOM      6  C   UNL     1      43.099  21.468  19.513  0.00  0.00    -0.111 A 
ATOM      7  C   UNL     1      42.157  22.231  18.839  0.00  0.00    +0.071 A 
ATOM      8  C   UNL     1      40.845  21.786  18.740  0.00  0.00    +0.064 A 
ATOM      9  C   UNL     1      40.467  20.588  19.308  0.00  0.00    +0.019 A 
ATOM     10  C   UNL     1      41.400  19.805  19.991  0.00  0.00    +0.165 A 
ATOM     13  O   UNL     1      43.402  18.521  21.524  0.00  0.00    -0.414 OA
ATOM     14  C   UNL     1      44.504  21.916  19.639  0.00  0.00    +0.422 C 
ATOM     15  O   UNL     1      44.813  23.061  19.374  0.00  0.00    -0.416 OA
ENDROOT
BRANCH  10  11
ATOM     11  O   UNL     1      41.024  18.628  20.549  0.00  0.00    -0.480 OA
ATOM     12  H   UNL     1      41.321  17.848  20.060  0.00  0.00    +0.403 HD
ENDBRANCH  10  11
TORSDOF 1
ENDMDL
