MODEL 1
REMARK VINA RESULT:      -6.1      0.000      0.000
REMARK  Name = ZINC95486317
REMARK  9 active torsions:
REMARK  status: ('A' for Active; 'I' for Inactive)
REMARK    1  A    between atoms: C1_1  and  C2_2
REMARK    2  A    between atoms: C7_8  and  C12_16
REMARK    3  A    between atoms: C8_9  and  O1_15
REMARK    4  A    between atoms: C10_11  and  C11_14
REMARK    5  A    between atoms: C17_21  and  O4_29
REMARK    6  A    between atoms: C19_23  and  O3_27
REMARK    7  A    between atoms: C21_25  and  O2_26
REMARK    8  A    between atoms: O3_27  and  C22_28
REMARK    9  A    between atoms: O4_29  and  C23_30
REMARK                            x       y       z     vdW  Elec       q    Type
REMARK                         _______ _______ _______ _____ _____    ______ ____
ROOT
ATOM      8  C   UNL     1      47.184  15.878  17.814  0.00  0.00    -0.109 A 
ATOM      9  C   UNL     1      46.529  15.538  19.021  0.00  0.00    +0.052 A 
ATOM     10  C   UNL     1      46.777  14.312  19.657  0.00  0.00    -0.022 A 
ATOM     11  C   UNL     1      46.135  14.007  20.819  0.00  0.00    +0.073 A 
ATOM     12  C   UNL     1      45.230  14.895  21.393  0.00  0.00    -0.107 A 
ATOM     13  C   UNL     1      44.961  16.107  20.797  0.00  0.00    +0.169 A 
ATOM     16  C   UNL     1      45.611  16.449  19.594  0.00  0.00    -0.103 A 
ATOM     17  C   UNL     1      45.362  17.682  18.958  0.00  0.00    +0.190 A 
ATOM     20  C   UNL     1      46.010  17.992  17.784  0.00  0.00    -0.127 A 
ATOM     21  C   UNL     1      46.919  17.103  17.213  0.00  0.00    +0.175 A 
ENDROOT
BRANCH   8   7
ATOM      1  C   UNL     1      51.336  10.476  13.701  0.00  0.00    +0.036 C 
ATOM      2  C   UNL     1      50.411  11.603  14.165  0.00  0.00    +0.124 C 
ATOM      3  C   UNL     1      50.967  12.229  15.444  0.00  0.00    +0.092 C 
ATOM      4  C   UNL     1      49.950  13.171  16.039  0.00  0.00    -0.051 A 
ATOM      5  C   UNL     1      50.382  14.096  16.981  0.00  0.00    -0.002 A 
ATOM      6  C   UNL     1      49.494  14.977  17.559  0.00  0.00    +0.044 A 
ATOM      7  C   UNL     1      48.148  14.940  17.197  0.00  0.00    -0.053 A 
ATOM     24  C   UNL     1      47.715  14.009  16.249  0.00  0.00    +0.121 A 
ATOM     27  C   UNL     1      48.622  13.128  15.671  0.00  0.00    -0.095 A 
ATOM     28  C   UNL     1      48.113  12.149  14.645  0.00  0.00    +0.228 C 
ATOM     29  C   UNL     1      47.903  12.874  13.315  0.00  0.00    -0.002 C 
ATOM     30  N   UNL     1      49.072  11.059  14.450  0.00  0.00    -0.675 NA
ATOM     31  H   UNL     1      48.772  10.436  13.715  0.00  0.00    +0.347 HD
BRANCH  24  25
ATOM     25  O   UNL     1      46.405  13.964  15.891  0.00  0.00    -0.486 OA
ATOM     26  H   UNL     1      45.823  13.606  16.575  0.00  0.00    +0.381 HD
ENDBRANCH  24  25
ENDBRANCH   8   7
BRANCH  13  14
ATOM     14  O   UNL     1      44.076  16.967  21.365  0.00  0.00    -0.291 OA
ATOM     15  C   UNL     1      43.353  16.497  22.504  0.00  0.00    +0.239 C 
ENDBRANCH  13  14
BRANCH  17  18
ATOM     18  O   UNL     1      44.482  18.561  19.501  0.00  0.00    -0.287 OA
ATOM     19  C   UNL     1      44.142  19.707  18.717  0.00  0.00    +0.241 C 
ENDBRANCH  17  18
BRANCH  21  22
ATOM     22  O   UNL     1      47.549  17.436  16.057  0.00  0.00    -0.489 OA
ATOM     23  H   UNL     1      46.960  17.785  15.374  0.00  0.00    +0.389 HD
ENDBRANCH  21  22
TORSDOF 5
ENDMDL
MODEL 2
REMARK VINA RESULT:      -5.9      2.842      5.284
REMARK  Name = ZINC95486317
REMARK  9 active torsions:
REMARK  status: ('A' for Active; 'I' for Inactive)
REMARK    1  A    between atoms: C1_1  and  C2_2
REMARK    2  A    between atoms: C7_8  and  C12_16
REMARK    3  A    between atoms: C8_9  and  O1_15
REMARK    4  A    between atoms: C10_11  and  C11_14
REMARK    5  A    between atoms: C17_21  and  O4_29
REMARK    6  A    between atoms: C19_23  and  O3_27
REMARK    7  A    between atoms: C21_25  and  O2_26
REMARK    8  A    between atoms: O3_27  and  C22_28
REMARK    9  A    between atoms: O4_29  and  C23_30
REMARK                            x       y       z     vdW  Elec       q    Type
REMARK                         _______ _______ _______ _____ _____    ______ ____
ROOT
ATOM      8  C   UNL     1      46.183  18.654  20.065  0.00  0.00    -0.109 A 
ATOM      9  C   UNL     1      45.163  19.597  19.796  0.00  0.00    +0.052 A 
ATOM     10  C   UNL     1      43.982  19.217  19.140  0.00  0.00    -0.022 A 
ATOM     11  C   UNL     1      43.013  20.143  18.892  0.00  0.00    +0.073 A 
ATOM     12  C   UNL     1      43.174  21.470  19.280  0.00  0.00    -0.107 A 
ATOM     13  C   UNL     1      44.319  21.880  19.925  0.00  0.00    +0.169 A 
ATOM     16  C   UNL     1      45.338  20.944  20.194  0.00  0.00    -0.103 A 
ATOM     17  C   UNL     1      46.523  21.327  20.855  0.00  0.00    +0.190 A 
ATOM     20  C   UNL     1      47.502  20.393  21.107  0.00  0.00    -0.127 A 
ATOM     21  C   UNL     1      47.337  19.064  20.721  0.00  0.00    +0.175 A 
ENDROOT
BRANCH   8   7
ATOM      1  C   UNL     1      46.145  11.371  16.856  0.00  0.00    +0.036 C 
ATOM      2  C   UNL     1      46.507  12.753  17.405  0.00  0.00    +0.124 C 
ATOM      3  C   UNL     1      45.516  13.145  18.502  0.00  0.00    +0.092 C 
ATOM      4  C   UNL     1      45.714  14.592  18.881  0.00  0.00    -0.051 A 
ATOM      5  C   UNL     1      45.176  15.037  20.081  0.00  0.00    -0.002 A 
ATOM      6  C   UNL     1      45.324  16.350  20.473  0.00  0.00    +0.044 A 
ATOM      7  C   UNL     1      46.020  17.241  19.657  0.00  0.00    -0.053 A 
ATOM     24  C   UNL     1      46.562  16.791  18.450  0.00  0.00    +0.121 A 
ATOM     27  C   UNL     1      46.407  15.463  18.068  0.00  0.00    -0.095 A 
ATOM     28  C   UNL     1      47.018  15.019  16.764  0.00  0.00    +0.228 C 
ATOM     29  C   UNL     1      48.526  14.837  16.948  0.00  0.00    -0.002 C 
ATOM     30  N   UNL     1      46.433  13.750  16.325  0.00  0.00    -0.675 NA
ATOM     31  H   UNL     1      46.884  13.411  15.489  0.00  0.00    +0.347 HD
BRANCH  24  25
ATOM     25  O   UNL     1      47.241  17.652  17.648  0.00  0.00    -0.486 OA
ATOM     26  H   UNL     1      46.734  17.959  16.883  0.00  0.00    +0.381 HD
ENDBRANCH  24  25
ENDBRANCH   8   7
BRANCH  13  14
ATOM     14  O   UNL     1      44.467  23.177  20.299  0.00  0.00    -0.291 OA
ATOM     15  C   UNL     1      44.435  24.160  19.262  0.00  0.00    +0.239 C 
ENDBRANCH  13  14
BRANCH  17  18
ATOM     18  O   UNL     1      46.698  22.617  21.240  0.00  0.00    -0.287 OA
ATOM     19  C   UNL     1      47.453  22.840  22.433  0.00  0.00    +0.241 C 
ENDBRANCH  17  18
BRANCH  21  22
ATOM     22  O   UNL     1      48.317  18.161  20.987  0.00  0.00    -0.489 OA
ATOM     23  H   UNL     1      48.154  17.623  21.773  0.00  0.00    +0.389 HD
ENDBRANCH  21  22
TORSDOF 5
ENDMDL
MODEL 3
REMARK VINA RESULT:      -5.8      4.990      8.677
REMARK  Name = ZINC95486317
REMARK  9 active torsions:
REMARK  status: ('A' for Active; 'I' for Inactive)
REMARK    1  A    between atoms: C1_1  and  C2_2
REMARK    2  A    between atoms: C7_8  and  C12_16
REMARK    3  A    between atoms: C8_9  and  O1_15
REMARK    4  A    between atoms: C10_11  and  C11_14
REMARK    5  A    between atoms: C17_21  and  O4_29
REMARK    6  A    between atoms: C19_23  and  O3_27
REMARK    7  A    between atoms: C21_25  and  O2_26
REMARK    8  A    between atoms: O3_27  and  C22_28
REMARK    9  A    between atoms: O4_29  and  C23_30
REMARK                            x       y       z     vdW  Elec       q    Type
REMARK                         _______ _______ _______ _____ _____    ______ ____
ROOT
ATOM      8  C   UNL     1      48.417  19.767  20.159  0.00  0.00    -0.109 A 
ATOM      9  C   UNL     1      49.017  19.133  19.046  0.00  0.00    +0.052 A 
ATOM     10  C   UNL     1      48.331  18.150  18.316  0.00  0.00    -0.022 A 
ATOM     11  C   UNL     1      48.930  17.554  17.247  0.00  0.00    +0.073 A 
ATOM     12  C   UNL     1      50.221  17.903  16.862  0.00  0.00    -0.107 A 
ATOM     13  C   UNL     1      50.925  18.863  17.554  0.00  0.00    +0.169 A 
ATOM     16  C   UNL     1      50.330  19.496  18.664  0.00  0.00    -0.103 A 
ATOM     17  C   UNL     1      51.021  20.484  19.395  0.00  0.00    +0.190 A 
ATOM     20  C   UNL     1      50.417  21.088  20.474  0.00  0.00    -0.127 A 
ATOM     21  C   UNL     1      49.123  20.739  20.856  0.00  0.00    +0.175 A 
ENDROOT
BRANCH   8   7
ATOM      1  C   UNL     1      40.639  18.630  21.404  0.00  0.00    +0.036 C 
ATOM      2  C   UNL     1      42.039  18.822  20.817  0.00  0.00    +0.124 C 
ATOM      3  C   UNL     1      43.086  18.324  21.814  0.00  0.00    +0.092 C 
ATOM      4  C   UNL     1      44.465  18.724  21.354  0.00  0.00    -0.051 A 
ATOM      5  C   UNL     1      45.559  18.074  21.910  0.00  0.00    -0.002 A 
ATOM      6  C   UNL     1      46.841  18.404  21.529  0.00  0.00    +0.044 A 
ATOM      7  C   UNL     1      47.044  19.401  20.575  0.00  0.00    -0.053 A 
ATOM     24  C   UNL     1      45.942  20.053  20.015  0.00  0.00    +0.121 A 
ATOM     27  C   UNL     1      44.654  19.709  20.407  0.00  0.00    -0.095 A 
ATOM     28  C   UNL     1      43.496  20.430  19.768  0.00  0.00    +0.228 C 
ATOM     29  C   UNL     1      43.265  19.872  18.363  0.00  0.00    -0.002 C 
ATOM     30  N   UNL     1      42.276  20.252  20.560  0.00  0.00    -0.675 NA
ATOM     31  H   UNL     1      41.481  20.674  20.104  0.00  0.00    +0.347 HD
BRANCH  24  25
ATOM     25  O   UNL     1      46.130  21.026  19.086  0.00  0.00    -0.486 OA
ATOM     26  H   UNL     1      46.334  20.691  18.201  0.00  0.00    +0.381 HD
ENDBRANCH  24  25
ENDBRANCH   8   7
BRANCH  13  14
ATOM     14  O   UNL     1      52.185  19.197  17.171  0.00  0.00    -0.291 OA
ATOM     15  C   UNL     1      52.360  19.619  15.817  0.00  0.00    +0.239 C 
ENDBRANCH  13  14
BRANCH  17  18
ATOM     18  O   UNL     1      52.281  20.838  19.035  0.00  0.00    -0.287 OA
ATOM     19  C   UNL     1      52.982  21.722  19.912  0.00  0.00    +0.241 C 
ENDBRANCH  17  18
BRANCH  21  22
ATOM     22  O   UNL     1      48.548  21.354  21.923  0.00  0.00    -0.489 OA
ATOM     23  H   UNL     1      48.836  22.268  22.052  0.00  0.00    +0.389 HD
ENDBRANCH  21  22
TORSDOF 5
ENDMDL
MODEL 4
REMARK VINA RESULT:      -5.8      1.190      1.981
REMARK  Name = ZINC95486317
REMARK  9 active torsions:
REMARK  status: ('A' for Active; 'I' for Inactive)
REMARK    1  A    between atoms: C1_1  and  C2_2
REMARK    2  A    between atoms: C7_8  and  C12_16
REMARK    3  A    between atoms: C8_9  and  O1_15
REMARK    4  A    between atoms: C10_11  and  C11_14
REMARK    5  A    between atoms: C17_21  and  O4_29
REMARK    6  A    between atoms: C19_23  and  O3_27
REMARK    7  A    between atoms: C21_25  and  O2_26
REMARK    8  A    between atoms: O3_27  and  C22_28
REMARK    9  A    between atoms: O4_29  and  C23_30
REMARK                            x       y       z     vdW  Elec       q    Type
REMARK                         _______ _______ _______ _____ _____    ______ ____
ROOT
ATOM      8  C   UNL     1      46.714  15.851  17.720  0.00  0.00    -0.109 A 
ATOM      9  C   UNL     1      46.141  15.595  18.988  0.00  0.00    +0.052 A 
ATOM     10  C   UNL     1      46.266  14.338  19.599  0.00  0.00    -0.022 A 
ATOM     11  C   UNL     1      45.705  14.116  20.820  0.00  0.00    +0.073 A 
ATOM     12  C   UNL     1      45.004  15.121  21.480  0.00  0.00    -0.107 A 
ATOM     13  C   UNL     1      44.860  16.367  20.912  0.00  0.00    +0.169 A 
ATOM     16  C   UNL     1      45.430  16.625  19.649  0.00  0.00    -0.103 A 
ATOM     17  C   UNL     1      45.304  17.889  19.038  0.00  0.00    +0.190 A 
ATOM     20  C   UNL     1      45.871  18.115  17.805  0.00  0.00    -0.127 A 
ATOM     21  C   UNL     1      46.576  17.109  17.147  0.00  0.00    +0.175 A 
ENDROOT
BRANCH   8   7
ATOM      1  C   UNL     1      51.834  10.720  14.433  0.00  0.00    +0.036 C 
ATOM      2  C   UNL     1      51.062  11.666  15.355  0.00  0.00    +0.124 C 
ATOM      3  C   UNL     1      49.590  11.698  14.940  0.00  0.00    +0.092 C 
ATOM      4  C   UNL     1      48.872  12.798  15.680  0.00  0.00    -0.051 A 
ATOM      5  C   UNL     1      47.484  12.767  15.721  0.00  0.00    -0.002 A 
ATOM      6  C   UNL     1      46.777  13.750  16.380  0.00  0.00    +0.044 A 
ATOM      7  C   UNL     1      47.462  14.788  17.011  0.00  0.00    -0.053 A 
ATOM     24  C   UNL     1      48.858  14.817  16.971  0.00  0.00    +0.121 A 
ATOM     27  C   UNL     1      49.559  13.818  16.305  0.00  0.00    -0.095 A 
ATOM     28  C   UNL     1      51.064  13.884  16.297  0.00  0.00    +0.228 C 
ATOM     29  C   UNL     1      51.598  13.417  17.652  0.00  0.00    -0.002 C 
ATOM     30  N   UNL     1      51.613  13.026  15.244  0.00  0.00    -0.675 NA
ATOM     31  H   UNL     1      52.621  13.011  15.275  0.00  0.00    +0.347 HD
BRANCH  24  25
ATOM     25  O   UNL     1      49.534  15.824  17.583  0.00  0.00    -0.486 OA
ATOM     26  H   UNL     1      49.403  16.691  17.173  0.00  0.00    +0.381 HD
ENDBRANCH  24  25
ENDBRANCH   8   7
BRANCH  13  14
ATOM     14  O   UNL     1      44.175  17.341  21.564  0.00  0.00    -0.291 OA
ATOM     15  C   UNL     1      43.053  16.931  22.349  0.00  0.00    +0.239 C 
ENDBRANCH  13  14
BRANCH  17  18
ATOM     18  O   UNL     1      44.624  18.882  19.666  0.00  0.00    -0.287 OA
ATOM     19  C   UNL     1      43.980  19.852  18.837  0.00  0.00    +0.241 C 
ENDBRANCH  17  18
BRANCH  21  22
ATOM     22  O   UNL     1      47.129  17.360  15.932  0.00  0.00    -0.489 OA
ATOM     23  H   UNL     1      47.539  16.588  15.519  0.00  0.00    +0.389 HD
ENDBRANCH  21  22
TORSDOF 5
ENDMDL
MODEL 5
REMARK VINA RESULT:      -5.5      3.254      7.411
REMARK  Name = ZINC95486317
REMARK  9 active torsions:
REMARK  status: ('A' for Active; 'I' for Inactive)
REMARK    1  A    between atoms: C1_1  and  C2_2
REMARK    2  A    between atoms: C7_8  and  C12_16
REMARK    3  A    between atoms: C8_9  and  O1_15
REMARK    4  A    between atoms: C10_11  and  C11_14
REMARK    5  A    between atoms: C17_21  and  O4_29
REMARK    6  A    between atoms: C19_23  and  O3_27
REMARK    7  A    between atoms: C21_25  and  O2_26
REMARK    8  A    between atoms: O3_27  and  C22_28
REMARK    9  A    between atoms: O4_29  and  C23_30
REMARK                            x       y       z     vdW  Elec       q    Type
REMARK                         _______ _______ _______ _____ _____    ______ ____
ROOT
ATOM      8  C   UNL     1      47.873  16.358  18.332  0.00  0.00    -0.109 A 
ATOM      9  C   UNL     1      47.054  15.223  18.538  0.00  0.00    +0.052 A 
ATOM     10  C   UNL     1      45.937  15.280  19.386  0.00  0.00    -0.022 A 
ATOM     11  C   UNL     1      45.164  14.174  19.568  0.00  0.00    +0.073 A 
ATOM     12  C   UNL     1      45.463  12.976  18.925  0.00  0.00    -0.107 A 
ATOM     13  C   UNL     1      46.551  12.881  18.086  0.00  0.00    +0.169 A 
ATOM     16  C   UNL     1      47.368  14.010  17.879  0.00  0.00    -0.103 A 
ATOM     17  C   UNL     1      48.489  13.951  17.026  0.00  0.00    +0.190 A 
ATOM     20  C   UNL     1      49.271  15.068  16.840  0.00  0.00    -0.127 A 
ATOM     21  C   UNL     1      48.968  16.267  17.482  0.00  0.00    +0.175 A 
ENDROOT
BRANCH   8   7
ATOM      1  C   UNL     1      45.210  23.339  21.074  0.00  0.00    +0.036 C 
ATOM      2  C   UNL     1      45.370  21.920  20.524  0.00  0.00    +0.124 C 
ATOM      3  C   UNL     1      46.697  21.330  21.003  0.00  0.00    +0.092 C 
ATOM      4  C   UNL     1      46.975  20.036  20.280  0.00  0.00    -0.051 A 
ATOM      5  C   UNL     1      47.925  19.175  20.814  0.00  0.00    -0.002 A 
ATOM      6  C   UNL     1      48.221  17.982  20.191  0.00  0.00    +0.044 A 
ATOM      7  C   UNL     1      47.562  17.635  19.012  0.00  0.00    -0.053 A 
ATOM     24  C   UNL     1      46.605  18.502  18.477  0.00  0.00    +0.121 A 
ATOM     27  C   UNL     1      46.314  19.701  19.117  0.00  0.00    -0.095 A 
ATOM     28  C   UNL     1      45.268  20.600  18.510  0.00  0.00    +0.228 C 
ATOM     29  C   UNL     1      43.879  20.043  18.826  0.00  0.00    -0.002 C 
ATOM     30  N   UNL     1      45.375  21.957  19.053  0.00  0.00    -0.675 NA
ATOM     31  H   UNL     1      44.635  22.548  18.704  0.00  0.00    +0.347 HD
BRANCH  24  25
ATOM     25  O   UNL     1      45.958  18.173  17.329  0.00  0.00    -0.486 OA
ATOM     26  H   UNL     1      45.687  18.936  16.798  0.00  0.00    +0.381 HD
ENDBRANCH  24  25
ENDBRANCH   8   7
BRANCH  13  14
ATOM     14  O   UNL     1      46.834  11.709  17.463  0.00  0.00    -0.291 OA
ATOM     15  C   UNL     1      45.874  11.226  16.521  0.00  0.00    +0.239 C 
ENDBRANCH  13  14
BRANCH  17  18
ATOM     18  O   UNL     1      48.797  12.792  16.389  0.00  0.00    -0.287 OA
ATOM     19  C   UNL     1      49.173  12.887  15.014  0.00  0.00    +0.241 C 
ENDBRANCH  17  18
BRANCH  21  22
ATOM     22  O   UNL     1      49.753  17.357  17.277  0.00  0.00    -0.489 OA
ATOM     23  H   UNL     1      49.473  17.910  16.535  0.00  0.00    +0.389 HD
ENDBRANCH  21  22
TORSDOF 5
ENDMDL
MODEL 6
REMARK VINA RESULT:      -5.5      2.560      4.229
REMARK  Name = ZINC95486317
REMARK  9 active torsions:
REMARK  status: ('A' for Active; 'I' for Inactive)
REMARK    1  A    between atoms: C1_1  and  C2_2
REMARK    2  A    between atoms: C7_8  and  C12_16
REMARK    3  A    between atoms: C8_9  and  O1_15
REMARK    4  A    between atoms: C10_11  and  C11_14
REMARK    5  A    between atoms: C17_21  and  O4_29
REMARK    6  A    between atoms: C19_23  and  O3_27
REMARK    7  A    between atoms: C21_25  and  O2_26
REMARK    8  A    between atoms: O3_27  and  C22_28
REMARK    9  A    between atoms: O4_29  and  C23_30
REMARK                            x       y       z     vdW  Elec       q    Type
REMARK                         _______ _______ _______ _____ _____    ______ ____
ROOT
ATOM      8  C   UNL     1      45.336  16.177  20.670  0.00  0.00    -0.109 A 
ATOM      9  C   UNL     1      45.149  17.353  19.906  0.00  0.00    +0.052 A 
ATOM     10  C   UNL     1      45.964  17.633  18.798  0.00  0.00    -0.022 A 
ATOM     11  C   UNL     1      45.765  18.772  18.077  0.00  0.00    +0.073 A 
ATOM     12  C   UNL     1      44.759  19.671  18.421  0.00  0.00    -0.107 A 
ATOM     13  C   UNL     1      43.939  19.430  19.501  0.00  0.00    +0.169 A 
ATOM     16  C   UNL     1      44.123  18.260  20.265  0.00  0.00    -0.103 A 
ATOM     17  C   UNL     1      43.302  17.980  21.376  0.00  0.00    +0.190 A 
ATOM     20  C   UNL     1      43.502  16.830  22.105  0.00  0.00    -0.127 A 
ATOM     21  C   UNL     1      44.507  15.929  21.758  0.00  0.00    +0.175 A 
ENDROOT
BRANCH   8   7
ATOM      1  C   UNL     1      50.176  10.523  17.851  0.00  0.00    +0.036 C 
ATOM      2  C   UNL     1      49.165  11.656  18.044  0.00  0.00    +0.124 C 
ATOM      3  C   UNL     1      49.513  12.445  19.306  0.00  0.00    +0.092 C 
ATOM      4  C   UNL     1      48.398  13.405  19.637  0.00  0.00    -0.051 A 
ATOM      5  C   UNL     1      48.665  14.448  20.514  0.00  0.00    -0.002 A 
ATOM      6  C   UNL     1      47.680  15.350  20.854  0.00  0.00    +0.044 A 
ATOM      7  C   UNL     1      46.402  15.216  20.312  0.00  0.00    -0.053 A 
ATOM     24  C   UNL     1      46.136  14.167  19.427  0.00  0.00    +0.121 A 
ATOM     27  C   UNL     1      47.138  13.265  19.092  0.00  0.00    -0.095 A 
ATOM     28  C   UNL     1      46.809  12.157  18.126  0.00  0.00    +0.228 C 
ATOM     29  C   UNL     1      46.777  12.718  16.703  0.00  0.00    -0.002 C 
ATOM     30  N   UNL     1      47.814  11.093  18.198  0.00  0.00    -0.675 NA
ATOM     31  H   UNL     1      47.639  10.379  17.507  0.00  0.00    +0.347 HD
BRANCH  24  25
ATOM     25  O   UNL     1      44.894  14.028  18.895  0.00  0.00    -0.486 OA
ATOM     26  H   UNL     1      44.688  13.127  18.607  0.00  0.00    +0.381 HD
ENDBRANCH  24  25
ENDBRANCH   8   7
BRANCH  13  14
ATOM     14  O   UNL     1      42.961  20.313  19.828  0.00  0.00    -0.291 OA
ATOM     15  C   UNL     1      42.110  20.760  18.771  0.00  0.00    +0.239 C 
ENDBRANCH  13  14
BRANCH  17  18
ATOM     18  O   UNL     1      42.316  18.845  21.727  0.00  0.00    -0.287 OA
ATOM     19  C   UNL     1      40.971  18.432  21.476  0.00  0.00    +0.241 C 
ENDBRANCH  17  18
BRANCH  21  22
ATOM     22  O   UNL     1      44.679  14.798  22.491  0.00  0.00    -0.489 OA
ATOM     23  H   UNL     1      44.140  14.052  22.197  0.00  0.00    +0.389 HD
ENDBRANCH  21  22
TORSDOF 5
ENDMDL
MODEL 7
REMARK VINA RESULT:      -5.5      1.144      2.862
REMARK  Name = ZINC95486317
REMARK  9 active torsions:
REMARK  status: ('A' for Active; 'I' for Inactive)
REMARK    1  A    between atoms: C1_1  and  C2_2
REMARK    2  A    between atoms: C7_8  and  C12_16
REMARK    3  A    between atoms: C8_9  and  O1_15
REMARK    4  A    between atoms: C10_11  and  C11_14
REMARK    5  A    between atoms: C17_21  and  O4_29
REMARK    6  A    between atoms: C19_23  and  O3_27
REMARK    7  A    between atoms: C21_25  and  O2_26
REMARK    8  A    between atoms: O3_27  and  C22_28
REMARK    9  A    between atoms: O4_29  and  C23_30
REMARK                            x       y       z     vdW  Elec       q    Type
REMARK                         _______ _______ _______ _____ _____    ______ ____
ROOT
ATOM      8  C   UNL     1      46.892  14.632  18.834  0.00  0.00    -0.109 A 
ATOM      9  C   UNL     1      46.579  15.973  18.511  0.00  0.00    +0.052 A 
ATOM     10  C   UNL     1      47.188  16.617  17.423  0.00  0.00    -0.022 A 
ATOM     11  C   UNL     1      46.870  17.909  17.131  0.00  0.00    +0.073 A 
ATOM     12  C   UNL     1      45.944  18.610  17.898  0.00  0.00    -0.107 A 
ATOM     13  C   UNL     1      45.325  18.012  18.973  0.00  0.00    +0.169 A 
ATOM     16  C   UNL     1      45.636  16.676  19.298  0.00  0.00    -0.103 A 
ATOM     17  C   UNL     1      45.021  16.031  20.391  0.00  0.00    +0.190 A 
ATOM     20  C   UNL     1      45.341  14.726  20.686  0.00  0.00    -0.127 A 
ATOM     21  C   UNL     1      46.266  14.024  19.915  0.00  0.00    +0.175 A 
ENDROOT
BRANCH   8   7
ATOM      1  C   UNL     1      51.157  10.409  13.607  0.00  0.00    +0.036 C 
ATOM      2  C   UNL     1      50.209  11.380  14.314  0.00  0.00    +0.124 C 
ATOM      3  C   UNL     1      50.750  11.703  15.707  0.00  0.00    +0.092 C 
ATOM      4  C   UNL     1      49.714  12.462  16.498  0.00  0.00    -0.051 A 
ATOM      5  C   UNL     1      50.126  13.151  17.631  0.00  0.00    -0.002 A 
ATOM      6  C   UNL     1      49.220  13.857  18.392  0.00  0.00    +0.044 A 
ATOM      7  C   UNL     1      47.876  13.880  18.023  0.00  0.00    -0.053 A 
ATOM     24  C   UNL     1      47.463  13.187  16.882  0.00  0.00    +0.121 A 
ATOM     27  C   UNL     1      48.388  12.481  16.121  0.00  0.00    -0.095 A 
ATOM     28  C   UNL     1      47.900  11.758  14.893  0.00  0.00    +0.228 C 
ATOM     29  C   UNL     1      47.679  12.768  13.766  0.00  0.00    -0.002 C 
ATOM     30  N   UNL     1      48.881  10.761  14.456  0.00  0.00    -0.675 NA
ATOM     31  H   UNL     1      48.594  10.320  13.595  0.00  0.00    +0.347 HD
BRANCH  24  25
ATOM     25  O   UNL     1      46.155  13.203  16.514  0.00  0.00    -0.486 OA
ATOM     26  H   UNL     1      45.545  13.384  17.243  0.00  0.00    +0.381 HD
ENDBRANCH  24  25
ENDBRANCH   8   7
BRANCH  13  14
ATOM     14  O   UNL     1      44.423  18.704  19.716  0.00  0.00    -0.291 OA
ATOM     15  C   UNL     1      44.620  20.115  19.826  0.00  0.00    +0.239 C 
ENDBRANCH  13  14
BRANCH  17  18
ATOM     18  O   UNL     1      44.116  16.698  21.151  0.00  0.00    -0.287 OA
ATOM     19  C   UNL     1      43.916  16.226  22.485  0.00  0.00    +0.241 C 
ENDBRANCH  17  18
BRANCH  21  22
ATOM     22  O   UNL     1      46.560  12.735  20.225  0.00  0.00    -0.489 OA
ATOM     23  H   UNL     1      47.316  12.376  19.742  0.00  0.00    +0.389 HD
ENDBRANCH  21  22
TORSDOF 5
ENDMDL
MODEL 8
REMARK VINA RESULT:      -5.4      4.481      8.268
REMARK  Name = ZINC95486317
REMARK  9 active torsions:
REMARK  status: ('A' for Active; 'I' for Inactive)
REMARK    1  A    between atoms: C1_1  and  C2_2
REMARK    2  A    between atoms: C7_8  and  C12_16
REMARK    3  A    between atoms: C8_9  and  O1_15
REMARK    4  A    between atoms: C10_11  and  C11_14
REMARK    5  A    between atoms: C17_21  and  O4_29
REMARK    6  A    between atoms: C19_23  and  O3_27
REMARK    7  A    between atoms: C21_25  and  O2_26
REMARK    8  A    between atoms: O3_27  and  C22_28
REMARK    9  A    between atoms: O4_29  and  C23_30
REMARK                            x       y       z     vdW  Elec       q    Type
REMARK                         _______ _______ _______ _____ _____    ______ ____
ROOT
ATOM      8  C   UNL     1      47.847  18.156  19.031  0.00  0.00    -0.109 A 
ATOM      9  C   UNL     1      48.914  18.842  19.657  0.00  0.00    +0.052 A 
ATOM     10  C   UNL     1      48.730  19.504  20.881  0.00  0.00    -0.022 A 
ATOM     11  C   UNL     1      49.772  20.158  21.465  0.00  0.00    +0.073 A 
ATOM     12  C   UNL     1      51.028  20.183  20.866  0.00  0.00    -0.107 A 
ATOM     13  C   UNL     1      51.247  19.545  19.665  0.00  0.00    +0.169 A 
ATOM     16  C   UNL     1      50.186  18.862  19.038  0.00  0.00    -0.103 A 
ATOM     17  C   UNL     1      50.374  18.197  17.810  0.00  0.00    +0.190 A 
ATOM     20  C   UNL     1      49.322  17.535  17.219  0.00  0.00    -0.127 A 
ATOM     21  C   UNL     1      48.066  17.508  17.822  0.00  0.00    +0.175 A 
ENDROOT
BRANCH   8   7
ATOM      1  C   UNL     1      40.367  19.028  21.607  0.00  0.00    +0.036 C 
ATOM      2  C   UNL     1      41.654  18.912  20.788  0.00  0.00    +0.124 C 
ATOM      3  C   UNL     1      42.646  18.005  21.516  0.00  0.00    +0.092 C 
ATOM      4  C   UNL     1      43.995  18.074  20.844  0.00  0.00    -0.051 A 
ATOM      5  C   UNL     1      44.919  17.075  21.118  0.00  0.00    -0.002 A 
ATOM      6  C   UNL     1      46.168  17.093  20.535  0.00  0.00    +0.044 A 
ATOM      7  C   UNL     1      46.508  18.124  19.661  0.00  0.00    -0.053 A 
ATOM     24  C   UNL     1      45.576  19.129  19.385  0.00  0.00    +0.121 A 
ATOM     27  C   UNL     1      44.320  19.098  19.978  0.00  0.00    -0.095 A 
ATOM     28  C   UNL     1      43.343  20.195  19.642  0.00  0.00    +0.228 C 
ATOM     29  C   UNL     1      42.745  19.934  18.259  0.00  0.00    -0.002 C 
ATOM     30  N   UNL     1      42.262  20.244  20.630  0.00  0.00    -0.675 NA
ATOM     31  H   UNL     1      41.567  20.930  20.376  0.00  0.00    +0.347 HD
BRANCH  24  25
ATOM     25  O   UNL     1      45.899  20.139  18.536  0.00  0.00    -0.486 OA
ATOM     26  H   UNL     1      46.582  20.734  18.875  0.00  0.00    +0.381 HD
ENDBRANCH  24  25
ENDBRANCH   8   7
BRANCH  13  14
ATOM     14  O   UNL     1      52.476  19.576  19.088  0.00  0.00    -0.291 OA
ATOM     15  C   UNL     1      53.043  20.863  18.835  0.00  0.00    +0.239 C 
ENDBRANCH  13  14
BRANCH  17  18
ATOM     18  O   UNL     1      51.592  18.210  17.209  0.00  0.00    -0.287 OA
ATOM     19  C   UNL     1      51.647  18.689  15.864  0.00  0.00    +0.241 C 
ENDBRANCH  17  18
BRANCH  21  22
ATOM     22  O   UNL     1      47.045  16.843  17.220  0.00  0.00    -0.489 OA
ATOM     23  H   UNL     1      46.799  16.018  17.659  0.00  0.00    +0.389 HD
ENDBRANCH  21  22
TORSDOF 5
ENDMDL
MODEL 9
REMARK VINA RESULT:      -5.3      2.654      3.695
REMARK  Name = ZINC95486317
REMARK  9 active torsions:
REMARK  status: ('A' for Active; 'I' for Inactive)
REMARK    1  A    between atoms: C1_1  and  C2_2
REMARK    2  A    between atoms: C7_8  and  C12_16
REMARK    3  A    between atoms: C8_9  and  O1_15
REMARK    4  A    between atoms: C10_11  and  C11_14
REMARK    5  A    between atoms: C17_21  and  O4_29
REMARK    6  A    between atoms: C19_23  and  O3_27
REMARK    7  A    between atoms: C21_25  and  O2_26
REMARK    8  A    between atoms: O3_27  and  C22_28
REMARK    9  A    between atoms: O4_29  and  C23_30
REMARK                            x       y       z     vdW  Elec       q    Type
REMARK                         _______ _______ _______ _____ _____    ______ ____
ROOT
ATOM      8  C   UNL     1      45.802  16.914  18.989  0.00  0.00    -0.109 A 
ATOM      9  C   UNL     1      44.929  16.963  20.102  0.00  0.00    +0.052 A 
ATOM     10  C   UNL     1      44.877  15.910  21.028  0.00  0.00    -0.022 A 
ATOM     11  C   UNL     1      44.029  15.981  22.092  0.00  0.00    +0.073 A 
ATOM     12  C   UNL     1      43.206  17.087  22.279  0.00  0.00    -0.107 A 
ATOM     13  C   UNL     1      43.229  18.140  21.392  0.00  0.00    +0.169 A 
ATOM     16  C   UNL     1      44.097  18.093  20.283  0.00  0.00    -0.103 A 
ATOM     17  C   UNL     1      44.149  19.153  19.355  0.00  0.00    +0.190 A 
ATOM     20  C   UNL     1      45.006  19.084  18.280  0.00  0.00    -0.127 A 
ATOM     21  C   UNL     1      45.832  17.977  18.095  0.00  0.00    +0.175 A 
ENDROOT
BRANCH   8   7
ATOM      1  C   UNL     1      51.371  11.234  18.727  0.00  0.00    +0.036 C 
ATOM      2  C   UNL     1      50.374  12.322  19.132  0.00  0.00    +0.124 C 
ATOM      3  C   UNL     1      49.200  12.332  18.151  0.00  0.00    +0.092 C 
ATOM      4  C   UNL     1      48.338  13.546  18.394  0.00  0.00    -0.051 A 
ATOM      5  C   UNL     1      47.053  13.556  17.868  0.00  0.00    -0.002 A 
ATOM      6  C   UNL     1      46.224  14.641  18.057  0.00  0.00    +0.044 A 
ATOM      7  C   UNL     1      46.681  15.741  18.782  0.00  0.00    -0.053 A 
ATOM     24  C   UNL     1      47.974  15.729  19.312  0.00  0.00    +0.121 A 
ATOM     27  C   UNL     1      48.798  14.627  19.117  0.00  0.00    -0.095 A 
ATOM     28  C   UNL     1      50.180  14.652  19.716  0.00  0.00    +0.228 C 
ATOM     29  C   UNL     1      50.086  14.372  21.216  0.00  0.00    -0.002 C 
ATOM     30  N   UNL     1      51.033  13.638  19.091  0.00  0.00    -0.675 NA
ATOM     31  H   UNL     1      51.939  13.601  19.533  0.00  0.00    +0.347 HD
BRANCH  24  25
ATOM     25  O   UNL     1      48.427  16.796  20.019  0.00  0.00    -0.486 OA
ATOM     26  H   UNL     1      47.780  17.509  20.114  0.00  0.00    +0.381 HD
ENDBRANCH  24  25
ENDBRANCH   8   7
BRANCH  13  14
ATOM     14  O   UNL     1      42.422  19.215  21.584  0.00  0.00    -0.291 OA
ATOM     15  C   UNL     1      41.017  19.011  21.419  0.00  0.00    +0.239 C 
ENDBRANCH  13  14
BRANCH  17  18
ATOM     18  O   UNL     1      43.354  20.241  19.521  0.00  0.00    -0.287 OA
ATOM     19  C   UNL     1      43.999  21.515  19.570  0.00  0.00    +0.241 C 
ENDBRANCH  17  18
BRANCH  21  22
ATOM     22  O   UNL     1      46.672  17.936  17.028  0.00  0.00    -0.489 OA
ATOM     23  H   UNL     1      47.559  17.613  17.238  0.00  0.00    +0.389 HD
ENDBRANCH  21  22
TORSDOF 5
ENDMDL
