MODEL 1
REMARK VINA RESULT:      -6.6      0.000      0.000
REMARK  Name = ZINC95486068
REMARK  3 active torsions:
REMARK  status: ('A' for Active; 'I' for Inactive)
REMARK    1  A    between atoms: C1_1  and  O1_2
REMARK    2  A    between atoms: O1_2  and  C2_3
REMARK    3  A    between atoms: C7_8  and  C8_9
REMARK                            x       y       z     vdW  Elec       q    Type
REMARK                         _______ _______ _______ _____ _____    ______ ____
ROOT
ATOM     12  C   UNL     1      45.264  20.685  20.853  0.00  0.00    +0.048 C 
ATOM     13  C   UNL     1      45.133  19.261  21.365  0.00  0.00    +0.417 C 
ATOM     14  C   UNL     1      45.442  18.185  20.408  0.00  0.00    -0.252 A 
ATOM     15  C   UNL     1      45.070  16.871  20.690  0.00  0.00    +0.192 A 
ATOM     16  C   UNL     1      45.378  15.866  19.783  0.00  0.00    -0.161 A 
ATOM     17  C   UNL     1      45.147  14.416  19.743  0.00  0.00    -0.027 A 
ATOM     18  C   UNL     1      45.686  13.984  18.597  0.00  0.00    +0.229 A 
ATOM     19  O   UNL     1      46.226  15.012  17.919  0.00  0.00    -0.185 OA
ATOM     20  C   UNL     1      46.063  16.170  18.589  0.00  0.00    +0.118 A 
ATOM     21  C   UNL     1      46.425  17.483  18.316  0.00  0.00    +0.029 A 
ATOM     22  C   UNL     1      46.117  18.492  19.210  0.00  0.00    +0.185 A 
ATOM     23  O   UNL     1      46.459  19.773  18.913  0.00  0.00    -0.286 OA
ATOM     24  O   UNL     1      44.791  19.022  22.504  0.00  0.00    -0.409 OA
ATOM     25  C   UNL     1      46.447  20.691  19.902  0.00  0.00    +0.507 C 
ATOM     26  O   UNL     1      47.346  21.488  20.027  0.00  0.00    -0.400 OA
ENDROOT
BRANCH  12  11
ATOM      3  C   UNL     1      43.769  22.429  19.851  0.00  0.00    +0.174 A 
ATOM      4  C   UNL     1      42.617  22.803  19.174  0.00  0.00    -0.038 A 
ATOM      5  C   UNL     1      41.706  21.841  18.774  0.00  0.00    +0.094 A 
ATOM      6  C   UNL     1      41.947  20.497  19.053  0.00  0.00    +0.003 A 
ATOM      7  O   UNL     1      40.912  19.756  18.561  0.00  0.00    -0.302 OA
ATOM      8  C   UNL     1      39.840  20.692  18.340  0.00  0.00    +0.439 C 
ATOM      9  C   UNL     1      43.098  20.128  19.729  0.00  0.00    +0.094 A 
ATOM     10  O   UNL     1      40.519  21.940  18.107  0.00  0.00    -0.302 OA
ATOM     11  C   UNL     1      44.010  21.092  20.123  0.00  0.00    -0.119 A 
BRANCH   3   2
ATOM      1  C   UNL     1      44.830  24.507  19.387  0.00  0.00    +0.255 C 
ATOM      2  O   UNL     1      44.663  23.375  20.244  0.00  0.00    -0.302 OA
ENDBRANCH   3   2
ENDBRANCH  12  11
TORSDOF 2
ENDMDL
MODEL 2
REMARK VINA RESULT:      -5.9      3.208      7.519
REMARK  Name = ZINC95486068
REMARK  3 active torsions:
REMARK  status: ('A' for Active; 'I' for Inactive)
REMARK    1  A    between atoms: C1_1  and  O1_2
REMARK    2  A    between atoms: O1_2  and  C2_3
REMARK    3  A    between atoms: C7_8  and  C8_9
REMARK                            x       y       z     vdW  Elec       q    Type
REMARK                         _______ _______ _______ _____ _____    ______ ____
ROOT
ATOM     12  C   UNL     1      47.668  17.196  18.835  0.00  0.00    +0.048 C 
ATOM     13  C   UNL     1      47.246  17.808  20.160  0.00  0.00    +0.417 C 
ATOM     14  C   UNL     1      46.541  19.100  20.096  0.00  0.00    -0.252 A 
ATOM     15  C   UNL     1      46.382  19.867  21.248  0.00  0.00    +0.192 A 
ATOM     16  C   UNL     1      45.707  21.078  21.174  0.00  0.00    -0.161 A 
ATOM     17  C   UNL     1      45.363  22.121  22.149  0.00  0.00    -0.027 A 
ATOM     18  C   UNL     1      44.692  23.060  21.470  0.00  0.00    +0.229 A 
ATOM     19  O   UNL     1      44.584  22.711  20.176  0.00  0.00    -0.185 OA
ATOM     20  C   UNL     1      45.183  21.526  19.944  0.00  0.00    +0.118 A 
ATOM     21  C   UNL     1      45.352  20.756  18.801  0.00  0.00    +0.029 A 
ATOM     22  C   UNL     1      46.029  19.553  18.863  0.00  0.00    +0.185 A 
ATOM     23  O   UNL     1      46.203  18.826  17.729  0.00  0.00    -0.286 OA
ATOM     24  O   UNL     1      47.477  17.260  21.217  0.00  0.00    -0.409 OA
ATOM     25  C   UNL     1      46.572  17.533  17.839  0.00  0.00    +0.507 C 
ATOM     26  O   UNL     1      46.049  16.672  17.172  0.00  0.00    -0.400 OA
ENDROOT
BRANCH  12  11
ATOM      3  C   UNL     1      49.759  17.122  17.455  0.00  0.00    +0.174 A 
ATOM      4  C   UNL     1      50.962  17.670  17.035  0.00  0.00    -0.038 A 
ATOM      5  C   UNL     1      51.385  18.884  17.548  0.00  0.00    +0.094 A 
ATOM      6  C   UNL     1      50.601  19.553  18.487  0.00  0.00    +0.003 A 
ATOM      7  O   UNL     1      51.230  20.715  18.833  0.00  0.00    -0.302 OA
ATOM      8  C   UNL     1      52.596  20.553  18.406  0.00  0.00    +0.439 C 
ATOM      9  C   UNL     1      49.401  19.001  18.902  0.00  0.00    +0.094 A 
ATOM     10  O   UNL     1      52.505  19.627  17.308  0.00  0.00    -0.302 OA
ATOM     11  C   UNL     1      48.978  17.791  18.384  0.00  0.00    -0.119 A 
BRANCH   3   2
ATOM      1  C   UNL     1      50.286  14.854  16.965  0.00  0.00    +0.255 C 
ATOM      2  O   UNL     1      49.344  15.929  16.950  0.00  0.00    -0.302 OA
ENDBRANCH   3   2
ENDBRANCH  12  11
TORSDOF 2
ENDMDL
MODEL 3
REMARK VINA RESULT:      -5.7      3.051      5.633
REMARK  Name = ZINC95486068
REMARK  3 active torsions:
REMARK  status: ('A' for Active; 'I' for Inactive)
REMARK    1  A    between atoms: C1_1  and  O1_2
REMARK    2  A    between atoms: O1_2  and  C2_3
REMARK    3  A    between atoms: C7_8  and  C8_9
REMARK                            x       y       z     vdW  Elec       q    Type
REMARK                         _______ _______ _______ _____ _____    ______ ____
ROOT
ATOM     12  C   UNL     1      46.295  15.979  19.036  0.00  0.00    +0.048 C 
ATOM     13  C   UNL     1      47.083  16.305  17.778  0.00  0.00    +0.417 C 
ATOM     14  C   UNL     1      48.394  16.950  17.970  0.00  0.00    -0.252 A 
ATOM     15  C   UNL     1      49.044  17.546  16.890  0.00  0.00    +0.192 A 
ATOM     16  C   UNL     1      50.283  18.141  17.085  0.00  0.00    -0.161 A 
ATOM     17  C   UNL     1      51.230  18.845  16.210  0.00  0.00    -0.027 A 
ATOM     18  C   UNL     1      52.267  19.189  16.983  0.00  0.00    +0.229 A 
ATOM     19  O   UNL     1      52.064  18.773  18.246  0.00  0.00    -0.185 OA
ATOM     20  C   UNL     1      50.880  18.140  18.361  0.00  0.00    +0.118 A 
ATOM     21  C   UNL     1      50.222  17.548  19.431  0.00  0.00    +0.029 A 
ATOM     22  C   UNL     1      48.984  16.959  19.249  0.00  0.00    +0.185 A 
ATOM     23  O   UNL     1      48.346  16.406  20.313  0.00  0.00    -0.286 OA
ATOM     24  O   UNL     1      46.655  16.047  16.673  0.00  0.00    -0.409 OA
ATOM     25  C   UNL     1      47.313  15.570  20.085  0.00  0.00    +0.507 C 
ATOM     26  O   UNL     1      47.201  14.531  20.692  0.00  0.00    -0.400 OA
ENDROOT
BRANCH  12  11
ATOM      3  C   UNL     1      44.589  17.077  20.507  0.00  0.00    +0.174 A 
ATOM      4  C   UNL     1      43.891  18.195  20.938  0.00  0.00    -0.038 A 
ATOM      5  C   UNL     1      44.133  19.429  20.358  0.00  0.00    +0.094 A 
ATOM      6  C   UNL     1      45.079  19.544  19.340  0.00  0.00    +0.003 A 
ATOM      7  O   UNL     1      45.132  20.848  18.938  0.00  0.00    -0.302 OA
ATOM      8  C   UNL     1      43.922  21.452  19.434  0.00  0.00    +0.439 C 
ATOM      9  C   UNL     1      45.773  18.424  18.913  0.00  0.00    +0.094 A 
ATOM     10  O   UNL     1      43.595  20.661  20.592  0.00  0.00    -0.302 OA
ATOM     11  C   UNL     1      45.533  17.194  19.499  0.00  0.00    -0.119 A 
BRANCH   3   2
ATOM      1  C   UNL     1      44.287  15.822  22.505  0.00  0.00    +0.255 C 
ATOM      2  O   UNL     1      44.351  15.866  21.078  0.00  0.00    -0.302 OA
ENDBRANCH   3   2
ENDBRANCH  12  11
TORSDOF 2
ENDMDL
MODEL 4
REMARK VINA RESULT:      -5.5      1.530      2.004
REMARK  Name = ZINC95486068
REMARK  3 active torsions:
REMARK  status: ('A' for Active; 'I' for Inactive)
REMARK    1  A    between atoms: C1_1  and  O1_2
REMARK    2  A    between atoms: O1_2  and  C2_3
REMARK    3  A    between atoms: C7_8  and  C8_9
REMARK                            x       y       z     vdW  Elec       q    Type
REMARK                         _______ _______ _______ _____ _____    ______ ____
ROOT
ATOM     12  C   UNL     1      47.127  19.328  20.822  0.00  0.00    +0.048 C 
ATOM     13  C   UNL     1      46.726  17.945  21.309  0.00  0.00    +0.417 C 
ATOM     14  C   UNL     1      46.540  16.911  20.276  0.00  0.00    -0.252 A 
ATOM     15  C   UNL     1      45.895  15.717  20.593  0.00  0.00    +0.192 A 
ATOM     16  C   UNL     1      45.737  14.747  19.612  0.00  0.00    -0.161 A 
ATOM     17  C   UNL     1      45.125  13.412  19.581  0.00  0.00    -0.027 A 
ATOM     18  C   UNL     1      45.289  12.955  18.333  0.00  0.00    +0.229 A 
ATOM     19  O   UNL     1      45.938  13.866  17.586  0.00  0.00    -0.185 OA
ATOM     20  C   UNL     1      46.226  14.966  18.309  0.00  0.00    +0.118 A 
ATOM     21  C   UNL     1      46.863  16.162  18.003  0.00  0.00    +0.029 A 
ATOM     22  C   UNL     1      47.019  17.137  18.971  0.00  0.00    +0.185 A 
ATOM     23  O   UNL     1      47.623  18.309  18.646  0.00  0.00    -0.286 OA
ATOM     24  O   UNL     1      46.567  17.706  22.487  0.00  0.00    -0.409 OA
ATOM     25  C   UNL     1      48.055  19.113  19.639  0.00  0.00    +0.507 C 
ATOM     26  O   UNL     1      49.140  19.642  19.592  0.00  0.00    -0.400 OA
ENDROOT
BRANCH  12  11
ATOM      3  C   UNL     1      45.921  21.486  20.410  0.00  0.00    +0.174 A 
ATOM      4  C   UNL     1      44.800  22.197  20.007  0.00  0.00    -0.038 A 
ATOM      5  C   UNL     1      43.665  21.523  19.591  0.00  0.00    +0.094 A 
ATOM      6  C   UNL     1      43.651  20.129  19.577  0.00  0.00    +0.003 A 
ATOM      7  O   UNL     1      42.431  19.709  19.131  0.00  0.00    -0.302 OA
ATOM      8  C   UNL     1      41.561  20.850  19.260  0.00  0.00    +0.439 C 
ATOM      9  C   UNL     1      44.772  19.423  19.979  0.00  0.00    +0.094 A 
ATOM     10  O   UNL     1      42.453  21.975  19.153  0.00  0.00    -0.302 OA
ATOM     11  C   UNL     1      45.907  20.100  20.390  0.00  0.00    -0.119 A 
BRANCH   3   2
ATOM      1  C   UNL     1      46.857  23.179  21.793  0.00  0.00    +0.255 C 
ATOM      2  O   UNL     1      47.035  22.148  20.819  0.00  0.00    -0.302 OA
ENDBRANCH   3   2
ENDBRANCH  12  11
TORSDOF 2
ENDMDL
MODEL 5
REMARK VINA RESULT:      -5.5      2.941      6.481
REMARK  Name = ZINC95486068
REMARK  3 active torsions:
REMARK  status: ('A' for Active; 'I' for Inactive)
REMARK    1  A    between atoms: C1_1  and  O1_2
REMARK    2  A    between atoms: O1_2  and  C2_3
REMARK    3  A    between atoms: C7_8  and  C8_9
REMARK                            x       y       z     vdW  Elec       q    Type
REMARK                         _______ _______ _______ _____ _____    ______ ____
ROOT
ATOM     12  C   UNL     1      47.941  17.081  18.373  0.00  0.00    +0.048 C 
ATOM     13  C   UNL     1      47.009  16.586  19.467  0.00  0.00    +0.417 C 
ATOM     14  C   UNL     1      45.789  17.377  19.702  0.00  0.00    -0.252 A 
ATOM     15  C   UNL     1      45.039  17.176  20.859  0.00  0.00    +0.192 A 
ATOM     16  C   UNL     1      43.885  17.922  21.062  0.00  0.00    -0.161 A 
ATOM     17  C   UNL     1      42.879  17.982  22.131  0.00  0.00    -0.027 A 
ATOM     18  C   UNL     1      41.988  18.906  21.752  0.00  0.00    +0.229 A 
ATOM     19  O   UNL     1      42.335  19.428  20.561  0.00  0.00    -0.185 OA
ATOM     20  C   UNL     1      43.474  18.871  20.105  0.00  0.00    +0.118 A 
ATOM     21  C   UNL     1      44.232  19.067  18.957  0.00  0.00    +0.029 A 
ATOM     22  C   UNL     1      45.386  18.334  18.750  0.00  0.00    +0.185 A 
ATOM     23  O   UNL     1      46.125  18.557  17.633  0.00  0.00    -0.286 OA
ATOM     24  O   UNL     1      47.258  15.590  20.113  0.00  0.00    -0.409 OA
ATOM     25  C   UNL     1      47.053  17.645  17.278  0.00  0.00    +0.507 C 
ATOM     26  O   UNL     1      47.174  17.287  16.130  0.00  0.00    -0.400 OA
ENDROOT
BRANCH  12  11
ATOM      3  C   UNL     1      49.985  18.522  18.210  0.00  0.00    +0.174 A 
ATOM      4  C   UNL     1      50.816  19.517  18.703  0.00  0.00    -0.038 A 
ATOM      5  C   UNL     1      50.511  20.145  19.899  0.00  0.00    +0.094 A 
ATOM      6  C   UNL     1      49.368  19.774  20.606  0.00  0.00    +0.003 A 
ATOM      7  O   UNL     1      49.292  20.532  21.739  0.00  0.00    -0.302 OA
ATOM      8  C   UNL     1      50.610  21.082  21.924  0.00  0.00    +0.439 C 
ATOM      9  C   UNL     1      48.542  18.780  20.110  0.00  0.00    +0.094 A 
ATOM     10  O   UNL     1      51.149  21.134  20.590  0.00  0.00    -0.302 OA
ATOM     11  C   UNL     1      48.846  18.159  18.912  0.00  0.00    -0.119 A 
BRANCH   3   2
ATOM      1  C   UNL     1      51.242  18.549  16.191  0.00  0.00    +0.255 C 
ATOM      2  O   UNL     1      50.285  17.906  17.036  0.00  0.00    -0.302 OA
ENDBRANCH   3   2
ENDBRANCH  12  11
TORSDOF 2
ENDMDL
MODEL 6
REMARK VINA RESULT:      -5.3      4.227      7.746
REMARK  Name = ZINC95486068
REMARK  3 active torsions:
REMARK  status: ('A' for Active; 'I' for Inactive)
REMARK    1  A    between atoms: C1_1  and  O1_2
REMARK    2  A    between atoms: O1_2  and  C2_3
REMARK    3  A    between atoms: C7_8  and  C8_9
REMARK                            x       y       z     vdW  Elec       q    Type
REMARK                         _______ _______ _______ _____ _____    ______ ____
ROOT
ATOM     12  C   UNL     1      50.062  19.421  21.516  0.00  0.00    +0.048 C 
ATOM     13  C   UNL     1      49.312  20.717  21.773  0.00  0.00    +0.417 C 
ATOM     14  C   UNL     1      47.950  20.812  21.219  0.00  0.00    -0.252 A 
ATOM     15  C   UNL     1      47.310  22.048  21.148  0.00  0.00    +0.192 A 
ATOM     16  C   UNL     1      46.023  22.121  20.633  0.00  0.00    -0.161 A 
ATOM     17  C   UNL     1      45.070  23.215  20.407  0.00  0.00    -0.027 A 
ATOM     18  C   UNL     1      43.974  22.654  19.880  0.00  0.00    +0.229 A 
ATOM     19  O   UNL     1      44.147  21.326  19.754  0.00  0.00    -0.185 OA
ATOM     20  C   UNL     1      45.367  20.954  20.189  0.00  0.00    +0.118 A 
ATOM     21  C   UNL     1      46.016  19.728  20.261  0.00  0.00    +0.029 A 
ATOM     22  C   UNL     1      47.301  19.647  20.765  0.00  0.00    +0.185 A 
ATOM     23  O   UNL     1      47.927  18.442  20.804  0.00  0.00    -0.286 OA
ATOM     24  O   UNL     1      49.809  21.627  22.402  0.00  0.00    -0.409 OA
ATOM     25  C   UNL     1      49.028  18.310  21.572  0.00  0.00    +0.507 C 
ATOM     26  O   UNL     1      49.187  17.344  22.279  0.00  0.00    -0.400 OA
ENDROOT
BRANCH  12  11
ATOM      3  C   UNL     1      51.619  18.476  19.795  0.00  0.00    +0.174 A 
ATOM      4  C   UNL     1      52.212  18.506  18.542  0.00  0.00    -0.038 A 
ATOM      5  C   UNL     1      51.900  19.520  17.653  0.00  0.00    +0.094 A 
ATOM      6  C   UNL     1      50.990  20.510  18.019  0.00  0.00    +0.003 A 
ATOM      7  O   UNL     1      50.855  21.385  16.980  0.00  0.00    -0.302 OA
ATOM      8  C   UNL     1      51.994  21.152  16.131  0.00  0.00    +0.439 C 
ATOM      9  C   UNL     1      50.401  20.475  19.272  0.00  0.00    +0.094 A 
ATOM     10  O   UNL     1      52.334  19.776  16.384  0.00  0.00    -0.302 OA
ATOM     11  C   UNL     1      50.710  19.457  20.156  0.00  0.00    -0.119 A 
BRANCH   3   2
ATOM      1  C   UNL     1      53.282  17.028  20.688  0.00  0.00    +0.255 C 
ATOM      2  O   UNL     1      51.926  17.479  20.668  0.00  0.00    -0.302 OA
ENDBRANCH   3   2
ENDBRANCH  12  11
TORSDOF 2
ENDMDL
MODEL 7
REMARK VINA RESULT:      -5.3      4.111      8.028
REMARK  Name = ZINC95486068
REMARK  3 active torsions:
REMARK  status: ('A' for Active; 'I' for Inactive)
REMARK    1  A    between atoms: C1_1  and  O1_2
REMARK    2  A    between atoms: O1_2  and  C2_3
REMARK    3  A    between atoms: C7_8  and  C8_9
REMARK                            x       y       z     vdW  Elec       q    Type
REMARK                         _______ _______ _______ _____ _____    ______ ____
ROOT
ATOM     12  C   UNL     1      46.752  12.423  18.231  0.00  0.00    +0.048 C 
ATOM     13  C   UNL     1      46.824  12.143  16.740  0.00  0.00    +0.417 C 
ATOM     14  C   UNL     1      48.101  12.453  16.072  0.00  0.00    -0.252 A 
ATOM     15  C   UNL     1      48.165  12.510  14.680  0.00  0.00    +0.192 A 
ATOM     16  C   UNL     1      49.377  12.793  14.065  0.00  0.00    -0.161 A 
ATOM     17  C   UNL     1      49.808  12.934  12.668  0.00  0.00    -0.027 A 
ATOM     18  C   UNL     1      51.117  13.211  12.708  0.00  0.00    +0.229 A 
ATOM     19  O   UNL     1      51.544  13.257  13.982  0.00  0.00    -0.185 OA
ATOM     20  C   UNL     1      50.533  13.017  14.839  0.00  0.00    +0.118 A 
ATOM     21  C   UNL     1      50.456  12.962  16.225  0.00  0.00    +0.029 A 
ATOM     22  C   UNL     1      49.253  12.689  16.847  0.00  0.00    +0.185 A 
ATOM     23  O   UNL     1      49.194  12.663  18.204  0.00  0.00    -0.286 OA
ATOM     24  O   UNL     1      45.880  11.688  16.130  0.00  0.00    -0.409 OA
ATOM     25  C   UNL     1      48.123  12.095  18.796  0.00  0.00    +0.507 C 
ATOM     26  O   UNL     1      48.249  11.350  19.739  0.00  0.00    -0.400 OA
ENDROOT
BRANCH  12  11
ATOM      3  C   UNL     1      45.663  14.241  19.569  0.00  0.00    +0.174 A 
ATOM      4  C   UNL     1      45.368  15.578  19.793  0.00  0.00    -0.038 A 
ATOM      5  C   UNL     1      45.831  16.545  18.918  0.00  0.00    +0.094 A 
ATOM      6  C   UNL     1      46.594  16.174  17.812  0.00  0.00    +0.003 A 
ATOM      7  O   UNL     1      46.925  17.300  17.113  0.00  0.00    -0.302 OA
ATOM      8  C   UNL     1      46.017  18.319  17.573  0.00  0.00    +0.439 C 
ATOM      9  C   UNL     1      46.886  14.839  17.593  0.00  0.00    +0.094 A 
ATOM     10  O   UNL     1      45.685  17.903  18.911  0.00  0.00    -0.302 OA
ATOM     11  C   UNL     1      46.427  13.874  18.472  0.00  0.00    -0.119 A 
BRANCH   3   2
ATOM      1  C   UNL     1      45.404  13.530  21.824  0.00  0.00    +0.255 C 
ATOM      2  O   UNL     1      45.208  13.291  20.428  0.00  0.00    -0.302 OA
ENDBRANCH   3   2
ENDBRANCH  12  11
TORSDOF 2
ENDMDL
MODEL 8
REMARK VINA RESULT:      -5.2      7.643     11.424
REMARK  Name = ZINC95486068
REMARK  3 active torsions:
REMARK  status: ('A' for Active; 'I' for Inactive)
REMARK    1  A    between atoms: C1_1  and  O1_2
REMARK    2  A    between atoms: O1_2  and  C2_3
REMARK    3  A    between atoms: C7_8  and  C8_9
REMARK                            x       y       z     vdW  Elec       q    Type
REMARK                         _______ _______ _______ _____ _____    ______ ____
ROOT
ATOM     12  C   UNL     1      51.489  14.604  19.059  0.00  0.00    +0.048 C 
ATOM     13  C   UNL     1      51.093  16.034  19.389  0.00  0.00    +0.417 C 
ATOM     14  C   UNL     1      51.320  17.040  18.337  0.00  0.00    -0.252 A 
ATOM     15  C   UNL     1      51.268  18.398  18.647  0.00  0.00    +0.192 A 
ATOM     16  C   UNL     1      51.474  19.335  17.643  0.00  0.00    -0.161 A 
ATOM     17  C   UNL     1      51.497  20.803  17.601  0.00  0.00    -0.027 A 
ATOM     18  C   UNL     1      51.746  21.136  16.328  0.00  0.00    +0.229 A 
ATOM     19  O   UNL     1      51.881  20.029  15.576  0.00  0.00    -0.185 OA
ATOM     20  C   UNL     1      51.731  18.917  16.322  0.00  0.00    +0.118 A 
ATOM     21  C   UNL     1      51.785  17.561  16.025  0.00  0.00    +0.029 A 
ATOM     22  C   UNL     1      51.589  16.621  17.019  0.00  0.00    +0.185 A 
ATOM     23  O   UNL     1      51.669  15.300  16.713  0.00  0.00    -0.286 OA
ATOM     24  O   UNL     1      50.614  16.331  20.463  0.00  0.00    -0.409 OA
ATOM     25  C   UNL     1      51.173  14.401  17.588  0.00  0.00    +0.507 C 
ATOM     26  O   UNL     1      50.501  13.468  17.216  0.00  0.00    -0.400 OA
ENDROOT
BRANCH  12  11
ATOM      3  C   UNL     1      53.500  13.127  19.287  0.00  0.00    +0.174 A 
ATOM      4  C   UNL     1      54.857  12.942  19.509  0.00  0.00    -0.038 A 
ATOM      5  C   UNL     1      55.673  14.033  19.754  0.00  0.00    +0.094 A 
ATOM      6  C   UNL     1      55.129  15.316  19.778  0.00  0.00    +0.003 A 
ATOM      7  O   UNL     1      56.129  16.209  20.036  0.00  0.00    -0.302 OA
ATOM      8  C   UNL     1      57.212  15.428  20.575  0.00  0.00    +0.439 C 
ATOM      9  C   UNL     1      53.774  15.495  19.556  0.00  0.00    +0.094 A 
ATOM     10  O   UNL     1      57.013  14.124  19.998  0.00  0.00    -0.302 OA
ATOM     11  C   UNL     1      52.962  14.404  19.306  0.00  0.00    -0.119 A 
BRANCH   3   2
ATOM      1  C   UNL     1      53.291  10.760  19.173  0.00  0.00    +0.255 C 
ATOM      2  O   UNL     1      52.699  12.055  19.047  0.00  0.00    -0.302 OA
ENDBRANCH   3   2
ENDBRANCH  12  11
TORSDOF 2
ENDMDL
MODEL 9
REMARK VINA RESULT:      -5.2      4.585      6.616
REMARK  Name = ZINC95486068
REMARK  3 active torsions:
REMARK  status: ('A' for Active; 'I' for Inactive)
REMARK    1  A    between atoms: C1_1  and  O1_2
REMARK    2  A    between atoms: O1_2  and  C2_3
REMARK    3  A    between atoms: C7_8  and  C8_9
REMARK                            x       y       z     vdW  Elec       q    Type
REMARK                         _______ _______ _______ _____ _____    ______ ____
ROOT
ATOM     12  C   UNL     1      47.752  18.026  19.300  0.00  0.00    +0.048 C 
ATOM     13  C   UNL     1      47.073  17.188  18.230  0.00  0.00    +0.417 C 
ATOM     14  C   UNL     1      47.661  15.865  17.957  0.00  0.00    -0.252 A 
ATOM     15  C   UNL     1      47.297  15.162  16.810  0.00  0.00    +0.192 A 
ATOM     16  C   UNL     1      47.852  13.912  16.571  0.00  0.00    -0.161 A 
ATOM     17  C   UNL     1      47.711  12.916  15.500  0.00  0.00    -0.027 A 
ATOM     18  C   UNL     1      48.509  11.894  15.834  0.00  0.00    +0.229 A 
ATOM     19  O   UNL     1      49.131  12.150  16.999  0.00  0.00    -0.185 OA
ATOM     20  C   UNL     1      48.772  13.356  17.482  0.00  0.00    +0.118 A 
ATOM     21  C   UNL     1      49.132  14.067  18.620  0.00  0.00    +0.029 A 
ATOM     22  C   UNL     1      48.590  15.316  18.863  0.00  0.00    +0.185 A 
ATOM     23  O   UNL     1      48.973  16.005  19.969  0.00  0.00    -0.286 OA
ATOM     24  O   UNL     1      46.097  17.587  17.632  0.00  0.00    -0.409 OA
ATOM     25  C   UNL     1      48.226  17.056  20.368  0.00  0.00    +0.507 C 
ATOM     26  O   UNL     1      47.944  17.219  21.531  0.00  0.00    -0.400 OA
ENDROOT
BRANCH  12  11
ATOM      3  C   UNL     1      49.276  20.013  19.202  0.00  0.00    +0.174 A 
ATOM      4  C   UNL     1      50.360  20.692  18.665  0.00  0.00    -0.038 A 
ATOM      5  C   UNL     1      51.091  20.123  17.636  0.00  0.00    +0.094 A 
ATOM      6  C   UNL     1      50.735  18.870  17.141  0.00  0.00    +0.003 A 
ATOM      7  O   UNL     1      51.602  18.534  16.141  0.00  0.00    -0.302 OA
ATOM      8  C   UNL     1      52.238  19.766  15.753  0.00  0.00    +0.439 C 
ATOM      9  C   UNL     1      49.652  18.197  17.680  0.00  0.00    +0.094 A 
ATOM     10  O   UNL     1      52.180  20.571  16.945  0.00  0.00    -0.302 OA
ATOM     11  C   UNL     1      48.927  18.764  18.713  0.00  0.00    -0.119 A 
BRANCH   3   2
ATOM      1  C   UNL     1      49.233  20.772  21.456  0.00  0.00    +0.255 C 
ATOM      2  O   UNL     1      48.558  20.572  20.213  0.00  0.00    -0.302 OA
ENDBRANCH   3   2
ENDBRANCH  12  11
TORSDOF 2
ENDMDL
