MODEL 1
REMARK VINA RESULT:      -6.2      0.000      0.000
REMARK  Name = ZINC95486330
REMARK  10 active torsions:
REMARK  status: ('A' for Active; 'I' for Inactive)
REMARK    1  A    between atoms: C1_1  and  C2_2
REMARK    2  A    between atoms: C2_2  and  C23_30
REMARK    3  A    between atoms: C10_10  and  O1_11
REMARK    4  A    between atoms: C12_14  and  C14_17
REMARK    5  A    between atoms: C16_19  and  O6_27
REMARK    6  A    between atoms: C17_20  and  O5_25
REMARK    7  A    between atoms: C19_22  and  O4_23
REMARK    8  A    between atoms: O4_23  and  C20_24
REMARK    9  A    between atoms: O5_25  and  C21_26
REMARK   10  A    between atoms: O6_27  and  C22_28
REMARK                            x       y       z     vdW  Elec       q    Type
REMARK                         _______ _______ _______ _____ _____    ______ ____
ROOT
ATOM      1  C   UNL     1      45.507  11.621  16.500  0.00  0.00    +0.039 C 
ATOM      2  C   UNL     1      46.877  11.695  17.177  0.00  0.00    +0.146 C 
ATOM      3  C   UNL     1      47.408  10.278  17.398  0.00  0.00    +0.088 C 
ATOM      4  C   UNL     1      47.830  12.448  16.287  0.00  0.00    -0.049 C 
ATOM      5  C   UNL     1      47.930  13.773  16.390  0.00  0.00    +0.057 C 
ATOM      6  C   UNL     1      47.095  14.457  17.398  0.00  0.00    -0.190 A 
ATOM      7  C   UNL     1      46.512  13.687  18.421  0.00  0.00    +0.211 A 
ATOM      8  C   UNL     1      45.721  14.285  19.383  0.00  0.00    -0.025 A 
ATOM      9  C   UNL     1      45.496  15.657  19.349  0.00  0.00    +0.196 A 
ATOM     10  C   UNL     1      46.084  16.430  18.330  0.00  0.00    -0.277 A 
ATOM     11  C   UNL     1      45.839  17.883  18.335  0.00  0.00    +0.436 A 
ATOM     12  C   UNL     1      45.237  18.434  19.565  0.00  0.00    -0.218 A 
ATOM     25  C   UNL     1      44.718  17.563  20.469  0.00  0.00    +0.329 A 
ATOM     26  O   UNL     1      46.119  18.589  17.380  0.00  0.00    -0.440 OA
ATOM     27  O   UNL     1      44.718  16.241  20.281  0.00  0.00    -0.213 OA
ATOM     28  C   UNL     1      46.881  15.832  17.348  0.00  0.00    +0.245 A 
ATOM     31  O   UNL     1      46.744  12.350  18.440  0.00  0.00    -0.295 OA
ENDROOT
BRANCH  12  13
ATOM     13  C   UNL     1      45.199  19.896  19.807  0.00  0.00    -0.059 A 
ATOM     14  C   UNL     1      46.210  20.508  20.549  0.00  0.00    +0.032 A 
ATOM     15  C   UNL     1      46.171  21.871  20.773  0.00  0.00    +0.067 A 
ATOM     18  C   UNL     1      45.126  22.634  20.259  0.00  0.00    +0.149 A 
ATOM     21  C   UNL     1      44.121  22.031  19.521  0.00  0.00    -0.117 A 
ATOM     22  C   UNL     1      44.155  20.666  19.288  0.00  0.00    +0.152 A 
BRANCH  15  16
ATOM     16  O   UNL     1      47.156  22.470  21.497  0.00  0.00    -0.305 OA
ATOM     17  C   UNL     1      48.204  21.629  21.985  0.00  0.00    +0.236 C 
ENDBRANCH  15  16
BRANCH  18  19
ATOM     19  O   UNL     1      45.093  23.976  20.480  0.00  0.00    -0.300 OA
ATOM     20  C   UNL     1      44.722  24.807  19.377  0.00  0.00    +0.239 C 
ENDBRANCH  18  19
BRANCH  22  23
ATOM     23  O   UNL     1      43.171  20.074  18.559  0.00  0.00    -0.307 OA
ATOM     24  C   UNL     1      41.840  20.168  19.070  0.00  0.00    +0.240 C 
ENDBRANCH  22  23
ENDBRANCH  12  13
BRANCH  28  29
ATOM     29  O   UNL     1      47.437  16.579  16.362  0.00  0.00    -0.472 OA
ATOM     30  H   UNL     1      46.796  16.937  15.731  0.00  0.00    +0.405 HD
ENDBRANCH  28  29
TORSDOF 5
ENDMDL
MODEL 2
REMARK VINA RESULT:      -6.2      1.038      2.386
REMARK  Name = ZINC95486330
REMARK  10 active torsions:
REMARK  status: ('A' for Active; 'I' for Inactive)
REMARK    1  A    between atoms: C1_1  and  C2_2
REMARK    2  A    between atoms: C2_2  and  C23_30
REMARK    3  A    between atoms: C10_10  and  O1_11
REMARK    4  A    between atoms: C12_14  and  C14_17
REMARK    5  A    between atoms: C16_19  and  O6_27
REMARK    6  A    between atoms: C17_20  and  O5_25
REMARK    7  A    between atoms: C19_22  and  O4_23
REMARK    8  A    between atoms: O4_23  and  C20_24
REMARK    9  A    between atoms: O5_25  and  C21_26
REMARK   10  A    between atoms: O6_27  and  C22_28
REMARK                            x       y       z     vdW  Elec       q    Type
REMARK                         _______ _______ _______ _____ _____    ______ ____
ROOT
ATOM      1  C   UNL     1      45.257  11.774  16.573  0.00  0.00    +0.039 C 
ATOM      2  C   UNL     1      46.661  11.847  17.176  0.00  0.00    +0.146 C 
ATOM      3  C   UNL     1      47.209  10.430  17.352  0.00  0.00    +0.088 C 
ATOM      4  C   UNL     1      47.561  12.615  16.244  0.00  0.00    -0.049 C 
ATOM      5  C   UNL     1      47.662  13.938  16.356  0.00  0.00    +0.057 C 
ATOM      6  C   UNL     1      46.880  14.608  17.416  0.00  0.00    -0.190 A 
ATOM      7  C   UNL     1      46.356  13.824  18.460  0.00  0.00    +0.211 A 
ATOM      8  C   UNL     1      45.617  14.408  19.470  0.00  0.00    -0.025 A 
ATOM      9  C   UNL     1      45.385  15.779  19.463  0.00  0.00    +0.196 A 
ATOM     10  C   UNL     1      45.914  16.566  18.423  0.00  0.00    -0.277 A 
ATOM     11  C   UNL     1      45.664  18.018  18.457  0.00  0.00    +0.436 A 
ATOM     12  C   UNL     1      45.127  18.552  19.724  0.00  0.00    -0.218 A 
ATOM     25  C   UNL     1      44.661  17.669  20.645  0.00  0.00    +0.329 A 
ATOM     26  O   UNL     1      45.889  18.736  17.497  0.00  0.00    -0.440 OA
ATOM     27  O   UNL     1      44.656  16.349  20.443  0.00  0.00    -0.213 OA
ATOM     28  C   UNL     1      46.658  15.982  17.392  0.00  0.00    +0.245 A 
ATOM     31  O   UNL     1      46.594  12.488  18.451  0.00  0.00    -0.295 OA
ENDROOT
BRANCH  12  13
ATOM     13  C   UNL     1      45.097  20.011  19.985  0.00  0.00    -0.059 A 
ATOM     14  C   UNL     1      43.970  20.759  19.641  0.00  0.00    +0.032 A 
ATOM     15  C   UNL     1      43.945  22.119  19.886  0.00  0.00    +0.067 A 
ATOM     18  C   UNL     1      45.040  22.743  20.476  0.00  0.00    +0.149 A 
ATOM     21  C   UNL     1      46.161  22.005  20.819  0.00  0.00    -0.117 A 
ATOM     22  C   UNL     1      46.192  20.641  20.581  0.00  0.00    +0.152 A 
BRANCH  15  16
ATOM     16  O   UNL     1      42.846  22.849  19.551  0.00  0.00    -0.305 OA
ATOM     17  C   UNL     1      41.797  22.164  18.865  0.00  0.00    +0.236 C 
ENDBRANCH  15  16
BRANCH  18  19
ATOM     19  O   UNL     1      45.011  24.082  20.716  0.00  0.00    -0.300 OA
ATOM     20  C   UNL     1      46.248  24.705  21.071  0.00  0.00    +0.239 C 
ENDBRANCH  18  19
BRANCH  22  23
ATOM     23  O   UNL     1      47.290  19.914  20.924  0.00  0.00    -0.307 OA
ATOM     24  C   UNL     1      48.444  20.053  20.093  0.00  0.00    +0.240 C 
ENDBRANCH  22  23
ENDBRANCH  12  13
BRANCH  28  29
ATOM     29  O   UNL     1      47.157  16.742  16.386  0.00  0.00    -0.472 OA
ATOM     30  H   UNL     1      47.820  16.292  15.845  0.00  0.00    +0.405 HD
ENDBRANCH  28  29
TORSDOF 5
ENDMDL
MODEL 3
REMARK VINA RESULT:      -5.4      2.465      4.514
REMARK  Name = ZINC95486330
REMARK  10 active torsions:
REMARK  status: ('A' for Active; 'I' for Inactive)
REMARK    1  A    between atoms: C1_1  and  C2_2
REMARK    2  A    between atoms: C2_2  and  C23_30
REMARK    3  A    between atoms: C10_10  and  O1_11
REMARK    4  A    between atoms: C12_14  and  C14_17
REMARK    5  A    between atoms: C16_19  and  O6_27
REMARK    6  A    between atoms: C17_20  and  O5_25
REMARK    7  A    between atoms: C19_22  and  O4_23
REMARK    8  A    between atoms: O4_23  and  C20_24
REMARK    9  A    between atoms: O5_25  and  C21_26
REMARK   10  A    between atoms: O6_27  and  C22_28
REMARK                            x       y       z     vdW  Elec       q    Type
REMARK                         _______ _______ _______ _____ _____    ______ ____
ROOT
ATOM      1  C   UNL     1      50.793  10.686  16.319  0.00  0.00    +0.039 C 
ATOM      2  C   UNL     1      50.393  11.474  15.070  0.00  0.00    +0.146 C 
ATOM      3  C   UNL     1      51.402  11.196  13.954  0.00  0.00    +0.088 C 
ATOM      4  C   UNL     1      49.025  11.032  14.621  0.00  0.00    -0.049 C 
ATOM      5  C   UNL     1      47.939  11.635  15.105  0.00  0.00    +0.057 C 
ATOM      6  C   UNL     1      48.128  12.738  16.069  0.00  0.00    -0.190 A 
ATOM      7  C   UNL     1      49.400  13.333  16.167  0.00  0.00    +0.211 A 
ATOM      8  C   UNL     1      49.621  14.366  17.057  0.00  0.00    -0.025 A 
ATOM      9  C   UNL     1      48.587  14.828  17.863  0.00  0.00    +0.196 A 
ATOM     10  C   UNL     1      47.312  14.239  17.761  0.00  0.00    -0.277 A 
ATOM     11  C   UNL     1      46.235  14.766  18.617  0.00  0.00    +0.436 A 
ATOM     12  C   UNL     1      46.516  16.046  19.295  0.00  0.00    -0.218 A 
ATOM     25  C   UNL     1      47.796  16.500  19.303  0.00  0.00    +0.329 A 
ATOM     26  O   UNL     1      45.174  14.180  18.756  0.00  0.00    -0.440 OA
ATOM     27  O   UNL     1      48.804  15.830  18.738  0.00  0.00    -0.213 OA
ATOM     28  C   UNL     1      47.080  13.188  16.867  0.00  0.00    +0.245 A 
ATOM     31  O   UNL     1      50.397  12.870  15.372  0.00  0.00    -0.295 OA
ENDROOT
BRANCH  12  13
ATOM     13  C   UNL     1      45.431  16.816  19.951  0.00  0.00    -0.059 A 
ATOM     14  C   UNL     1      44.828  17.881  19.283  0.00  0.00    +0.032 A 
ATOM     15  C   UNL     1      43.817  18.597  19.897  0.00  0.00    +0.067 A 
ATOM     18  C   UNL     1      43.400  18.255  21.180  0.00  0.00    +0.149 A 
ATOM     21  C   UNL     1      43.996  17.197  21.847  0.00  0.00    -0.117 A 
ATOM     22  C   UNL     1      45.006  16.473  21.237  0.00  0.00    +0.152 A 
BRANCH  15  16
ATOM     16  O   UNL     1      43.228  19.637  19.245  0.00  0.00    -0.305 OA
ATOM     17  C   UNL     1      43.925  20.884  19.251  0.00  0.00    +0.236 C 
ENDBRANCH  15  16
BRANCH  18  19
ATOM     19  O   UNL     1      42.403  18.961  21.780  0.00  0.00    -0.300 OA
ATOM     20  C   UNL     1      41.064  18.661  21.380  0.00  0.00    +0.239 C 
ENDBRANCH  18  19
BRANCH  22  23
ATOM     23  O   UNL     1      45.587  15.431  21.890  0.00  0.00    -0.307 OA
ATOM     24  C   UNL     1      44.713  14.452  22.456  0.00  0.00    +0.240 C 
ENDBRANCH  22  23
ENDBRANCH  12  13
BRANCH  28  29
ATOM     29  O   UNL     1      45.854  12.616  16.780  0.00  0.00    -0.472 OA
ATOM     30  H   UNL     1      45.856  11.658  16.915  0.00  0.00    +0.405 HD
ENDBRANCH  28  29
TORSDOF 5
ENDMDL
MODEL 4
REMARK VINA RESULT:      -5.3      3.271      7.809
REMARK  Name = ZINC95486330
REMARK  10 active torsions:
REMARK  status: ('A' for Active; 'I' for Inactive)
REMARK    1  A    between atoms: C1_1  and  C2_2
REMARK    2  A    between atoms: C2_2  and  C23_30
REMARK    3  A    between atoms: C10_10  and  O1_11
REMARK    4  A    between atoms: C12_14  and  C14_17
REMARK    5  A    between atoms: C16_19  and  O6_27
REMARK    6  A    between atoms: C17_20  and  O5_25
REMARK    7  A    between atoms: C19_22  and  O4_23
REMARK    8  A    between atoms: O4_23  and  C20_24
REMARK    9  A    between atoms: O5_25  and  C21_26
REMARK   10  A    between atoms: O6_27  and  C22_28
REMARK                            x       y       z     vdW  Elec       q    Type
REMARK                         _______ _______ _______ _____ _____    ______ ____
ROOT
ATOM      1  C   UNL     1      40.618  19.367  17.828  0.00  0.00    +0.039 C 
ATOM      2  C   UNL     1      41.019  20.361  18.920  0.00  0.00    +0.146 C 
ATOM      3  C   UNL     1      40.131  21.603  18.821  0.00  0.00    +0.088 C 
ATOM      4  C   UNL     1      40.827  19.720  20.268  0.00  0.00    -0.049 C 
ATOM      5  C   UNL     1      41.818  19.021  20.820  0.00  0.00    +0.057 C 
ATOM      6  C   UNL     1      43.090  18.913  20.076  0.00  0.00    -0.190 A 
ATOM      7  C   UNL     1      43.329  19.812  19.021  0.00  0.00    +0.211 A 
ATOM      8  C   UNL     1      44.503  19.744  18.297  0.00  0.00    -0.025 A 
ATOM      9  C   UNL     1      45.462  18.786  18.608  0.00  0.00    +0.196 A 
ATOM     10  C   UNL     1      45.228  17.890  19.668  0.00  0.00    -0.277 A 
ATOM     11  C   UNL     1      46.273  16.900  19.981  0.00  0.00    +0.436 A 
ATOM     12  C   UNL     1      47.585  17.120  19.344  0.00  0.00    -0.218 A 
ATOM     25  C   UNL     1      47.664  18.029  18.338  0.00  0.00    +0.329 A 
ATOM     26  O   UNL     1      46.066  15.955  20.724  0.00  0.00    -0.440 OA
ATOM     27  O   UNL     1      46.604  18.713  17.897  0.00  0.00    -0.213 OA
ATOM     28  C   UNL     1      44.038  17.947  20.402  0.00  0.00    +0.245 A 
ATOM     31  O   UNL     1      42.383  20.741  18.733  0.00  0.00    -0.295 OA
ENDROOT
BRANCH  12  13
ATOM     13  C   UNL     1      48.785  16.371  19.788  0.00  0.00    -0.059 A 
ATOM     14  C   UNL     1      49.612  16.900  20.779  0.00  0.00    +0.032 A 
ATOM     15  C   UNL     1      50.730  16.198  21.191  0.00  0.00    +0.067 A 
ATOM     18  C   UNL     1      51.030  14.965  20.619  0.00  0.00    +0.149 A 
ATOM     21  C   UNL     1      50.211  14.436  19.635  0.00  0.00    -0.117 A 
ATOM     22  C   UNL     1      49.087  15.130  19.220  0.00  0.00    +0.152 A 
BRANCH  15  16
ATOM     16  O   UNL     1      51.538  16.714  22.157  0.00  0.00    -0.305 OA
ATOM     17  C   UNL     1      52.273  17.893  21.827  0.00  0.00    +0.236 C 
ENDBRANCH  15  16
BRANCH  18  19
ATOM     19  O   UNL     1      52.130  14.277  21.029  0.00  0.00    -0.300 OA
ATOM     20  C   UNL     1      53.271  14.306  20.168  0.00  0.00    +0.239 C 
ENDBRANCH  18  19
BRANCH  22  23
ATOM     23  O   UNL     1      48.280  14.608  18.259  0.00  0.00    -0.307 OA
ATOM     24  C   UNL     1      48.814  14.531  16.935  0.00  0.00    +0.240 C 
ENDBRANCH  22  23
ENDBRANCH  12  13
BRANCH  28  29
ATOM     29  O   UNL     1      43.812  17.074  21.416  0.00  0.00    -0.472 OA
ATOM     30  H   UNL     1      42.877  16.872  21.558  0.00  0.00    +0.405 HD
ENDBRANCH  28  29
TORSDOF 5
ENDMDL
MODEL 5
REMARK VINA RESULT:      -5.3      1.434      3.348
REMARK  Name = ZINC95486330
REMARK  10 active torsions:
REMARK  status: ('A' for Active; 'I' for Inactive)
REMARK    1  A    between atoms: C1_1  and  C2_2
REMARK    2  A    between atoms: C2_2  and  C23_30
REMARK    3  A    between atoms: C10_10  and  O1_11
REMARK    4  A    between atoms: C12_14  and  C14_17
REMARK    5  A    between atoms: C16_19  and  O6_27
REMARK    6  A    between atoms: C17_20  and  O5_25
REMARK    7  A    between atoms: C19_22  and  O4_23
REMARK    8  A    between atoms: O4_23  and  C20_24
REMARK    9  A    between atoms: O5_25  and  C21_26
REMARK   10  A    between atoms: O6_27  and  C22_28
REMARK                            x       y       z     vdW  Elec       q    Type
REMARK                         _______ _______ _______ _____ _____    ______ ____
ROOT
ATOM      1  C   UNL     1      48.924  11.172  17.567  0.00  0.00    +0.039 C 
ATOM      2  C   UNL     1      47.858  11.363  16.487  0.00  0.00    +0.146 C 
ATOM      3  C   UNL     1      48.085  10.344  15.368  0.00  0.00    +0.088 C 
ATOM      4  C   UNL     1      46.496  11.141  17.090  0.00  0.00    -0.049 C 
ATOM      5  C   UNL     1      45.837  12.160  17.639  0.00  0.00    +0.057 C 
ATOM      6  C   UNL     1      46.477  13.492  17.621  0.00  0.00    -0.190 A 
ATOM      7  C   UNL     1      47.555  13.706  16.744  0.00  0.00    +0.211 A 
ATOM      8  C   UNL     1      48.185  14.935  16.697  0.00  0.00    -0.025 A 
ATOM      9  C   UNL     1      47.755  15.972  17.517  0.00  0.00    +0.196 A 
ATOM     10  C   UNL     1      46.671  15.762  18.390  0.00  0.00    -0.277 A 
ATOM     11  C   UNL     1      46.230  16.888  19.231  0.00  0.00    +0.436 A 
ATOM     12  C   UNL     1      46.778  18.212  18.878  0.00  0.00    -0.218 A 
ATOM     25  C   UNL     1      47.821  18.263  18.009  0.00  0.00    +0.329 A 
ATOM     26  O   UNL     1      45.457  16.736  20.163  0.00  0.00    -0.440 OA
ATOM     27  O   UNL     1      48.374  17.169  17.479  0.00  0.00    -0.213 OA
ATOM     28  C   UNL     1      46.032  14.518  18.449  0.00  0.00    +0.245 A 
ATOM     31  O   UNL     1      47.961  12.683  15.950  0.00  0.00    -0.295 OA
ENDROOT
BRANCH  12  13
ATOM     13  C   UNL     1      46.208  19.453  19.455  0.00  0.00    -0.059 A 
ATOM     14  C   UNL     1      44.952  19.901  19.046  0.00  0.00    +0.032 A 
ATOM     15  C   UNL     1      44.423  21.058  19.587  0.00  0.00    +0.067 A 
ATOM     18  C   UNL     1      45.141  21.776  20.540  0.00  0.00    +0.149 A 
ATOM     21  C   UNL     1      46.389  21.334  20.950  0.00  0.00    -0.117 A 
ATOM     22  C   UNL     1      46.923  20.173  20.416  0.00  0.00    +0.152 A 
BRANCH  15  16
ATOM     16  O   UNL     1      43.198  21.496  19.189  0.00  0.00    -0.305 OA
ATOM     17  C   UNL     1      42.261  20.505  18.763  0.00  0.00    +0.236 C 
ENDBRANCH  15  16
BRANCH  18  19
ATOM     19  O   UNL     1      44.616  22.913  21.071  0.00  0.00    -0.300 OA
ATOM     20  C   UNL     1      45.431  24.087  21.023  0.00  0.00    +0.239 C 
ENDBRANCH  18  19
BRANCH  22  23
ATOM     23  O   UNL     1      48.145  19.736  20.822  0.00  0.00    -0.307 OA
ATOM     24  C   UNL     1      49.201  20.699  20.855  0.00  0.00    +0.240 C 
ENDBRANCH  22  23
ENDBRANCH  12  13
BRANCH  28  29
ATOM     29  O   UNL     1      44.995  14.316  19.300  0.00  0.00    -0.472 OA
ATOM     30  H   UNL     1      45.263  14.161  20.216  0.00  0.00    +0.405 HD
ENDBRANCH  28  29
TORSDOF 5
ENDMDL
MODEL 6
REMARK VINA RESULT:      -5.3      4.778      5.854
REMARK  Name = ZINC95486330
REMARK  10 active torsions:
REMARK  status: ('A' for Active; 'I' for Inactive)
REMARK    1  A    between atoms: C1_1  and  C2_2
REMARK    2  A    between atoms: C2_2  and  C23_30
REMARK    3  A    between atoms: C10_10  and  O1_11
REMARK    4  A    between atoms: C12_14  and  C14_17
REMARK    5  A    between atoms: C16_19  and  O6_27
REMARK    6  A    between atoms: C17_20  and  O5_25
REMARK    7  A    between atoms: C19_22  and  O4_23
REMARK    8  A    between atoms: O4_23  and  C20_24
REMARK    9  A    between atoms: O5_25  and  C21_26
REMARK   10  A    between atoms: O6_27  and  C22_28
REMARK                            x       y       z     vdW  Elec       q    Type
REMARK                         _______ _______ _______ _____ _____    ______ ____
ROOT
ATOM      1  C   UNL     1      55.219  16.230  21.333  0.00  0.00    +0.039 C 
ATOM      2  C   UNL     1      54.859  15.389  20.107  0.00  0.00    +0.146 C 
ATOM      3  C   UNL     1      56.130  14.752  19.542  0.00  0.00    +0.088 C 
ATOM      4  C   UNL     1      53.899  14.304  20.515  0.00  0.00    -0.049 C 
ATOM      5  C   UNL     1      52.587  14.533  20.494  0.00  0.00    +0.057 C 
ATOM      6  C   UNL     1      52.121  15.864  20.053  0.00  0.00    -0.190 A 
ATOM      7  C   UNL     1      53.019  16.692  19.354  0.00  0.00    +0.211 A 
ATOM      8  C   UNL     1      52.627  17.945  18.926  0.00  0.00    -0.025 A 
ATOM      9  C   UNL     1      51.337  18.399  19.180  0.00  0.00    +0.196 A 
ATOM     10  C   UNL     1      50.435  17.569  19.873  0.00  0.00    -0.277 A 
ATOM     11  C   UNL     1      49.071  18.075  20.109  0.00  0.00    +0.436 A 
ATOM     12  C   UNL     1      48.689  19.283  19.352  0.00  0.00    -0.218 A 
ATOM     25  C   UNL     1      49.669  19.979  18.720  0.00  0.00    +0.329 A 
ATOM     26  O   UNL     1      48.303  17.526  20.882  0.00  0.00    -0.440 OA
ATOM     27  O   UNL     1      50.956  19.624  18.770  0.00  0.00    -0.213 OA
ATOM     28  C   UNL     1      50.826  16.301  20.317  0.00  0.00    +0.245 A 
ATOM     31  O   UNL     1      54.273  16.232  19.113  0.00  0.00    -0.295 OA
ENDROOT
BRANCH  12  13
ATOM     13  C   UNL     1      47.275  19.725  19.284  0.00  0.00    -0.059 A 
ATOM     14  C   UNL     1      46.830  20.769  20.094  0.00  0.00    +0.032 A 
ATOM     15  C   UNL     1      45.512  21.180  20.028  0.00  0.00    +0.067 A 
ATOM     18  C   UNL     1      44.629  20.553  19.153  0.00  0.00    +0.149 A 
ATOM     21  C   UNL     1      45.067  19.515  18.346  0.00  0.00    -0.117 A 
ATOM     22  C   UNL     1      46.387  19.102  18.403  0.00  0.00    +0.152 A 
BRANCH  15  16
ATOM     16  O   UNL     1      45.076  22.199  20.818  0.00  0.00    -0.305 OA
ATOM     17  C   UNL     1      45.005  21.944  22.222  0.00  0.00    +0.236 C 
ENDBRANCH  15  16
BRANCH  18  19
ATOM     19  O   UNL     1      43.332  20.961  19.089  0.00  0.00    -0.300 OA
ATOM     20  C   UNL     1      42.349  20.085  19.646  0.00  0.00    +0.239 C 
ENDBRANCH  18  19
BRANCH  22  23
ATOM     23  O   UNL     1      46.819  18.088  17.607  0.00  0.00    -0.307 OA
ATOM     24  C   UNL     1      46.193  16.815  17.781  0.00  0.00    +0.240 C 
ENDBRANCH  22  23
ENDBRANCH  12  13
BRANCH  28  29
ATOM     29  O   UNL     1      49.957  15.509  20.993  0.00  0.00    -0.472 OA
ATOM     30  H   UNL     1      50.337  15.090  21.777  0.00  0.00    +0.405 HD
ENDBRANCH  28  29
TORSDOF 5
ENDMDL
MODEL 7
REMARK VINA RESULT:      -5.2      1.335      2.287
REMARK  Name = ZINC95486330
REMARK  10 active torsions:
REMARK  status: ('A' for Active; 'I' for Inactive)
REMARK    1  A    between atoms: C1_1  and  C2_2
REMARK    2  A    between atoms: C2_2  and  C23_30
REMARK    3  A    between atoms: C10_10  and  O1_11
REMARK    4  A    between atoms: C12_14  and  C14_17
REMARK    5  A    between atoms: C16_19  and  O6_27
REMARK    6  A    between atoms: C17_20  and  O5_25
REMARK    7  A    between atoms: C19_22  and  O4_23
REMARK    8  A    between atoms: O4_23  and  C20_24
REMARK    9  A    between atoms: O5_25  and  C21_26
REMARK   10  A    between atoms: O6_27  and  C22_28
REMARK                            x       y       z     vdW  Elec       q    Type
REMARK                         _______ _______ _______ _____ _____    ______ ____
ROOT
ATOM      1  C   UNL     1      48.582  11.408  17.543  0.00  0.00    +0.039 C 
ATOM      2  C   UNL     1      47.471  11.681  16.527  0.00  0.00    +0.146 C 
ATOM      3  C   UNL     1      47.571  10.667  15.386  0.00  0.00    +0.088 C 
ATOM      4  C   UNL     1      46.133  11.536  17.204  0.00  0.00    -0.049 C 
ATOM      5  C   UNL     1      45.572  12.586  17.800  0.00  0.00    +0.057 C 
ATOM      6  C   UNL     1      46.293  13.875  17.762  0.00  0.00    -0.190 A 
ATOM      7  C   UNL     1      47.333  14.034  16.828  0.00  0.00    +0.211 A 
ATOM      8  C   UNL     1      48.036  15.221  16.760  0.00  0.00    -0.025 A 
ATOM      9  C   UNL     1      47.719  16.271  17.615  0.00  0.00    +0.196 A 
ATOM     10  C   UNL     1      46.674  16.116  18.545  0.00  0.00    -0.277 A 
ATOM     11  C   UNL     1      46.353  17.256  19.423  0.00  0.00    +0.436 A 
ATOM     12  C   UNL     1      46.964  18.548  19.054  0.00  0.00    -0.218 A 
ATOM     25  C   UNL     1      47.958  18.546  18.128  0.00  0.00    +0.329 A 
ATOM     26  O   UNL     1      45.625  17.139  20.394  0.00  0.00    -0.440 OA
ATOM     27  O   UNL     1      48.410  17.427  17.555  0.00  0.00    -0.213 OA
ATOM     28  C   UNL     1      45.962  14.915  18.626  0.00  0.00    +0.245 A 
ATOM     31  O   UNL     1      47.628  13.000  16.001  0.00  0.00    -0.295 OA
ENDROOT
BRANCH  12  13
ATOM     13  C   UNL     1      46.507  19.813  19.677  0.00  0.00    -0.059 A 
ATOM     14  C   UNL     1      47.321  20.473  20.597  0.00  0.00    +0.032 A 
ATOM     15  C   UNL     1      46.892  21.653  21.175  0.00  0.00    +0.067 A 
ATOM     18  C   UNL     1      45.649  22.184  20.841  0.00  0.00    +0.149 A 
ATOM     21  C   UNL     1      44.837  21.531  19.928  0.00  0.00    -0.117 A 
ATOM     22  C   UNL     1      45.262  20.352  19.340  0.00  0.00    +0.152 A 
BRANCH  15  16
ATOM     16  O   UNL     1      47.686  22.298  22.073  0.00  0.00    -0.305 OA
ATOM     17  C   UNL     1      48.864  21.614  22.505  0.00  0.00    +0.236 C 
ENDBRANCH  15  16
BRANCH  18  19
ATOM     19  O   UNL     1      45.231  23.346  21.412  0.00  0.00    -0.300 OA
ATOM     20  C   UNL     1      45.491  24.553  20.691  0.00  0.00    +0.239 C 
ENDBRANCH  18  19
BRANCH  22  23
ATOM     23  O   UNL     1      44.467  19.714  18.439  0.00  0.00    -0.307 OA
ATOM     24  C   UNL     1      43.073  20.025  18.470  0.00  0.00    +0.240 C 
ENDBRANCH  22  23
ENDBRANCH  12  13
BRANCH  28  29
ATOM     29  O   UNL     1      44.963  14.766  19.531  0.00  0.00    -0.472 OA
ATOM     30  H   UNL     1      44.511  15.591  19.757  0.00  0.00    +0.405 HD
ENDBRANCH  28  29
TORSDOF 5
ENDMDL
MODEL 8
REMARK VINA RESULT:      -5.2      2.710      9.023
REMARK  Name = ZINC95486330
REMARK  10 active torsions:
REMARK  status: ('A' for Active; 'I' for Inactive)
REMARK    1  A    between atoms: C1_1  and  C2_2
REMARK    2  A    between atoms: C2_2  and  C23_30
REMARK    3  A    between atoms: C10_10  and  O1_11
REMARK    4  A    between atoms: C12_14  and  C14_17
REMARK    5  A    between atoms: C16_19  and  O6_27
REMARK    6  A    between atoms: C17_20  and  O5_25
REMARK    7  A    between atoms: C19_22  and  O4_23
REMARK    8  A    between atoms: O4_23  and  C20_24
REMARK    9  A    between atoms: O5_25  and  C21_26
REMARK   10  A    between atoms: O6_27  and  C22_28
REMARK                            x       y       z     vdW  Elec       q    Type
REMARK                         _______ _______ _______ _____ _____    ______ ____
ROOT
ATOM      1  C   UNL     1      44.460  20.957  21.032  0.00  0.00    +0.039 C 
ATOM      2  C   UNL     1      45.334  21.733  20.046  0.00  0.00    +0.146 C 
ATOM      3  C   UNL     1      44.718  23.112  19.803  0.00  0.00    +0.088 C 
ATOM      4  C   UNL     1      46.712  21.902  20.631  0.00  0.00    -0.049 C 
ATOM      5  C   UNL     1      47.643  20.973  20.417  0.00  0.00    +0.057 C 
ATOM      6  C   UNL     1      47.282  19.803  19.591  0.00  0.00    -0.190 A 
ATOM      7  C   UNL     1      46.127  19.878  18.790  0.00  0.00    +0.211 A 
ATOM      8  C   UNL     1      45.751  18.806  18.005  0.00  0.00    -0.025 A 
ATOM      9  C   UNL     1      46.512  17.643  17.997  0.00  0.00    +0.196 A 
ATOM     10  C   UNL     1      47.672  17.569  18.792  0.00  0.00    -0.277 A 
ATOM     11  C   UNL     1      48.466  16.328  18.746  0.00  0.00    +0.436 A 
ATOM     12  C   UNL     1      48.132  15.387  17.659  0.00  0.00    -0.218 A 
ATOM     25  C   UNL     1      46.982  15.591  16.965  0.00  0.00    +0.329 A 
ATOM     26  O   UNL     1      49.347  16.093  19.556  0.00  0.00    -0.440 OA
ATOM     27  O   UNL     1      46.142  16.593  17.238  0.00  0.00    -0.213 OA
ATOM     28  C   UNL     1      48.057  18.647  19.596  0.00  0.00    +0.245 A 
ATOM     31  O   UNL     1      45.397  21.021  18.809  0.00  0.00    -0.295 OA
ENDROOT
BRANCH  12  13
ATOM     13  C   UNL     1      49.026  14.250  17.332  0.00  0.00    -0.059 A 
ATOM     14  C   UNL     1      50.027  14.402  16.373  0.00  0.00    +0.032 A 
ATOM     15  C   UNL     1      50.859  13.339  16.072  0.00  0.00    +0.067 A 
ATOM     18  C   UNL     1      50.700  12.120  16.725  0.00  0.00    +0.149 A 
ATOM     21  C   UNL     1      49.707  11.966  17.679  0.00  0.00    -0.117 A 
ATOM     22  C   UNL     1      48.873  13.026  17.990  0.00  0.00    +0.152 A 
BRANCH  15  16
ATOM     16  O   UNL     1      51.836  13.486  15.135  0.00  0.00    -0.305 OA
ATOM     17  C   UNL     1      51.464  13.276  13.772  0.00  0.00    +0.236 C 
ENDBRANCH  15  16
BRANCH  18  19
ATOM     19  O   UNL     1      51.522  11.078  16.426  0.00  0.00    -0.300 OA
ATOM     20  C   UNL     1      52.583  10.806  17.344  0.00  0.00    +0.239 C 
ENDBRANCH  18  19
BRANCH  22  23
ATOM     23  O   UNL     1      47.902  12.877  18.930  0.00  0.00    -0.307 OA
ATOM     24  C   UNL     1      48.331  12.671  20.278  0.00  0.00    +0.240 C 
ENDBRANCH  22  23
ENDBRANCH  12  13
BRANCH  28  29
ATOM     29  O   UNL     1      49.169  18.568  20.369  0.00  0.00    -0.472 OA
ATOM     30  H   UNL     1      49.248  17.738  20.860  0.00  0.00    +0.405 HD
ENDBRANCH  28  29
TORSDOF 5
ENDMDL
MODEL 9
REMARK VINA RESULT:      -5.1      2.190      8.530
REMARK  Name = ZINC95486330
REMARK  10 active torsions:
REMARK  status: ('A' for Active; 'I' for Inactive)
REMARK    1  A    between atoms: C1_1  and  C2_2
REMARK    2  A    between atoms: C2_2  and  C23_30
REMARK    3  A    between atoms: C10_10  and  O1_11
REMARK    4  A    between atoms: C12_14  and  C14_17
REMARK    5  A    between atoms: C16_19  and  O6_27
REMARK    6  A    between atoms: C17_20  and  O5_25
REMARK    7  A    between atoms: C19_22  and  O4_23
REMARK    8  A    between atoms: O4_23  and  C20_24
REMARK    9  A    between atoms: O5_25  and  C21_26
REMARK   10  A    between atoms: O6_27  and  C22_28
REMARK                            x       y       z     vdW  Elec       q    Type
REMARK                         _______ _______ _______ _____ _____    ______ ____
ROOT
ATOM      1  C   UNL     1      44.600  22.193  21.331  0.00  0.00    +0.039 C 
ATOM      2  C   UNL     1      44.180  22.051  19.867  0.00  0.00    +0.146 C 
ATOM      3  C   UNL     1      43.140  23.124  19.535  0.00  0.00    +0.088 C 
ATOM      4  C   UNL     1      45.385  22.239  18.985  0.00  0.00    -0.049 C 
ATOM      5  C   UNL     1      46.142  21.192  18.660  0.00  0.00    +0.057 C 
ATOM      6  C   UNL     1      45.753  19.865  19.181  0.00  0.00    -0.190 A 
ATOM      7  C   UNL     1      44.449  19.697  19.682  0.00  0.00    +0.211 A 
ATOM      8  C   UNL     1      44.044  18.475  20.181  0.00  0.00    -0.025 A 
ATOM      9  C   UNL     1      44.922  17.397  20.190  0.00  0.00    +0.196 A 
ATOM     10  C   UNL     1      46.225  17.561  19.682  0.00  0.00    -0.277 A 
ATOM     11  C   UNL     1      47.123  16.393  19.689  0.00  0.00    +0.436 A 
ATOM     12  C   UNL     1      46.488  15.090  19.964  0.00  0.00    -0.218 A 
ATOM     25  C   UNL     1      45.216  15.085  20.441  0.00  0.00    +0.329 A 
ATOM     26  O   UNL     1      48.321  16.497  19.480  0.00  0.00    -0.440 OA
ATOM     27  O   UNL     1      44.531  16.206  20.684  0.00  0.00    -0.213 OA
ATOM     28  C   UNL     1      46.647  18.798  19.181  0.00  0.00    +0.245 A 
ATOM     31  O   UNL     1      43.604  20.759  19.664  0.00  0.00    -0.295 OA
ENDROOT
BRANCH  12  13
ATOM     13  C   UNL     1      47.217  13.820  19.727  0.00  0.00    -0.059 A 
ATOM     14  C   UNL     1      47.952  13.234  20.757  0.00  0.00    +0.032 A 
ATOM     15  C   UNL     1      48.630  12.050  20.532  0.00  0.00    +0.067 A 
ATOM     18  C   UNL     1      48.578  11.442  19.281  0.00  0.00    +0.149 A 
ATOM     21  C   UNL     1      47.848  12.021  18.255  0.00  0.00    -0.117 A 
ATOM     22  C   UNL     1      47.163  13.204  18.474  0.00  0.00    +0.152 A 
BRANCH  15  16
ATOM     16  O   UNL     1      49.348  11.478  21.536  0.00  0.00    -0.305 OA
ATOM     17  C   UNL     1      50.612  12.068  21.847  0.00  0.00    +0.236 C 
ENDBRANCH  15  16
BRANCH  18  19
ATOM     19  O   UNL     1      49.245  10.277  19.065  0.00  0.00    -0.300 OA
ATOM     20  C   UNL     1      50.429  10.345  18.266  0.00  0.00    +0.239 C 
ENDBRANCH  18  19
BRANCH  22  23
ATOM     23  O   UNL     1      46.441  13.769  17.469  0.00  0.00    -0.307 OA
ATOM     24  C   UNL     1      47.149  14.112  16.276  0.00  0.00    +0.240 C 
ENDBRANCH  22  23
ENDBRANCH  12  13
BRANCH  28  29
ATOM     29  O   UNL     1      47.906  18.954  18.702  0.00  0.00    -0.472 OA
ATOM     30  H   UNL     1      48.597  18.842  19.370  0.00  0.00    +0.405 HD
ENDBRANCH  28  29
TORSDOF 5
ENDMDL
