MODEL 1
REMARK VINA RESULT:      -6.8      0.000      0.000
REMARK  Name = ZINC15122160
REMARK  5 active torsions:
REMARK  status: ('A' for Active; 'I' for Inactive)
REMARK    1  A    between atoms: C1_1  and  C2_2
REMARK    2  A    between atoms: C2_2  and  C21_29
REMARK    3  A    between atoms: C8_8  and  O6_27
REMARK    4  A    between atoms: C12_13  and  C14_17
REMARK    5  A    between atoms: C19_22  and  O3_23
REMARK                            x       y       z     vdW  Elec       q    Type
REMARK                         _______ _______ _______ _____ _____    ______ ____
ROOT
ATOM      1  C   UNL     1      45.418  13.307  18.275  0.00  0.00    +0.037 C 
ATOM      2  C   UNL     1      46.683  13.930  18.868  0.00  0.00    +0.146 C 
ATOM      3  C   UNL     1      47.784  12.869  18.933  0.00  0.00    +0.086 C 
ATOM      4  C   UNL     1      47.137  15.064  17.988  0.00  0.00    -0.059 C 
ATOM      5  C   UNL     1      46.674  16.295  18.198  0.00  0.00    +0.066 C 
ATOM      6  C   UNL     1      45.725  16.500  19.312  0.00  0.00    -0.191 A 
ATOM      7  C   UNL     1      45.626  15.504  20.299  0.00  0.00    +0.224 A 
ATOM      8  C   UNL     1      44.751  15.656  21.360  0.00  0.00    -0.069 A 
ATOM      9  C   UNL     1      43.962  16.791  21.453  0.00  0.00    +0.248 A 
ATOM     12  C   UNL     1      44.049  17.790  20.469  0.00  0.00    -0.314 A 
ATOM     13  C   UNL     1      43.211  18.987  20.542  0.00  0.00    +0.413 C 
ATOM     14  O   UNL     1      42.319  19.068  21.362  0.00  0.00    -0.424 OA
ATOM     15  C   UNL     1      43.476  20.118  19.583  0.00  0.00    +0.015 C 
ATOM     27  C   UNL     1      44.039  19.579  18.276  0.00  0.00    +0.281 C 
ATOM     28  O   UNL     1      45.051  18.616  18.460  0.00  0.00    -0.294 OA
ATOM     29  C   UNL     1      44.943  17.651  19.392  0.00  0.00    +0.243 A 
ATOM     30  O   UNL     1      46.403  14.398  20.188  0.00  0.00    -0.295 OA
ENDROOT
BRANCH  15  16
ATOM     16  C   UNL     1      44.468  21.071  20.197  0.00  0.00    -0.105 A 
ATOM     17  C   UNL     1      45.690  20.603  20.643  0.00  0.00    +0.069 A 
ATOM     18  C   UNL     1      46.607  21.478  21.203  0.00  0.00    +0.031 A 
ATOM     19  C   UNL     1      46.294  22.829  21.322  0.00  0.00    +0.059 A 
ATOM     20  O   UNL     1      47.350  23.472  21.900  0.00  0.00    -0.304 OA
ATOM     21  C   UNL     1      48.147  22.437  22.505  0.00  0.00    +0.438 C 
ATOM     22  C   UNL     1      45.068  23.295  20.879  0.00  0.00    +0.021 A 
ATOM     23  O   UNL     1      47.860  21.274  21.706  0.00  0.00    -0.303 OA
ATOM     24  C   UNL     1      44.153  22.416  20.319  0.00  0.00    +0.138 A 
BRANCH  24  25
ATOM     25  O   UNL     1      42.949  22.873  19.884  0.00  0.00    -0.482 OA
ATOM     26  H   UNL     1      42.894  23.837  19.823  0.00  0.00    +0.395 HD
ENDBRANCH  24  25
ENDBRANCH  15  16
BRANCH   9  10
ATOM     10  O   UNL     1      43.108  16.939  22.496  0.00  0.00    -0.475 OA
ATOM     11  H   UNL     1      43.067  17.841  22.844  0.00  0.00    +0.405 HD
ENDBRANCH   9  10
TORSDOF 3
ENDMDL
MODEL 2
REMARK VINA RESULT:      -6.6      3.878      7.616
REMARK  Name = ZINC15122160
REMARK  5 active torsions:
REMARK  status: ('A' for Active; 'I' for Inactive)
REMARK    1  A    between atoms: C1_1  and  C2_2
REMARK    2  A    between atoms: C2_2  and  C21_29
REMARK    3  A    between atoms: C8_8  and  O6_27
REMARK    4  A    between atoms: C12_13  and  C14_17
REMARK    5  A    between atoms: C19_22  and  O3_23
REMARK                            x       y       z     vdW  Elec       q    Type
REMARK                         _______ _______ _______ _____ _____    ______ ____
ROOT
ATOM      1  C   UNL     1      51.904  20.762  17.249  0.00  0.00    +0.037 C 
ATOM      2  C   UNL     1      51.545  20.508  18.714  0.00  0.00    +0.146 C 
ATOM      3  C   UNL     1      52.368  21.441  19.605  0.00  0.00    +0.086 C 
ATOM      4  C   UNL     1      50.080  20.786  18.922  0.00  0.00    -0.059 C 
ATOM      5  C   UNL     1      49.186  19.816  18.742  0.00  0.00    +0.066 C 
ATOM      6  C   UNL     1      49.680  18.480  18.349  0.00  0.00    -0.191 A 
ATOM      7  C   UNL     1      51.044  18.193  18.524  0.00  0.00    +0.224 A 
ATOM      8  C   UNL     1      51.549  16.953  18.171  0.00  0.00    -0.069 A 
ATOM      9  C   UNL     1      50.711  15.989  17.637  0.00  0.00    +0.248 A 
ATOM     12  C   UNL     1      49.346  16.267  17.452  0.00  0.00    -0.314 A 
ATOM     13  C   UNL     1      48.450  15.266  16.873  0.00  0.00    +0.413 C 
ATOM     14  O   UNL     1      48.894  14.240  16.399  0.00  0.00    -0.424 OA
ATOM     15  C   UNL     1      46.967  15.531  16.877  0.00  0.00    +0.015 C 
ATOM     27  C   UNL     1      46.700  17.026  16.800  0.00  0.00    +0.281 C 
ATOM     28  O   UNL     1      47.510  17.784  17.669  0.00  0.00    -0.294 OA
ATOM     29  C   UNL     1      48.821  17.520  17.818  0.00  0.00    +0.243 A 
ATOM     30  O   UNL     1      51.850  19.152  19.045  0.00  0.00    -0.295 OA
ENDROOT
BRANCH  15  16
ATOM     16  C   UNL     1      46.366  14.982  18.145  0.00  0.00    -0.105 A 
ATOM     17  C   UNL     1      46.089  15.830  19.201  0.00  0.00    +0.069 A 
ATOM     18  C   UNL     1      45.531  15.330  20.366  0.00  0.00    +0.031 A 
ATOM     19  C   UNL     1      45.254  13.970  20.474  0.00  0.00    +0.059 A 
ATOM     20  O   UNL     1      44.715  13.731  21.706  0.00  0.00    -0.304 OA
ATOM     21  C   UNL     1      45.041  14.887  22.500  0.00  0.00    +0.438 C 
ATOM     22  C   UNL     1      45.536  13.121  19.417  0.00  0.00    +0.021 A 
ATOM     23  O   UNL     1      45.164  15.944  21.529  0.00  0.00    -0.303 OA
ATOM     24  C   UNL     1      46.095  13.627  18.253  0.00  0.00    +0.138 A 
BRANCH  24  25
ATOM     25  O   UNL     1      46.372  12.794  17.215  0.00  0.00    -0.482 OA
ATOM     26  H   UNL     1      47.289  12.486  17.192  0.00  0.00    +0.395 HD
ENDBRANCH  24  25
ENDBRANCH  15  16
BRANCH   9  10
ATOM     10  O   UNL     1      51.207  14.774  17.295  0.00  0.00    -0.475 OA
ATOM     11  H   UNL     1      50.550  14.064  17.305  0.00  0.00    +0.405 HD
ENDBRANCH   9  10
TORSDOF 3
ENDMDL
MODEL 3
REMARK VINA RESULT:      -6.6      1.922      4.275
REMARK  Name = ZINC15122160
REMARK  5 active torsions:
REMARK  status: ('A' for Active; 'I' for Inactive)
REMARK    1  A    between atoms: C1_1  and  C2_2
REMARK    2  A    between atoms: C2_2  and  C21_29
REMARK    3  A    between atoms: C8_8  and  O6_27
REMARK    4  A    between atoms: C12_13  and  C14_17
REMARK    5  A    between atoms: C19_22  and  O3_23
REMARK                            x       y       z     vdW  Elec       q    Type
REMARK                         _______ _______ _______ _____ _____    ______ ____
ROOT
ATOM      1  C   UNL     1      47.661  12.238  18.518  0.00  0.00    +0.037 C 
ATOM      2  C   UNL     1      46.444  12.654  17.690  0.00  0.00    +0.146 C 
ATOM      3  C   UNL     1      46.088  11.529  16.716  0.00  0.00    +0.086 C 
ATOM      4  C   UNL     1      45.279  12.903  18.610  0.00  0.00    -0.059 C 
ATOM      5  C   UNL     1      45.088  14.114  19.130  0.00  0.00    +0.066 C 
ATOM      6  C   UNL     1      46.041  15.184  18.768  0.00  0.00    -0.191 A 
ATOM      7  C   UNL     1      46.869  14.991  17.649  0.00  0.00    +0.224 A 
ATOM      8  C   UNL     1      47.775  15.968  17.273  0.00  0.00    -0.069 A 
ATOM      9  C   UNL     1      47.873  17.141  18.003  0.00  0.00    +0.248 A 
ATOM     12  C   UNL     1      47.055  17.341  19.127  0.00  0.00    -0.314 A 
ATOM     13  C   UNL     1      47.158  18.567  19.919  0.00  0.00    +0.413 C 
ATOM     14  O   UNL     1      48.055  19.360  19.717  0.00  0.00    -0.424 OA
ATOM     15  C   UNL     1      46.131  18.827  20.990  0.00  0.00    +0.015 C 
ATOM     27  C   UNL     1      45.619  17.512  21.560  0.00  0.00    +0.281 C 
ATOM     28  O   UNL     1      45.316  16.555  20.570  0.00  0.00    -0.294 OA
ATOM     29  C   UNL     1      46.123  16.360  19.511  0.00  0.00    +0.243 A 
ATOM     30  O   UNL     1      46.760  13.834  16.950  0.00  0.00    -0.295 OA
ENDROOT
BRANCH  15  16
ATOM     16  C   UNL     1      44.977  19.596  20.399  0.00  0.00    -0.105 A 
ATOM     17  C   UNL     1      43.783  18.952  20.132  0.00  0.00    +0.069 A 
ATOM     18  C   UNL     1      42.719  19.657  19.595  0.00  0.00    +0.031 A 
ATOM     19  C   UNL     1      42.855  21.014  19.316  0.00  0.00    +0.059 A 
ATOM     20  O   UNL     1      41.679  21.474  18.797  0.00  0.00    -0.304 OA
ATOM     21  C   UNL     1      40.957  20.299  18.381  0.00  0.00    +0.438 C 
ATOM     22  C   UNL     1      44.054  21.656  19.579  0.00  0.00    +0.021 A 
ATOM     23  O   UNL     1      41.457  19.265  19.250  0.00  0.00    -0.303 OA
ATOM     24  C   UNL     1      45.117  20.946  20.118  0.00  0.00    +0.138 A 
BRANCH  24  25
ATOM     25  O   UNL     1      46.293  21.576  20.376  0.00  0.00    -0.482 OA
ATOM     26  H   UNL     1      46.856  21.113  21.013  0.00  0.00    +0.395 HD
ENDBRANCH  24  25
ENDBRANCH  15  16
BRANCH   9  10
ATOM     10  O   UNL     1      48.759  18.098  17.630  0.00  0.00    -0.475 OA
ATOM     11  H   UNL     1      49.488  18.223  18.255  0.00  0.00    +0.405 HD
ENDBRANCH   9  10
TORSDOF 3
ENDMDL
MODEL 4
REMARK VINA RESULT:      -6.4      1.862      7.058
REMARK  Name = ZINC15122160
REMARK  5 active torsions:
REMARK  status: ('A' for Active; 'I' for Inactive)
REMARK    1  A    between atoms: C1_1  and  C2_2
REMARK    2  A    between atoms: C2_2  and  C21_29
REMARK    3  A    between atoms: C8_8  and  O6_27
REMARK    4  A    between atoms: C12_13  and  C14_17
REMARK    5  A    between atoms: C19_22  and  O3_23
REMARK                            x       y       z     vdW  Elec       q    Type
REMARK                         _______ _______ _______ _____ _____    ______ ____
ROOT
ATOM      1  C   UNL     1      44.532  23.027  21.526  0.00  0.00    +0.037 C 
ATOM      2  C   UNL     1      44.618  22.600  20.060  0.00  0.00    +0.146 C 
ATOM      3  C   UNL     1      44.411  23.824  19.165  0.00  0.00    +0.086 C 
ATOM      4  C   UNL     1      45.979  22.014  19.791  0.00  0.00    -0.059 C 
ATOM      5  C   UNL     1      46.190  20.712  19.975  0.00  0.00    +0.066 C 
ATOM      6  C   UNL     1      45.056  19.881  20.432  0.00  0.00    -0.191 A 
ATOM      7  C   UNL     1      43.756  20.401  20.315  0.00  0.00    +0.224 A 
ATOM      8  C   UNL     1      42.665  19.657  20.729  0.00  0.00    -0.069 A 
ATOM      9  C   UNL     1      42.851  18.394  21.268  0.00  0.00    +0.248 A 
ATOM     12  C   UNL     1      44.147  17.868  21.396  0.00  0.00    -0.314 A 
ATOM     13  C   UNL     1      44.362  16.543  21.979  0.00  0.00    +0.413 C 
ATOM     14  O   UNL     1      43.447  15.943  22.504  0.00  0.00    -0.424 OA
ATOM     15  C   UNL     1      45.740  15.937  21.914  0.00  0.00    +0.015 C 
ATOM     27  C   UNL     1      46.797  17.031  21.929  0.00  0.00    +0.281 C 
ATOM     28  O   UNL     1      46.504  18.103  21.061  0.00  0.00    -0.294 OA
ATOM     29  C   UNL     1      45.261  18.611  20.967  0.00  0.00    +0.243 A 
ATOM     30  O   UNL     1      43.595  21.641  19.788  0.00  0.00    -0.295 OA
ENDROOT
BRANCH  15  16
ATOM     16  C   UNL     1      45.872  15.133  20.647  0.00  0.00    -0.105 A 
ATOM     17  C   UNL     1      46.536  15.667  19.557  0.00  0.00    +0.069 A 
ATOM     18  C   UNL     1      46.665  14.928  18.392  0.00  0.00    +0.031 A 
ATOM     19  C   UNL     1      46.120  13.649  18.318  0.00  0.00    +0.059 A 
ATOM     20  O   UNL     1      46.378  13.136  17.079  0.00  0.00    -0.304 OA
ATOM     21  C   UNL     1      46.729  14.267  16.260  0.00  0.00    +0.438 C 
ATOM     22  C   UNL     1      45.451  13.119  19.408  0.00  0.00    +0.021 A 
ATOM     23  O   UNL     1      47.265  15.217  17.200  0.00  0.00    -0.303 OA
ATOM     24  C   UNL     1      45.325  13.862  20.573  0.00  0.00    +0.138 A 
BRANCH  24  25
ATOM     25  O   UNL     1      44.669  13.341  21.643  0.00  0.00    -0.482 OA
ATOM     26  H   UNL     1      44.141  13.987  22.133  0.00  0.00    +0.395 HD
ENDBRANCH  24  25
ENDBRANCH  15  16
BRANCH   9  10
ATOM     10  O   UNL     1      41.780  17.665  21.670  0.00  0.00    -0.475 OA
ATOM     11  H   UNL     1      42.010  16.799  22.036  0.00  0.00    +0.405 HD
ENDBRANCH   9  10
TORSDOF 3
ENDMDL
MODEL 5
REMARK VINA RESULT:      -6.3      2.240      4.486
REMARK  Name = ZINC15122160
REMARK  5 active torsions:
REMARK  status: ('A' for Active; 'I' for Inactive)
REMARK    1  A    between atoms: C1_1  and  C2_2
REMARK    2  A    between atoms: C2_2  and  C21_29
REMARK    3  A    between atoms: C8_8  and  O6_27
REMARK    4  A    between atoms: C12_13  and  C14_17
REMARK    5  A    between atoms: C19_22  and  O3_23
REMARK                            x       y       z     vdW  Elec       q    Type
REMARK                         _______ _______ _______ _____ _____    ______ ____
ROOT
ATOM      1  C   UNL     1      48.482  13.052  18.085  0.00  0.00    +0.037 C 
ATOM      2  C   UNL     1      47.231  13.274  17.233  0.00  0.00    +0.146 C 
ATOM      3  C   UNL     1      47.261  12.322  16.035  0.00  0.00    +0.086 C 
ATOM      4  C   UNL     1      46.007  12.990  18.063  0.00  0.00    -0.059 C 
ATOM      5  C   UNL     1      45.449  13.963  18.779  0.00  0.00    +0.066 C 
ATOM      6  C   UNL     1      46.058  15.308  18.719  0.00  0.00    -0.191 A 
ATOM      7  C   UNL     1      46.951  15.592  17.672  0.00  0.00    +0.224 A 
ATOM      8  C   UNL     1      47.543  16.839  17.576  0.00  0.00    -0.069 A 
ATOM      9  C   UNL     1      47.262  17.815  18.519  0.00  0.00    +0.248 A 
ATOM     12  C   UNL     1      46.377  17.539  19.574  0.00  0.00    -0.314 A 
ATOM     13  C   UNL     1      46.083  18.553  20.587  0.00  0.00    +0.413 C 
ATOM     14  O   UNL     1      46.714  19.589  20.627  0.00  0.00    -0.424 OA
ATOM     15  C   UNL     1      44.982  18.287  21.581  0.00  0.00    +0.015 C 
ATOM     27  C   UNL     1      44.858  16.793  21.842  0.00  0.00    +0.281 C 
ATOM     28  O   UNL     1      44.890  16.017  20.665  0.00  0.00    -0.294 OA
ATOM     29  C   UNL     1      45.760  16.279  19.673  0.00  0.00    +0.243 A 
ATOM     30  O   UNL     1      47.215  14.622  16.761  0.00  0.00    -0.295 OA
ENDROOT
BRANCH  15  16
ATOM     16  C   UNL     1      43.678  18.807  21.033  0.00  0.00    -0.105 A 
ATOM     17  C   UNL     1      43.682  19.770  20.041  0.00  0.00    +0.069 A 
ATOM     18  C   UNL     1      42.485  20.246  19.530  0.00  0.00    +0.031 A 
ATOM     19  C   UNL     1      41.278  19.758  20.022  0.00  0.00    +0.059 A 
ATOM     20  O   UNL     1      40.255  20.379  19.365  0.00  0.00    -0.304 OA
ATOM     21  C   UNL     1      40.842  21.545  18.756  0.00  0.00    +0.438 C 
ATOM     22  C   UNL     1      41.276  18.797  21.019  0.00  0.00    +0.021 A 
ATOM     23  O   UNL     1      42.220  21.174  18.564  0.00  0.00    -0.303 OA
ATOM     24  C   UNL     1      42.477  18.323  21.527  0.00  0.00    +0.138 A 
BRANCH  24  25
ATOM     25  O   UNL     1      42.476  17.379  22.505  0.00  0.00    -0.482 OA
ATOM     26  H   UNL     1      43.251  17.412  23.084  0.00  0.00    +0.395 HD
ENDBRANCH  24  25
ENDBRANCH  15  16
BRANCH   9  10
ATOM     10  O   UNL     1      47.842  19.037  18.421  0.00  0.00    -0.475 OA
ATOM     11  H   UNL     1      48.362  19.161  17.615  0.00  0.00    +0.405 HD
ENDBRANCH   9  10
TORSDOF 3
ENDMDL
MODEL 6
REMARK VINA RESULT:      -6.2      2.820      8.635
REMARK  Name = ZINC15122160
REMARK  5 active torsions:
REMARK  status: ('A' for Active; 'I' for Inactive)
REMARK    1  A    between atoms: C1_1  and  C2_2
REMARK    2  A    between atoms: C2_2  and  C21_29
REMARK    3  A    between atoms: C8_8  and  O6_27
REMARK    4  A    between atoms: C12_13  and  C14_17
REMARK    5  A    between atoms: C19_22  and  O3_23
REMARK                            x       y       z     vdW  Elec       q    Type
REMARK                         _______ _______ _______ _____ _____    ______ ____
ROOT
ATOM      1  C   UNL     1      46.070  19.624  20.336  0.00  0.00    +0.037 C 
ATOM      2  C   UNL     1      45.040  19.199  19.288  0.00  0.00    +0.146 C 
ATOM      3  C   UNL     1      43.999  20.309  19.126  0.00  0.00    +0.086 C 
ATOM      4  C   UNL     1      45.734  18.973  17.971  0.00  0.00    -0.059 C 
ATOM      5  C   UNL     1      46.231  17.773  17.679  0.00  0.00    +0.066 C 
ATOM      6  C   UNL     1      46.067  16.692  18.672  0.00  0.00    -0.191 A 
ATOM      7  C   UNL     1      45.116  16.860  19.693  0.00  0.00    +0.224 A 
ATOM      8  C   UNL     1      44.929  15.872  20.644  0.00  0.00    -0.069 A 
ATOM      9  C   UNL     1      45.684  14.711  20.597  0.00  0.00    +0.248 A 
ATOM     12  C   UNL     1      46.642  14.536  19.585  0.00  0.00    -0.314 A 
ATOM     13  C   UNL     1      47.459  13.323  19.531  0.00  0.00    +0.413 C 
ATOM     14  O   UNL     1      47.438  12.522  20.443  0.00  0.00    -0.424 OA
ATOM     15  C   UNL     1      48.327  13.087  18.322  0.00  0.00    +0.015 C 
ATOM     27  C   UNL     1      48.772  14.415  17.727  0.00  0.00    +0.281 C 
ATOM     28  O   UNL     1      47.728  15.356  17.618  0.00  0.00    -0.294 OA
ATOM     29  C   UNL     1      46.832  15.529  18.607  0.00  0.00    +0.243 A 
ATOM     30  O   UNL     1      44.390  18.005  19.724  0.00  0.00    -0.295 OA
ENDROOT
BRANCH  15  16
ATOM     16  C   UNL     1      47.548  12.315  17.291  0.00  0.00    -0.105 A 
ATOM     17  C   UNL     1      46.166  12.309  17.332  0.00  0.00    +0.069 A 
ATOM     18  C   UNL     1      45.445  11.604  16.381  0.00  0.00    +0.031 A 
ATOM     19  C   UNL     1      46.115  10.896  15.387  0.00  0.00    +0.059 A 
ATOM     20  O   UNL     1      45.192  10.292  14.583  0.00  0.00    -0.304 OA
ATOM     21  C   UNL     1      43.963  10.303  15.334  0.00  0.00    +0.438 C 
ATOM     22  C   UNL     1      47.499  10.899  15.351  0.00  0.00    +0.021 A 
ATOM     23  O   UNL     1      44.101  11.445  16.200  0.00  0.00    -0.303 OA
ATOM     24  C   UNL     1      48.217  11.607  16.305  0.00  0.00    +0.138 A 
BRANCH  24  25
ATOM     25  O   UNL     1      49.576  11.609  16.269  0.00  0.00    -0.482 OA
ATOM     26  H   UNL     1      49.990  11.922  17.086  0.00  0.00    +0.395 HD
ENDBRANCH  24  25
ENDBRANCH  15  16
BRANCH   9  10
ATOM     10  O   UNL     1      45.496  13.743  21.528  0.00  0.00    -0.475 OA
ATOM     11  H   UNL     1      45.629  12.845  21.193  0.00  0.00    +0.405 HD
ENDBRANCH   9  10
TORSDOF 3
ENDMDL
MODEL 7
REMARK VINA RESULT:      -6.1      3.736      6.272
REMARK  Name = ZINC15122160
REMARK  5 active torsions:
REMARK  status: ('A' for Active; 'I' for Inactive)
REMARK    1  A    between atoms: C1_1  and  C2_2
REMARK    2  A    between atoms: C2_2  and  C21_29
REMARK    3  A    between atoms: C8_8  and  O6_27
REMARK    4  A    between atoms: C12_13  and  C14_17
REMARK    5  A    between atoms: C19_22  and  O3_23
REMARK                            x       y       z     vdW  Elec       q    Type
REMARK                         _______ _______ _______ _____ _____    ______ ____
ROOT
ATOM      1  C   UNL     1      42.422  19.645  20.709  0.00  0.00    +0.037 C 
ATOM      2  C   UNL     1      42.865  20.100  19.317  0.00  0.00    +0.146 C 
ATOM      3  C   UNL     1      41.628  20.379  18.460  0.00  0.00    +0.086 C 
ATOM      4  C   UNL     1      43.678  21.361  19.442  0.00  0.00    -0.059 C 
ATOM      5  C   UNL     1      44.996  21.289  19.619  0.00  0.00    +0.066 C 
ATOM      6  C   UNL     1      45.617  19.949  19.676  0.00  0.00    -0.191 A 
ATOM      7  C   UNL     1      44.882  18.850  19.198  0.00  0.00    +0.224 A 
ATOM      8  C   UNL     1      45.426  17.578  19.231  0.00  0.00    -0.069 A 
ATOM      9  C   UNL     1      46.699  17.380  19.741  0.00  0.00    +0.248 A 
ATOM     12  C   UNL     1      47.439  18.470  20.226  0.00  0.00    -0.314 A 
ATOM     13  C   UNL     1      48.778  18.276  20.784  0.00  0.00    +0.413 C 
ATOM     14  O   UNL     1      49.209  17.159  20.982  0.00  0.00    -0.424 OA
ATOM     15  C   UNL     1      49.612  19.488  21.107  0.00  0.00    +0.015 C 
ATOM     27  C   UNL     1      48.716  20.657  21.489  0.00  0.00    +0.281 C 
ATOM     28  O   UNL     1      47.614  20.822  20.625  0.00  0.00    -0.294 OA
ATOM     29  C   UNL     1      46.900  19.769  20.187  0.00  0.00    +0.243 A 
ATOM     30  O   UNL     1      43.636  19.064  18.707  0.00  0.00    -0.295 OA
ENDROOT
BRANCH  15  16
ATOM     16  C   UNL     1      50.433  19.865  19.901  0.00  0.00    -0.105 A 
ATOM     17  C   UNL     1      50.212  19.234  18.691  0.00  0.00    +0.069 A 
ATOM     18  C   UNL     1      50.961  19.582  17.579  0.00  0.00    +0.031 A 
ATOM     19  C   UNL     1      51.944  20.563  17.683  0.00  0.00    +0.059 A 
ATOM     20  O   UNL     1      52.535  20.720  16.463  0.00  0.00    -0.304 OA
ATOM     21  C   UNL     1      52.187  19.542  15.712  0.00  0.00    +0.438 C 
ATOM     22  C   UNL     1      52.167  21.190  18.897  0.00  0.00    +0.021 A 
ATOM     23  O   UNL     1      50.936  19.124  16.293  0.00  0.00    -0.303 OA
ATOM     24  C   UNL     1      51.414  20.839  20.008  0.00  0.00    +0.138 A 
BRANCH  24  25
ATOM     25  O   UNL     1      51.634  21.454  21.200  0.00  0.00    -0.482 OA
ATOM     26  H   UNL     1      51.787  22.406  21.129  0.00  0.00    +0.395 HD
ENDBRANCH  24  25
ENDBRANCH  15  16
BRANCH   9  10
ATOM     10  O   UNL     1      47.230  16.133  19.769  0.00  0.00    -0.475 OA
ATOM     11  H   UNL     1      48.160  16.096  19.503  0.00  0.00    +0.405 HD
ENDBRANCH   9  10
TORSDOF 3
ENDMDL
MODEL 8
REMARK VINA RESULT:      -6.0      3.133      7.858
REMARK  Name = ZINC15122160
REMARK  5 active torsions:
REMARK  status: ('A' for Active; 'I' for Inactive)
REMARK    1  A    between atoms: C1_1  and  C2_2
REMARK    2  A    between atoms: C2_2  and  C21_29
REMARK    3  A    between atoms: C8_8  and  O6_27
REMARK    4  A    between atoms: C12_13  and  C14_17
REMARK    5  A    between atoms: C19_22  and  O3_23
REMARK                            x       y       z     vdW  Elec       q    Type
REMARK                         _______ _______ _______ _____ _____    ______ ____
ROOT
ATOM      1  C   UNL     1      50.239  20.530  20.554  0.00  0.00    +0.037 C 
ATOM      2  C   UNL     1      50.445  20.115  19.096  0.00  0.00    +0.146 C 
ATOM      3  C   UNL     1      51.280  21.181  18.383  0.00  0.00    +0.086 C 
ATOM      4  C   UNL     1      51.175  18.800  19.052  0.00  0.00    -0.059 C 
ATOM      5  C   UNL     1      50.490  17.658  19.071  0.00  0.00    +0.066 C 
ATOM      6  C   UNL     1      49.016  17.733  19.124  0.00  0.00    -0.191 A 
ATOM      7  C   UNL     1      48.395  18.952  18.800  0.00  0.00    +0.224 A 
ATOM      8  C   UNL     1      47.016  19.066  18.836  0.00  0.00    -0.069 A 
ATOM      9  C   UNL     1      46.239  17.977  19.197  0.00  0.00    +0.248 A 
ATOM     12  C   UNL     1      46.849  16.756  19.528  0.00  0.00    -0.314 A 
ATOM     13  C   UNL     1      46.043  15.602  19.928  0.00  0.00    +0.413 C 
ATOM     14  O   UNL     1      44.853  15.721  20.133  0.00  0.00    -0.424 OA
ATOM     15  C   UNL     1      46.719  14.264  20.080  0.00  0.00    +0.015 C 
ATOM     27  C   UNL     1      48.168  14.451  20.505  0.00  0.00    +0.281 C 
ATOM     28  O   UNL     1      48.839  15.452  19.774  0.00  0.00    -0.294 OA
ATOM     29  C   UNL     1      48.249  16.627  19.484  0.00  0.00    +0.243 A 
ATOM     30  O   UNL     1      49.174  20.006  18.453  0.00  0.00    -0.295 OA
ENDROOT
BRANCH  15  16
ATOM     16  C   UNL     1      46.676  13.531  18.765  0.00  0.00    -0.105 A 
ATOM     17  C   UNL     1      47.798  13.495  17.958  0.00  0.00    +0.069 A 
ATOM     18  C   UNL     1      47.764  12.816  16.751  0.00  0.00    +0.031 A 
ATOM     19  C   UNL     1      46.595  12.176  16.347  0.00  0.00    +0.059 A 
ATOM     20  O   UNL     1      46.816  11.588  15.135  0.00  0.00    -0.304 OA
ATOM     21  C   UNL     1      48.001  12.217  14.612  0.00  0.00    +0.438 C 
ATOM     22  C   UNL     1      45.471  12.218  17.154  0.00  0.00    +0.021 A 
ATOM     23  O   UNL     1      48.718  12.629  15.791  0.00  0.00    -0.303 OA
ATOM     24  C   UNL     1      45.510  12.898  18.363  0.00  0.00    +0.138 A 
BRANCH  24  25
ATOM     25  O   UNL     1      44.406  12.939  19.155  0.00  0.00    -0.482 OA
ATOM     26  H   UNL     1      44.274  12.141  19.687  0.00  0.00    +0.395 HD
ENDBRANCH  24  25
ENDBRANCH  15  16
BRANCH   9  10
ATOM     10  O   UNL     1      44.888  18.091  19.228  0.00  0.00    -0.475 OA
ATOM     11  H   UNL     1      44.511  18.045  20.118  0.00  0.00    +0.405 HD
ENDBRANCH   9  10
TORSDOF 3
ENDMDL
MODEL 9
REMARK VINA RESULT:      -6.0      2.479      7.902
REMARK  Name = ZINC15122160
REMARK  5 active torsions:
REMARK  status: ('A' for Active; 'I' for Inactive)
REMARK    1  A    between atoms: C1_1  and  C2_2
REMARK    2  A    between atoms: C2_2  and  C21_29
REMARK    3  A    between atoms: C8_8  and  O6_27
REMARK    4  A    between atoms: C12_13  and  C14_17
REMARK    5  A    between atoms: C19_22  and  O3_23
REMARK                            x       y       z     vdW  Elec       q    Type
REMARK                         _______ _______ _______ _____ _____    ______ ____
ROOT
ATOM      1  C   UNL     1      42.922  19.126  19.796  0.00  0.00    +0.037 C 
ATOM      2  C   UNL     1      44.108  19.073  20.760  0.00  0.00    +0.146 C 
ATOM      3  C   UNL     1      44.070  20.300  21.674  0.00  0.00    +0.086 C 
ATOM      4  C   UNL     1      44.014  17.826  21.597  0.00  0.00    -0.059 C 
ATOM      5  C   UNL     1      44.568  16.694  21.169  0.00  0.00    +0.066 C 
ATOM      6  C   UNL     1      45.275  16.713  19.872  0.00  0.00    -0.191 A 
ATOM      7  C   UNL     1      45.638  17.956  19.326  0.00  0.00    +0.224 A 
ATOM      8  C   UNL     1      46.302  18.020  18.113  0.00  0.00    -0.069 A 
ATOM      9  C   UNL     1      46.609  16.856  17.428  0.00  0.00    +0.248 A 
ATOM     12  C   UNL     1      46.246  15.609  17.961  0.00  0.00    -0.314 A 
ATOM     13  C   UNL     1      46.548  14.371  17.242  0.00  0.00    +0.413 C 
ATOM     14  O   UNL     1      46.972  14.404  16.105  0.00  0.00    -0.424 OA
ATOM     15  C   UNL     1      46.322  13.054  17.938  0.00  0.00    +0.015 C 
ATOM     27  C   UNL     1      45.180  13.175  18.937  0.00  0.00    +0.281 C 
ATOM     28  O   UNL     1      45.253  14.339  19.729  0.00  0.00    -0.294 OA
ATOM     29  C   UNL     1      45.581  15.532  19.198  0.00  0.00    +0.243 A 
ATOM     30  O   UNL     1      45.325  19.084  20.010  0.00  0.00    -0.295 OA
ENDROOT
BRANCH  15  16
ATOM     16  C   UNL     1      47.579  12.651  18.665  0.00  0.00    -0.105 A 
ATOM     17  C   UNL     1      47.695  12.883  20.023  0.00  0.00    +0.069 A 
ATOM     18  C   UNL     1      48.848  12.509  20.695  0.00  0.00    +0.031 A 
ATOM     19  C   UNL     1      49.891  11.905  20.000  0.00  0.00    +0.059 A 
ATOM     20  O   UNL     1      50.902  11.636  20.877  0.00  0.00    -0.304 OA
ATOM     21  C   UNL     1      50.634  12.450  22.034  0.00  0.00    +0.438 C 
ATOM     22  C   UNL     1      49.774  11.678  18.639  0.00  0.00    +0.021 A 
ATOM     23  O   UNL     1      49.204  12.619  22.009  0.00  0.00    -0.303 OA
ATOM     24  C   UNL     1      48.618  12.053  17.970  0.00  0.00    +0.138 A 
BRANCH  24  25
ATOM     25  O   UNL     1      48.504  11.831  16.634  0.00  0.00    -0.482 OA
ATOM     26  H   UNL     1      48.654  12.617  16.090  0.00  0.00    +0.395 HD
ENDBRANCH  24  25
ENDBRANCH  15  16
BRANCH   9  10
ATOM     10  O   UNL     1      47.263  16.922  16.241  0.00  0.00    -0.475 OA
ATOM     11  H   UNL     1      46.741  17.313  15.527  0.00  0.00    +0.405 HD
ENDBRANCH   9  10
TORSDOF 3
ENDMDL
