MODEL 1
REMARK VINA RESULT:      -6.5      0.000      0.000
REMARK  Name = ZINC15258140
REMARK  7 active torsions:
REMARK  status: ('A' for Active; 'I' for Inactive)
REMARK    1  A    between atoms: C1_1  and  C2_2
REMARK    2  A    between atoms: C2_2  and  C4_4
REMARK    3  A    between atoms: C5_5  and  C6_6
REMARK    4  A    between atoms: C11_12  and  O5_24
REMARK    5  A    between atoms: C17_19  and  O4_22
REMARK    6  A    between atoms: C18_20  and  O3_21
REMARK    7  A    between atoms: O4_22  and  C19_23
REMARK                            x       y       z     vdW  Elec       q    Type
REMARK                         _______ _______ _______ _____ _____    ______ ____
ROOT
ATOM      5  C   UNL     1      47.892  19.534  19.135  0.00  0.00    -0.094 A 
ATOM      6  C   UNL     1      47.027  20.626  19.118  0.00  0.00    +0.139 A 
ATOM      7  C   UNL     1      45.650  20.414  19.107  0.00  0.00    -0.221 A 
ATOM      8  C   UNL     1      44.714  21.556  19.089  0.00  0.00    +0.441 A 
ATOM      9  C   UNL     1      43.275  21.237  19.078  0.00  0.00    -0.263 A 
ATOM     10  C   UNL     1      42.313  22.253  19.063  0.00  0.00    +0.205 A 
ATOM     13  C   UNL     1      40.969  21.921  19.053  0.00  0.00    -0.037 A 
ATOM     14  C   UNL     1      40.584  20.591  19.059  0.00  0.00    +0.116 A 
ATOM     15  C   UNL     1      41.525  19.582  19.074  0.00  0.00    -0.009 A 
ATOM     16  C   UNL     1      42.881  19.889  19.083  0.00  0.00    +0.179 A 
ATOM     17  O   UNL     1      43.794  18.896  19.099  0.00  0.00    -0.217 OA
ATOM     18  O   UNL     1      45.111  22.707  19.084  0.00  0.00    -0.431 OA
ATOM     19  C   UNL     1      45.127  19.109  19.111  0.00  0.00    +0.160 A 
ATOM     20  C   UNL     1      45.999  18.023  19.128  0.00  0.00    +0.046 A 
ATOM     23  C   UNL     1      47.368  18.228  19.145  0.00  0.00    +0.166 A 
ENDROOT
BRANCH   5   4
ATOM      3  C   UNL     1      49.891  20.738  18.417  0.00  0.00    +0.020 C 
ATOM      4  C   UNL     1      49.349  19.745  19.148  0.00  0.00    +0.023 C 
BRANCH   3   2
ATOM      1  C   UNL     1      52.228  20.746  17.338  0.00  0.00    +0.080 C 
ATOM      2  C   UNL     1      51.326  21.019  18.514  0.00  0.00    -0.107 C 
ATOM     26  C   UNL     1      51.833  21.515  19.642  0.00  0.00    +0.036 C 
ENDBRANCH   3   2
ENDBRANCH   5   4
BRANCH  10  11
ATOM     11  O   UNL     1      42.695  23.556  19.057  0.00  0.00    -0.476 OA
ATOM     12  H   UNL     1      42.437  24.037  18.259  0.00  0.00    +0.401 HD
ENDBRANCH  10  11
BRANCH  20  21
ATOM     21  O   UNL     1      45.504  16.755  19.133  0.00  0.00    -0.310 OA
ATOM     22  C   UNL     1      45.151  16.202  20.402  0.00  0.00    +0.227 C 
ENDBRANCH  20  21
BRANCH  23  24
ATOM     24  O   UNL     1      48.211  17.164  19.168  0.00  0.00    -0.471 OA
ATOM     25  H   UNL     1      48.104  16.562  18.418  0.00  0.00    +0.397 HD
ENDBRANCH  23  24
TORSDOF 5
ENDMDL
MODEL 2
REMARK VINA RESULT:      -5.9      1.880      7.542
REMARK  Name = ZINC15258140
REMARK  7 active torsions:
REMARK  status: ('A' for Active; 'I' for Inactive)
REMARK    1  A    between atoms: C1_1  and  C2_2
REMARK    2  A    between atoms: C2_2  and  C4_4
REMARK    3  A    between atoms: C5_5  and  C6_6
REMARK    4  A    between atoms: C11_12  and  O5_24
REMARK    5  A    between atoms: C17_19  and  O4_22
REMARK    6  A    between atoms: C18_20  and  O3_21
REMARK    7  A    between atoms: O4_22  and  C19_23
REMARK                            x       y       z     vdW  Elec       q    Type
REMARK                         _______ _______ _______ _____ _____    ______ ____
ROOT
ATOM      5  C   UNL     1      43.926  21.377  19.466  0.00  0.00    -0.094 A 
ATOM      6  C   UNL     1      44.803  20.438  18.928  0.00  0.00    +0.139 A 
ATOM      7  C   UNL     1      46.146  20.461  19.295  0.00  0.00    -0.221 A 
ATOM      8  C   UNL     1      47.094  19.475  18.737  0.00  0.00    +0.441 A 
ATOM      9  C   UNL     1      48.496  19.575  19.183  0.00  0.00    -0.263 A 
ATOM     10  C   UNL     1      49.466  18.683  18.710  0.00  0.00    +0.205 A 
ATOM     13  C   UNL     1      50.774  18.802  19.148  0.00  0.00    -0.037 A 
ATOM     14  C   UNL     1      51.116  19.797  20.048  0.00  0.00    +0.116 A 
ATOM     15  C   UNL     1      50.167  20.680  20.520  0.00  0.00    -0.009 A 
ATOM     16  C   UNL     1      48.846  20.583  20.095  0.00  0.00    +0.179 A 
ATOM     17  O   UNL     1      47.925  21.450  20.563  0.00  0.00    -0.217 OA
ATOM     18  O   UNL     1      46.736  18.621  17.947  0.00  0.00    -0.431 OA
ATOM     19  C   UNL     1      46.624  21.422  20.203  0.00  0.00    +0.160 A 
ATOM     20  C   UNL     1      45.740  22.358  20.736  0.00  0.00    +0.046 A 
ATOM     23  C   UNL     1      44.403  22.336  20.378  0.00  0.00    +0.166 A 
ENDROOT
BRANCH   5   4
ATOM      3  C   UNL     1      41.987  20.293  18.453  0.00  0.00    +0.020 C 
ATOM      4  C   UNL     1      42.503  21.363  19.086  0.00  0.00    +0.023 C 
BRANCH   3   2
ATOM      1  C   UNL     1      39.652  21.368  18.586  0.00  0.00    +0.080 C 
ATOM      2  C   UNL     1      40.550  20.231  18.173  0.00  0.00    -0.107 C 
ATOM     26  C   UNL     1      40.037  19.168  17.554  0.00  0.00    +0.036 C 
ENDBRANCH   3   2
ENDBRANCH   5   4
BRANCH  10  11
ATOM     11  O   UNL     1      49.126  17.709  17.828  0.00  0.00    -0.476 OA
ATOM     12  H   UNL     1      48.219  17.389  17.925  0.00  0.00    +0.401 HD
ENDBRANCH  10  11
BRANCH  20  21
ATOM     21  O   UNL     1      46.192  23.293  21.616  0.00  0.00    -0.310 OA
ATOM     22  C   UNL     1      46.351  24.624  21.122  0.00  0.00    +0.227 C 
ENDBRANCH  20  21
BRANCH  23  24
ATOM     24  O   UNL     1      43.547  23.247  20.908  0.00  0.00    -0.471 OA
ATOM     25  H   UNL     1      43.896  23.710  21.683  0.00  0.00    +0.397 HD
ENDBRANCH  23  24
TORSDOF 5
ENDMDL
MODEL 3
REMARK VINA RESULT:      -5.5      3.379      7.705
REMARK  Name = ZINC15258140
REMARK  7 active torsions:
REMARK  status: ('A' for Active; 'I' for Inactive)
REMARK    1  A    between atoms: C1_1  and  C2_2
REMARK    2  A    between atoms: C2_2  and  C4_4
REMARK    3  A    between atoms: C5_5  and  C6_6
REMARK    4  A    between atoms: C11_12  and  O5_24
REMARK    5  A    between atoms: C17_19  and  O4_22
REMARK    6  A    between atoms: C18_20  and  O3_21
REMARK    7  A    between atoms: O4_22  and  C19_23
REMARK                            x       y       z     vdW  Elec       q    Type
REMARK                         _______ _______ _______ _____ _____    ______ ____
ROOT
ATOM      5  C   UNL     1      47.114  14.701  18.323  0.00  0.00    -0.094 A 
ATOM      6  C   UNL     1      48.319  15.187  17.820  0.00  0.00    +0.139 A 
ATOM      7  C   UNL     1      48.664  16.520  18.028  0.00  0.00    -0.221 A 
ATOM      8  C   UNL     1      49.936  17.058  17.504  0.00  0.00    +0.441 A 
ATOM      9  C   UNL     1      50.219  18.479  17.774  0.00  0.00    -0.263 A 
ATOM     10  C   UNL     1      51.401  19.076  17.318  0.00  0.00    +0.205 A 
ATOM     13  C   UNL     1      51.637  20.413  17.587  0.00  0.00    -0.037 A 
ATOM     14  C   UNL     1      50.709  21.152  18.303  0.00  0.00    +0.116 A 
ATOM     15  C   UNL     1      49.542  20.572  18.755  0.00  0.00    -0.009 A 
ATOM     16  C   UNL     1      49.280  19.231  18.498  0.00  0.00    +0.179 A 
ATOM     17  O   UNL     1      48.137  18.672  18.946  0.00  0.00    -0.217 OA
ATOM     18  O   UNL     1      50.715  16.360  16.880  0.00  0.00    -0.431 OA
ATOM     19  C   UNL     1      47.809  17.379  18.741  0.00  0.00    +0.160 A 
ATOM     20  C   UNL     1      46.605  16.885  19.240  0.00  0.00    +0.046 A 
ATOM     23  C   UNL     1      46.260  15.559  19.040  0.00  0.00    +0.166 A 
ENDROOT
BRANCH   5   4
ATOM      3  C   UNL     1      46.523  12.837  16.861  0.00  0.00    +0.020 C 
ATOM      4  C   UNL     1      46.738  13.294  18.109  0.00  0.00    +0.023 C 
BRANCH   3   2
ATOM      1  C   UNL     1      45.109  10.992  15.755  0.00  0.00    +0.080 C 
ATOM      2  C   UNL     1      46.256  11.414  16.637  0.00  0.00    -0.107 C 
ATOM     26  C   UNL     1      47.027  10.493  17.215  0.00  0.00    +0.036 C 
ENDBRANCH   3   2
ENDBRANCH   5   4
BRANCH  10  11
ATOM     11  O   UNL     1      52.307  18.349  16.617  0.00  0.00    -0.476 OA
ATOM     12  H   UNL     1      53.220  18.471  16.911  0.00  0.00    +0.401 HD
ENDBRANCH  10  11
BRANCH  20  21
ATOM     21  O   UNL     1      45.769  17.706  19.932  0.00  0.00    -0.310 OA
ATOM     22  C   UNL     1      44.827  18.463  19.169  0.00  0.00    +0.227 C 
ENDBRANCH  20  21
BRANCH  23  24
ATOM     24  O   UNL     1      45.089  15.084  19.536  0.00  0.00    -0.471 OA
ATOM     25  H   UNL     1      44.380  15.741  19.568  0.00  0.00    +0.397 HD
ENDBRANCH  23  24
TORSDOF 5
ENDMDL
MODEL 4
REMARK VINA RESULT:      -5.5      4.152      7.192
REMARK  Name = ZINC15258140
REMARK  7 active torsions:
REMARK  status: ('A' for Active; 'I' for Inactive)
REMARK    1  A    between atoms: C1_1  and  C2_2
REMARK    2  A    between atoms: C2_2  and  C4_4
REMARK    3  A    between atoms: C5_5  and  C6_6
REMARK    4  A    between atoms: C11_12  and  O5_24
REMARK    5  A    between atoms: C17_19  and  O4_22
REMARK    6  A    between atoms: C18_20  and  O3_21
REMARK    7  A    between atoms: O4_22  and  C19_23
REMARK                            x       y       z     vdW  Elec       q    Type
REMARK                         _______ _______ _______ _____ _____    ______ ____
ROOT
ATOM      5  C   UNL     1      48.918  17.413  17.945  0.00  0.00    -0.094 A 
ATOM      6  C   UNL     1      49.304  16.257  17.271  0.00  0.00    +0.139 A 
ATOM      7  C   UNL     1      48.397  15.209  17.125  0.00  0.00    -0.221 A 
ATOM      8  C   UNL     1      48.783  13.974  16.414  0.00  0.00    +0.441 A 
ATOM      9  C   UNL     1      47.758  12.920  16.309  0.00  0.00    -0.263 A 
ATOM     10  C   UNL     1      48.032  11.714  15.650  0.00  0.00    +0.205 A 
ATOM     13  C   UNL     1      47.048  10.743  15.568  0.00  0.00    -0.037 A 
ATOM     14  C   UNL     1      45.804  10.967  16.132  0.00  0.00    +0.116 A 
ATOM     15  C   UNL     1      45.525  12.152  16.783  0.00  0.00    -0.009 A 
ATOM     16  C   UNL     1      46.495  13.143  16.880  0.00  0.00    +0.179 A 
ATOM     17  O   UNL     1      46.213  14.298  17.517  0.00  0.00    -0.217 OA
ATOM     18  O   UNL     1      49.894  13.832  15.937  0.00  0.00    -0.431 OA
ATOM     19  C   UNL     1      47.097  15.309  17.653  0.00  0.00    +0.160 A 
ATOM     20  C   UNL     1      46.720  16.469  18.327  0.00  0.00    +0.046 A 
ATOM     23  C   UNL     1      47.617  17.515  18.469  0.00  0.00    +0.166 A 
ENDROOT
BRANCH   5   4
ATOM      3  C   UNL     1      50.768  18.786  17.139  0.00  0.00    +0.020 C 
ATOM      4  C   UNL     1      49.868  18.526  18.105  0.00  0.00    +0.023 C 
BRANCH   3   2
ATOM      1  C   UNL     1      51.463  21.118  16.296  0.00  0.00    +0.080 C 
ATOM      2  C   UNL     1      51.640  19.960  17.245  0.00  0.00    -0.107 C 
ATOM     26  C   UNL     1      52.589  20.003  18.179  0.00  0.00    +0.036 C 
ENDBRANCH   3   2
ENDBRANCH   5   4
BRANCH  10  11
ATOM     11  O   UNL     1      49.253  11.499  15.098  0.00  0.00    -0.476 OA
ATOM     12  H   UNL     1      49.803  10.876  15.593  0.00  0.00    +0.401 HD
ENDBRANCH  10  11
BRANCH  20  21
ATOM     21  O   UNL     1      45.465  16.577  18.842  0.00  0.00    -0.310 OA
ATOM     22  C   UNL     1      45.262  16.074  20.164  0.00  0.00    +0.227 C 
ENDBRANCH  20  21
BRANCH  23  24
ATOM     24  O   UNL     1      47.239  18.644  19.121  0.00  0.00    -0.471 OA
ATOM     25  H   UNL     1      46.359  18.592  19.521  0.00  0.00    +0.397 HD
ENDBRANCH  23  24
TORSDOF 5
ENDMDL
MODEL 5
REMARK VINA RESULT:      -5.4      2.150      7.054
REMARK  Name = ZINC15258140
REMARK  7 active torsions:
REMARK  status: ('A' for Active; 'I' for Inactive)
REMARK    1  A    between atoms: C1_1  and  C2_2
REMARK    2  A    between atoms: C2_2  and  C4_4
REMARK    3  A    between atoms: C5_5  and  C6_6
REMARK    4  A    between atoms: C11_12  and  O5_24
REMARK    5  A    between atoms: C17_19  and  O4_22
REMARK    6  A    between atoms: C18_20  and  O3_21
REMARK    7  A    between atoms: O4_22  and  C19_23
REMARK                            x       y       z     vdW  Elec       q    Type
REMARK                         _______ _______ _______ _____ _____    ______ ____
ROOT
ATOM      5  C   UNL     1      45.222  17.807  19.855  0.00  0.00    -0.094 A 
ATOM      6  C   UNL     1      46.145  18.823  19.618  0.00  0.00    +0.139 A 
ATOM      7  C   UNL     1      47.437  18.500  19.210  0.00  0.00    -0.221 A 
ATOM      8  C   UNL     1      48.432  19.560  18.953  0.00  0.00    +0.441 A 
ATOM      9  C   UNL     1      49.773  19.123  18.523  0.00  0.00    -0.263 A 
ATOM     10  C   UNL     1      50.781  20.057  18.255  0.00  0.00    +0.205 A 
ATOM     13  C   UNL     1      52.030  19.616  17.853  0.00  0.00    -0.037 A 
ATOM     14  C   UNL     1      52.276  18.260  17.718  0.00  0.00    +0.116 A 
ATOM     15  C   UNL     1      51.289  17.333  17.980  0.00  0.00    -0.009 A 
ATOM     16  C   UNL     1      50.026  17.749  18.386  0.00  0.00    +0.179 A 
ATOM     17  O   UNL     1      49.067  16.836  18.639  0.00  0.00    -0.217 OA
ATOM     18  O   UNL     1      48.159  20.739  19.088  0.00  0.00    -0.431 OA
ATOM     19  C   UNL     1      47.817  17.157  19.034  0.00  0.00    +0.160 A 
ATOM     20  C   UNL     1      46.888  16.147  19.274  0.00  0.00    +0.046 A 
ATOM     23  C   UNL     1      45.601  16.464  19.675  0.00  0.00    +0.166 A 
ENDROOT
BRANCH   5   4
ATOM      3  C   UNL     1      43.210  19.185  19.739  0.00  0.00    +0.020 C 
ATOM      4  C   UNL     1      43.854  18.137  20.287  0.00  0.00    +0.023 C 
BRANCH   3   2
ATOM      1  C   UNL     1      40.983  20.372  19.231  0.00  0.00    +0.080 C 
ATOM      2  C   UNL     1      41.811  19.448  20.087  0.00  0.00    -0.107 C 
ATOM     26  C   UNL     1      41.271  18.872  21.160  0.00  0.00    +0.036 C 
ENDBRANCH   3   2
ENDBRANCH   5   4
BRANCH  10  11
ATOM     11  O   UNL     1      50.536  21.386  18.388  0.00  0.00    -0.476 OA
ATOM     12  H   UNL     1      49.835  21.594  19.020  0.00  0.00    +0.401 HD
ENDBRANCH  10  11
BRANCH  20  21
ATOM     21  O   UNL     1      47.244  14.844  19.107  0.00  0.00    -0.310 OA
ATOM     22  C   UNL     1      47.029  14.274  17.815  0.00  0.00    +0.227 C 
ENDBRANCH  20  21
BRANCH  23  24
ATOM     24  O   UNL     1      44.700  15.474  19.900  0.00  0.00    -0.471 OA
ATOM     25  H   UNL     1      45.095  14.596  19.989  0.00  0.00    +0.397 HD
ENDBRANCH  23  24
TORSDOF 5
ENDMDL
MODEL 6
REMARK VINA RESULT:      -5.3      2.454      7.657
REMARK  Name = ZINC15258140
REMARK  7 active torsions:
REMARK  status: ('A' for Active; 'I' for Inactive)
REMARK    1  A    between atoms: C1_1  and  C2_2
REMARK    2  A    between atoms: C2_2  and  C4_4
REMARK    3  A    between atoms: C5_5  and  C6_6
REMARK    4  A    between atoms: C11_12  and  O5_24
REMARK    5  A    between atoms: C17_19  and  O4_22
REMARK    6  A    between atoms: C18_20  and  O3_21
REMARK    7  A    between atoms: O4_22  and  C19_23
REMARK                            x       y       z     vdW  Elec       q    Type
REMARK                         _______ _______ _______ _____ _____    ______ ____
ROOT
ATOM      5  C   UNL     1      45.219  19.639  18.809  0.00  0.00    -0.094 A 
ATOM      6  C   UNL     1      45.667  18.466  18.205  0.00  0.00    +0.139 A 
ATOM      7  C   UNL     1      47.031  18.188  18.168  0.00  0.00    -0.221 A 
ATOM      8  C   UNL     1      47.530  16.951  17.534  0.00  0.00    +0.441 A 
ATOM      9  C   UNL     1      48.989  16.741  17.541  0.00  0.00    -0.263 A 
ATOM     10  C   UNL     1      49.554  15.597  16.965  0.00  0.00    +0.205 A 
ATOM     13  C   UNL     1      50.928  15.428  16.989  0.00  0.00    -0.037 A 
ATOM     14  C   UNL     1      51.734  16.386  17.580  0.00  0.00    +0.116 A 
ATOM     15  C   UNL     1      51.186  17.517  18.149  0.00  0.00    -0.009 A 
ATOM     16  C   UNL     1      49.810  17.711  18.139  0.00  0.00    +0.179 A 
ATOM     17  O   UNL     1      49.283  18.819  18.699  0.00  0.00    -0.217 OA
ATOM     18  O   UNL     1      46.772  16.143  17.029  0.00  0.00    -0.431 OA
ATOM     19  C   UNL     1      47.960  19.081  18.733  0.00  0.00    +0.160 A 
ATOM     20  C   UNL     1      47.503  20.252  19.334  0.00  0.00    +0.046 A 
ATOM     23  C   UNL     1      46.146  20.530  19.378  0.00  0.00    +0.166 A 
ENDROOT
BRANCH   5   4
ATOM      3  C   UNL     1      42.987  19.312  19.742  0.00  0.00    +0.020 C 
ATOM      4  C   UNL     1      43.779  19.943  18.855  0.00  0.00    +0.023 C 
BRANCH   3   2
ATOM      1  C   UNL     1      40.953  20.612  18.847  0.00  0.00    +0.080 C 
ATOM      2  C   UNL     1      41.577  19.692  19.865  0.00  0.00    -0.107 C 
ATOM     26  C   UNL     1      40.847  19.226  20.878  0.00  0.00    +0.036 C 
ENDBRANCH   3   2
ENDBRANCH   5   4
BRANCH  10  11
ATOM     11  O   UNL     1      48.760  14.660  16.387  0.00  0.00    -0.476 OA
ATOM     12  H   UNL     1      48.211  14.169  17.014  0.00  0.00    +0.401 HD
ENDBRANCH  10  11
BRANCH  20  21
ATOM     21  O   UNL     1      48.391  21.124  19.884  0.00  0.00    -0.310 OA
ATOM     22  C   UNL     1      48.719  20.931  21.262  0.00  0.00    +0.227 C 
ENDBRANCH  20  21
BRANCH  23  24
ATOM     24  O   UNL     1      45.710  21.670  19.972  0.00  0.00    -0.471 OA
ATOM     25  H   UNL     1      45.136  22.210  19.411  0.00  0.00    +0.397 HD
ENDBRANCH  23  24
TORSDOF 5
ENDMDL
MODEL 7
REMARK VINA RESULT:      -5.2      2.623      5.054
REMARK  Name = ZINC15258140
REMARK  7 active torsions:
REMARK  status: ('A' for Active; 'I' for Inactive)
REMARK    1  A    between atoms: C1_1  and  C2_2
REMARK    2  A    between atoms: C2_2  and  C4_4
REMARK    3  A    between atoms: C5_5  and  C6_6
REMARK    4  A    between atoms: C11_12  and  O5_24
REMARK    5  A    between atoms: C17_19  and  O4_22
REMARK    6  A    between atoms: C18_20  and  O3_21
REMARK    7  A    between atoms: O4_22  and  C19_23
REMARK                            x       y       z     vdW  Elec       q    Type
REMARK                         _______ _______ _______ _____ _____    ______ ____
ROOT
ATOM      5  C   UNL     1      47.256  17.154  17.779  0.00  0.00    -0.094 A 
ATOM      6  C   UNL     1      46.108  17.933  17.912  0.00  0.00    +0.139 A 
ATOM      7  C   UNL     1      46.159  19.113  18.650  0.00  0.00    -0.221 A 
ATOM      8  C   UNL     1      44.955  19.954  18.806  0.00  0.00    +0.441 A 
ATOM      9  C   UNL     1      45.102  21.185  19.603  0.00  0.00    -0.263 A 
ATOM     10  C   UNL     1      44.016  22.047  19.804  0.00  0.00    +0.205 A 
ATOM     13  C   UNL     1      44.187  23.195  20.557  0.00  0.00    -0.037 A 
ATOM     14  C   UNL     1      45.424  23.488  21.106  0.00  0.00    +0.116 A 
ATOM     15  C   UNL     1      46.499  22.645  20.914  0.00  0.00    -0.009 A 
ATOM     16  C   UNL     1      46.355  21.484  20.162  0.00  0.00    +0.179 A 
ATOM     17  O   UNL     1      47.412  20.667  19.978  0.00  0.00    -0.217 OA
ATOM     18  O   UNL     1      43.891  19.647  18.300  0.00  0.00    -0.431 OA
ATOM     19  C   UNL     1      47.356  19.525  19.261  0.00  0.00    +0.160 A 
ATOM     20  C   UNL     1      48.499  18.740  19.123  0.00  0.00    +0.046 A 
ATOM     23  C   UNL     1      48.455  17.569  18.386  0.00  0.00    +0.166 A 
ENDROOT
BRANCH   5   4
ATOM      3  C   UNL     1      46.822  14.760  17.589  0.00  0.00    +0.020 C 
ATOM      4  C   UNL     1      47.215  15.905  17.001  0.00  0.00    +0.023 C 
BRANCH   3   2
ATOM      1  C   UNL     1      45.630  12.518  17.162  0.00  0.00    +0.080 C 
ATOM      2  C   UNL     1      46.675  13.539  16.791  0.00  0.00    -0.107 C 
ATOM     26  C   UNL     1      47.466  13.331  15.740  0.00  0.00    +0.036 C 
ENDBRANCH   3   2
ENDBRANCH   5   4
BRANCH  10  11
ATOM     11  O   UNL     1      42.805  21.756  19.264  0.00  0.00    -0.476 OA
ATOM     12  H   UNL     1      42.225  21.251  19.849  0.00  0.00    +0.401 HD
ENDBRANCH  10  11
BRANCH  20  21
ATOM     21  O   UNL     1      49.664  19.129  19.709  0.00  0.00    -0.310 OA
ATOM     22  C   UNL     1      50.517  19.987  18.948  0.00  0.00    +0.227 C 
ENDBRANCH  20  21
BRANCH  23  24
ATOM     24  O   UNL     1      49.576  16.814  18.250  0.00  0.00    -0.471 OA
ATOM     25  H   UNL     1      49.601  16.040  18.830  0.00  0.00    +0.397 HD
ENDBRANCH  23  24
TORSDOF 5
ENDMDL
MODEL 8
REMARK VINA RESULT:      -5.0      4.778      7.786
REMARK  Name = ZINC15258140
REMARK  7 active torsions:
REMARK  status: ('A' for Active; 'I' for Inactive)
REMARK    1  A    between atoms: C1_1  and  C2_2
REMARK    2  A    between atoms: C2_2  and  C4_4
REMARK    3  A    between atoms: C5_5  and  C6_6
REMARK    4  A    between atoms: C11_12  and  O5_24
REMARK    5  A    between atoms: C17_19  and  O4_22
REMARK    6  A    between atoms: C18_20  and  O3_21
REMARK    7  A    between atoms: O4_22  and  C19_23
REMARK                            x       y       z     vdW  Elec       q    Type
REMARK                         _______ _______ _______ _____ _____    ______ ____
ROOT
ATOM      5  C   UNL     1      48.932  14.082  16.637  0.00  0.00    -0.094 A 
ATOM      6  C   UNL     1      50.012  14.944  16.810  0.00  0.00    +0.139 A 
ATOM      7  C   UNL     1      49.798  16.222  17.321  0.00  0.00    -0.221 A 
ATOM      8  C   UNL     1      50.928  17.154  17.513  0.00  0.00    +0.441 A 
ATOM      9  C   UNL     1      50.607  18.485  18.060  0.00  0.00    -0.263 A 
ATOM     10  C   UNL     1      51.613  19.434  18.279  0.00  0.00    +0.205 A 
ATOM     13  C   UNL     1      51.280  20.675  18.793  0.00  0.00    -0.037 A 
ATOM     14  C   UNL     1      49.960  20.971  19.090  0.00  0.00    +0.116 A 
ATOM     15  C   UNL     1      48.962  20.043  18.877  0.00  0.00    -0.009 A 
ATOM     16  C   UNL     1      49.270  18.789  18.361  0.00  0.00    +0.179 A 
ATOM     17  O   UNL     1      48.288  17.887  18.158  0.00  0.00    -0.217 OA
ATOM     18  O   UNL     1      52.070  16.838  17.234  0.00  0.00    -0.431 OA
ATOM     19  C   UNL     1      48.503  16.650  17.663  0.00  0.00    +0.160 A 
ATOM     20  C   UNL     1      47.428  15.781  17.486  0.00  0.00    +0.046 A 
ATOM     23  C   UNL     1      47.636  14.507  16.983  0.00  0.00    +0.166 A 
ENDROOT
BRANCH   5   4
ATOM      3  C   UNL     1      50.182  12.490  15.273  0.00  0.00    +0.020 C 
ATOM      4  C   UNL     1      49.145  12.729  16.098  0.00  0.00    +0.023 C 
BRANCH   3   2
ATOM      1  C   UNL     1      51.884  10.675  14.612  0.00  0.00    +0.080 C 
ATOM      2  C   UNL     1      50.460  11.122  14.824  0.00  0.00    -0.107 C 
ATOM     26  C   UNL     1      49.455  10.277  14.601  0.00  0.00    +0.036 C 
ENDBRANCH   3   2
ENDBRANCH   5   4
BRANCH  10  11
ATOM     11  O   UNL     1      52.906  19.139  17.987  0.00  0.00    -0.476 OA
ATOM     12  H   UNL     1      53.278  18.428  18.526  0.00  0.00    +0.401 HD
ENDBRANCH  10  11
BRANCH  20  21
ATOM     21  O   UNL     1      46.169  16.183  17.814  0.00  0.00    -0.310 OA
ATOM     22  C   UNL     1      45.745  15.952  19.159  0.00  0.00    +0.227 C 
ENDBRANCH  20  21
BRANCH  23  24
ATOM     24  O   UNL     1      46.584  13.665  16.821  0.00  0.00    -0.471 OA
ATOM     25  H   UNL     1      45.853  14.043  16.312  0.00  0.00    +0.397 HD
ENDBRANCH  23  24
TORSDOF 5
ENDMDL
MODEL 9
REMARK VINA RESULT:      -4.9      2.894      5.461
REMARK  Name = ZINC15258140
REMARK  7 active torsions:
REMARK  status: ('A' for Active; 'I' for Inactive)
REMARK    1  A    between atoms: C1_1  and  C2_2
REMARK    2  A    between atoms: C2_2  and  C4_4
REMARK    3  A    between atoms: C5_5  and  C6_6
REMARK    4  A    between atoms: C11_12  and  O5_24
REMARK    5  A    between atoms: C17_19  and  O4_22
REMARK    6  A    between atoms: C18_20  and  O3_21
REMARK    7  A    between atoms: O4_22  and  C19_23
REMARK                            x       y       z     vdW  Elec       q    Type
REMARK                         _______ _______ _______ _____ _____    ______ ____
ROOT
ATOM      5  C   UNL     1      47.113  16.580  17.598  0.00  0.00    -0.094 A 
ATOM      6  C   UNL     1      46.052  17.205  18.249  0.00  0.00    +0.139 A 
ATOM      7  C   UNL     1      46.275  18.384  18.955  0.00  0.00    -0.221 A 
ATOM      8  C   UNL     1      45.166  19.064  19.653  0.00  0.00    +0.441 A 
ATOM      9  C   UNL     1      45.496  20.307  20.374  0.00  0.00    -0.263 A 
ATOM     10  C   UNL     1      44.509  21.022  21.064  0.00  0.00    +0.205 A 
ATOM     13  C   UNL     1      44.851  22.186  21.731  0.00  0.00    -0.037 A 
ATOM     14  C   UNL     1      46.160  22.636  21.714  0.00  0.00    +0.116 A 
ATOM     15  C   UNL     1      47.139  21.938  21.038  0.00  0.00    -0.009 A 
ATOM     16  C   UNL     1      46.823  20.766  20.360  0.00  0.00    +0.179 A 
ATOM     17  O   UNL     1      47.786  20.091  19.700  0.00  0.00    -0.217 OA
ATOM     18  O   UNL     1      44.032  18.621  19.634  0.00  0.00    -0.431 OA
ATOM     19  C   UNL     1      47.562  18.949  19.017  0.00  0.00    +0.160 A 
ATOM     20  C   UNL     1      48.618  18.317  18.364  0.00  0.00    +0.046 A 
ATOM     23  C   UNL     1      48.399  17.147  17.655  0.00  0.00    +0.166 A 
ENDROOT
BRANCH   5   4
ATOM      3  C   UNL     1      46.874  14.152  17.495  0.00  0.00    +0.020 C 
ATOM      4  C   UNL     1      46.889  15.333  16.848  0.00  0.00    +0.023 C 
BRANCH   3   2
ATOM      1  C   UNL     1      47.452  12.426  15.675  0.00  0.00    +0.080 C 
ATOM      2  C   UNL     1      46.542  12.923  16.769  0.00  0.00    -0.107 C 
ATOM     26  C   UNL     1      45.436  12.246  17.076  0.00  0.00    +0.036 C 
ENDBRANCH   3   2
ENDBRANCH   5   4
BRANCH  10  11
ATOM     11  O   UNL     1      43.227  20.577  21.078  0.00  0.00    -0.476 OA
ATOM     12  H   UNL     1      43.135  19.651  21.340  0.00  0.00    +0.401 HD
ENDBRANCH  10  11
BRANCH  20  21
ATOM     21  O   UNL     1      49.867  18.854  18.416  0.00  0.00    -0.310 OA
ATOM     22  C   UNL     1      50.707  18.435  19.493  0.00  0.00    +0.227 C 
ENDBRANCH  20  21
BRANCH  23  24
ATOM     24  O   UNL     1      49.432  16.541  17.016  0.00  0.00    -0.471 OA
ATOM     25  H   UNL     1      50.112  16.193  17.609  0.00  0.00    +0.397 HD
ENDBRANCH  23  24
TORSDOF 5
ENDMDL
