MODEL 1
REMARK VINA RESULT:      -7.0      0.000      0.000
REMARK  Name = ZINC95485990
REMARK  9 active torsions:
REMARK  status: ('A' for Active; 'I' for Inactive)
REMARK    1  A    between atoms: C1_1  and  C2_2
REMARK    2  A    between atoms: C2_2  and  C22_28
REMARK    3  A    between atoms: C4_4  and  C6_8
REMARK    4  A    between atoms: C6_8  and  C7_9
REMARK    5  A    between atoms: C6_8  and  C8_10
REMARK    6  A    between atoms: C6_8  and  C9_11
REMARK    7  A    between atoms: C9_11  and  C10_12
REMARK    8  A    between atoms: C10_12  and  O3_13
REMARK    9  A    between atoms: O3_13  and  C11_14
REMARK                            x       y       z     vdW  Elec       q    Type
REMARK                         _______ _______ _______ _____ _____    ______ ____
ROOT
ATOM      9  O   UNL     1      44.985  20.634  20.117  0.00  0.00    -0.324 OA
ENDROOT
BRANCH   9  10
ATOM     10  C   UNL     1      43.853  19.955  20.427  0.00  0.00    +0.219 A 
ATOM     11  C   UNL     1      42.610  20.392  19.950  0.00  0.00    -0.193 A 
ATOM     12  C   UNL     1      42.508  21.585  19.110  0.00  0.00    +0.166 A 
ATOM     13  C   UNL     1      41.276  21.961  18.675  0.00  0.00    -0.079 A 
ATOM     14  C   UNL     1      40.144  21.206  19.040  0.00  0.00    +0.511 A 
ATOM     15  O   UNL     1      40.241  20.112  19.811  0.00  0.00    -0.267 OA
ATOM     16  O   UNL     1      39.046  21.555  18.643  0.00  0.00    -0.455 OA
ATOM     17  C   UNL     1      41.436  19.681  20.277  0.00  0.00    +0.185 A 
ATOM     18  C   UNL     1      41.509  18.550  21.070  0.00  0.00    +0.024 A 
ATOM     19  C   UNL     1      42.736  18.108  21.548  0.00  0.00    +0.123 A 
ATOM     20  O   UNL     1      43.099  17.065  22.322  0.00  0.00    -0.185 OA
ATOM     21  C   UNL     1      44.432  17.043  22.505  0.00  0.00    +0.231 A 
ATOM     22  C   UNL     1      45.003  18.076  21.875  0.00  0.00    -0.025 A 
ATOM     23  C   UNL     1      43.911  18.811  21.221  0.00  0.00    -0.172 A 
ENDBRANCH   9  10
BRANCH   9   8
ATOM      8  C   UNL     1      45.836  20.057  19.123  0.00  0.00    +0.196 C 
BRANCH   8   7
ATOM      7  C   UNL     1      47.193  20.763  19.142  0.00  0.00    +0.057 C 
BRANCH   7   6
ATOM      6  C   UNL     1      48.218  19.875  19.852  0.00  0.00    +0.008 C 
ATOM     24  C   UNL     1      48.175  20.148  21.357  0.00  0.00    +0.051 C 
ATOM     25  C   UNL     1      47.888  18.405  19.590  0.00  0.00    +0.061 C 
BRANCH   6   5
ATOM      1  C   UNL     1      51.583  21.098  16.785  0.00  0.00    +0.084 C 
ATOM      2  C   UNL     1      51.471  20.246  18.052  0.00  0.00    -0.103 C 
ATOM      3  C   UNL     1      52.506  19.119  18.037  0.00  0.00    +0.084 C 
ATOM      4  C   UNL     1      50.069  19.689  18.201  0.00  0.00    -0.058 C 
ATOM      5  C   UNL     1      49.597  20.182  19.325  0.00  0.00    +0.070 C 
ATOM     26  O   UNL     1      50.469  20.987  19.958  0.00  0.00    -0.280 OA
ATOM     27  C   UNL     1      51.630  21.105  19.292  0.00  0.00    +0.492 C 
ATOM     28  O   UNL     1      52.596  21.756  19.614  0.00  0.00    -0.423 OA
ENDBRANCH   6   5
ENDBRANCH   7   6
ENDBRANCH   8   7
ENDBRANCH   9   8
TORSDOF 5
ENDMDL
MODEL 2
REMARK VINA RESULT:      -6.8      1.858      3.275
REMARK  Name = ZINC95485990
REMARK  9 active torsions:
REMARK  status: ('A' for Active; 'I' for Inactive)
REMARK    1  A    between atoms: C1_1  and  C2_2
REMARK    2  A    between atoms: C2_2  and  C22_28
REMARK    3  A    between atoms: C4_4  and  C6_8
REMARK    4  A    between atoms: C6_8  and  C7_9
REMARK    5  A    between atoms: C6_8  and  C8_10
REMARK    6  A    between atoms: C6_8  and  C9_11
REMARK    7  A    between atoms: C9_11  and  C10_12
REMARK    8  A    between atoms: C10_12  and  O3_13
REMARK    9  A    between atoms: O3_13  and  C11_14
REMARK                            x       y       z     vdW  Elec       q    Type
REMARK                         _______ _______ _______ _____ _____    ______ ____
ROOT
ATOM      9  O   UNL     1      44.583  18.902  21.131  0.00  0.00    -0.324 OA
ENDROOT
BRANCH   9  10
ATOM     10  C   UNL     1      44.391  20.190  20.753  0.00  0.00    +0.219 A 
ATOM     11  C   UNL     1      43.226  20.562  20.066  0.00  0.00    -0.193 A 
ATOM     12  C   UNL     1      42.198  19.571  19.746  0.00  0.00    +0.166 A 
ATOM     13  C   UNL     1      41.089  19.989  19.079  0.00  0.00    -0.079 A 
ATOM     14  C   UNL     1      40.958  21.344  18.718  0.00  0.00    +0.511 A 
ATOM     15  O   UNL     1      41.903  22.250  19.014  0.00  0.00    -0.267 OA
ATOM     16  O   UNL     1      39.959  21.705  18.121  0.00  0.00    -0.455 OA
ATOM     17  C   UNL     1      43.031  21.903  19.676  0.00  0.00    +0.185 A 
ATOM     18  C   UNL     1      43.990  22.856  19.969  0.00  0.00    +0.024 A 
ATOM     19  C   UNL     1      45.148  22.498  20.649  0.00  0.00    +0.123 A 
ATOM     20  O   UNL     1      46.225  23.198  21.058  0.00  0.00    -0.185 OA
ATOM     21  C   UNL     1      47.099  22.403  21.702  0.00  0.00    +0.231 A 
ATOM     22  C   UNL     1      46.644  21.144  21.733  0.00  0.00    -0.025 A 
ATOM     23  C   UNL     1      45.345  21.162  21.046  0.00  0.00    -0.172 A 
ENDBRANCH   9  10
BRANCH   9   8
ATOM      8  C   UNL     1      45.007  17.985  20.119  0.00  0.00    +0.196 C 
BRANCH   8   7
ATOM      7  C   UNL     1      46.524  17.803  20.200  0.00  0.00    +0.057 C 
BRANCH   7   6
ATOM      6  C   UNL     1      47.135  18.001  18.812  0.00  0.00    +0.008 C 
ATOM     24  C   UNL     1      47.299  16.643  18.126  0.00  0.00    +0.051 C 
ATOM     25  C   UNL     1      46.214  18.888  17.971  0.00  0.00    +0.061 C 
BRANCH   6   5
ATOM      1  C   UNL     1      50.494  20.830  20.525  0.00  0.00    +0.084 C 
ATOM      2  C   UNL     1      50.138  20.194  19.180  0.00  0.00    -0.103 C 
ATOM      3  C   UNL     1      50.635  21.064  18.023  0.00  0.00    +0.084 C 
ATOM      4  C   UNL     1      48.643  19.961  19.076  0.00  0.00    -0.058 C 
ATOM      5  C   UNL     1      48.483  18.662  18.947  0.00  0.00    +0.070 C 
ATOM     26  O   UNL     1      49.644  17.983  18.947  0.00  0.00    -0.280 OA
ATOM     27  C   UNL     1      50.708  18.792  19.081  0.00  0.00    +0.492 C 
ATOM     28  O   UNL     1      51.873  18.470  19.115  0.00  0.00    -0.423 OA
ENDBRANCH   6   5
ENDBRANCH   7   6
ENDBRANCH   8   7
ENDBRANCH   9   8
TORSDOF 5
ENDMDL
MODEL 3
REMARK VINA RESULT:      -6.7      1.483      1.988
REMARK  Name = ZINC95485990
REMARK  9 active torsions:
REMARK  status: ('A' for Active; 'I' for Inactive)
REMARK    1  A    between atoms: C1_1  and  C2_2
REMARK    2  A    between atoms: C2_2  and  C22_28
REMARK    3  A    between atoms: C4_4  and  C6_8
REMARK    4  A    between atoms: C6_8  and  C7_9
REMARK    5  A    between atoms: C6_8  and  C8_10
REMARK    6  A    between atoms: C6_8  and  C9_11
REMARK    7  A    between atoms: C9_11  and  C10_12
REMARK    8  A    between atoms: C10_12  and  O3_13
REMARK    9  A    between atoms: O3_13  and  C11_14
REMARK                            x       y       z     vdW  Elec       q    Type
REMARK                         _______ _______ _______ _____ _____    ______ ____
ROOT
ATOM      9  O   UNL     1      45.962  21.012  21.839  0.00  0.00    -0.324 OA
ENDROOT
BRANCH   9  10
ATOM     10  C   UNL     1      44.934  20.249  21.390  0.00  0.00    +0.219 A 
ATOM     11  C   UNL     1      43.932  20.812  20.588  0.00  0.00    -0.193 A 
ATOM     12  C   UNL     1      43.974  22.227  20.220  0.00  0.00    +0.166 A 
ATOM     13  C   UNL     1      42.975  22.717  19.439  0.00  0.00    -0.079 A 
ATOM     14  C   UNL     1      41.938  21.865  19.010  0.00  0.00    +0.511 A 
ATOM     15  O   UNL     1      41.903  20.567  19.350  0.00  0.00    -0.267 OA
ATOM     16  O   UNL     1      41.049  22.319  18.311  0.00  0.00    -0.455 OA
ATOM     17  C   UNL     1      42.865  20.014  20.123  0.00  0.00    +0.185 A 
ATOM     18  C   UNL     1      42.806  18.674  20.459  0.00  0.00    +0.024 A 
ATOM     19  C   UNL     1      43.794  18.106  21.254  0.00  0.00    +0.123 A 
ATOM     20  O   UNL     1      43.988  16.859  21.728  0.00  0.00    -0.185 OA
ATOM     21  C   UNL     1      45.118  16.790  22.455  0.00  0.00    +0.231 A 
ATOM     22  C   UNL     1      45.710  17.990  22.505  0.00  0.00    -0.025 A 
ATOM     23  C   UNL     1      44.864  18.896  21.716  0.00  0.00    -0.172 A 
ENDBRANCH   9  10
BRANCH   9   8
ATOM      8  C   UNL     1      46.950  21.399  20.881  0.00  0.00    +0.196 C 
BRANCH   8   7
ATOM      7  C   UNL     1      47.992  20.287  20.746  0.00  0.00    +0.057 C 
BRANCH   7   6
ATOM      6  C   UNL     1      47.942  19.711  19.330  0.00  0.00    +0.008 C 
ATOM     24  C   UNL     1      47.482  18.253  19.387  0.00  0.00    +0.051 C 
ATOM     25  C   UNL     1      46.959  20.523  18.484  0.00  0.00    +0.061 C 
BRANCH   6   5
ATOM      1  C   UNL     1      52.495  20.831  18.843  0.00  0.00    +0.084 C 
ATOM      2  C   UNL     1      51.309  20.520  17.927  0.00  0.00    -0.103 C 
ATOM      3  C   UNL     1      51.461  21.241  16.586  0.00  0.00    +0.084 C 
ATOM      4  C   UNL     1      50.002  20.896  18.597  0.00  0.00    -0.058 C 
ATOM      5  C   UNL     1      49.315  19.781  18.711  0.00  0.00    +0.070 C 
ATOM     26  O   UNL     1      49.960  18.709  18.218  0.00  0.00    -0.280 OA
ATOM     27  C   UNL     1      51.167  19.024  17.720  0.00  0.00    +0.492 C 
ATOM     28  O   UNL     1      51.970  18.275  17.214  0.00  0.00    -0.423 OA
ENDBRANCH   6   5
ENDBRANCH   7   6
ENDBRANCH   8   7
ENDBRANCH   9   8
TORSDOF 5
ENDMDL
MODEL 4
REMARK VINA RESULT:      -6.7      2.157      4.403
REMARK  Name = ZINC95485990
REMARK  9 active torsions:
REMARK  status: ('A' for Active; 'I' for Inactive)
REMARK    1  A    between atoms: C1_1  and  C2_2
REMARK    2  A    between atoms: C2_2  and  C22_28
REMARK    3  A    between atoms: C4_4  and  C6_8
REMARK    4  A    between atoms: C6_8  and  C7_9
REMARK    5  A    between atoms: C6_8  and  C8_10
REMARK    6  A    between atoms: C6_8  and  C9_11
REMARK    7  A    between atoms: C9_11  and  C10_12
REMARK    8  A    between atoms: C10_12  and  O3_13
REMARK    9  A    between atoms: O3_13  and  C11_14
REMARK                            x       y       z     vdW  Elec       q    Type
REMARK                         _______ _______ _______ _____ _____    ______ ____
ROOT
ATOM      9  O   UNL     1      43.864  19.097  20.985  0.00  0.00    -0.324 OA
ENDROOT
BRANCH   9  10
ATOM     10  C   UNL     1      43.618  20.333  20.485  0.00  0.00    +0.219 A 
ATOM     11  C   UNL     1      44.485  21.398  20.767  0.00  0.00    -0.193 A 
ATOM     12  C   UNL     1      45.669  21.198  21.603  0.00  0.00    +0.166 A 
ATOM     13  C   UNL     1      46.474  22.267  21.842  0.00  0.00    -0.079 A 
ATOM     14  C   UNL     1      46.154  23.522  21.290  0.00  0.00    +0.511 A 
ATOM     15  O   UNL     1      45.067  23.702  20.523  0.00  0.00    -0.267 OA
ATOM     16  O   UNL     1      46.885  24.472  21.513  0.00  0.00    -0.455 OA
ATOM     17  C   UNL     1      44.224  22.682  20.244  0.00  0.00    +0.185 A 
ATOM     18  C   UNL     1      43.110  22.893  19.452  0.00  0.00    +0.024 A 
ATOM     19  C   UNL     1      42.244  21.845  19.166  0.00  0.00    +0.123 A 
ATOM     20  O   UNL     1      41.111  21.762  18.441  0.00  0.00    -0.185 OA
ATOM     21  C   UNL     1      40.628  20.506  18.445  0.00  0.00    +0.231 A 
ATOM     22  C   UNL     1      41.411  19.711  19.184  0.00  0.00    -0.025 A 
ATOM     23  C   UNL     1      42.503  20.561  19.680  0.00  0.00    -0.172 A 
ENDBRANCH   9  10
BRANCH   9   8
ATOM      8  C   UNL     1      44.315  18.102  20.062  0.00  0.00    +0.196 C 
BRANCH   8   7
ATOM      7  C   UNL     1      45.840  18.001  20.128  0.00  0.00    +0.057 C 
BRANCH   7   6
ATOM      6  C   UNL     1      46.419  18.124  18.717  0.00  0.00    +0.008 C 
ATOM     24  C   UNL     1      46.376  16.760  18.026  0.00  0.00    +0.051 C 
ATOM     25  C   UNL     1      45.593  19.129  17.912  0.00  0.00    +0.061 C 
BRANCH   6   5
ATOM      1  C   UNL     1      50.356  19.915  20.593  0.00  0.00    +0.084 C 
ATOM      2  C   UNL     1      49.706  19.832  19.210  0.00  0.00    -0.103 C 
ATOM      3  C   UNL     1      50.121  21.025  18.347  0.00  0.00    +0.084 C 
ATOM      4  C   UNL     1      48.197  19.752  19.331  0.00  0.00    -0.058 C 
ATOM      5  C   UNL     1      47.847  18.601  18.800  0.00  0.00    +0.070 C 
ATOM     26  O   UNL     1      48.892  17.891  18.338  0.00  0.00    -0.280 OA
ATOM     27  C   UNL     1      50.062  18.525  18.527  0.00  0.00    +0.492 C 
ATOM     28  O   UNL     1      51.164  18.136  18.217  0.00  0.00    -0.423 OA
ENDBRANCH   6   5
ENDBRANCH   7   6
ENDBRANCH   8   7
ENDBRANCH   9   8
TORSDOF 5
ENDMDL
MODEL 5
REMARK VINA RESULT:      -6.4      2.700      4.941
REMARK  Name = ZINC95485990
REMARK  9 active torsions:
REMARK  status: ('A' for Active; 'I' for Inactive)
REMARK    1  A    between atoms: C1_1  and  C2_2
REMARK    2  A    between atoms: C2_2  and  C22_28
REMARK    3  A    between atoms: C4_4  and  C6_8
REMARK    4  A    between atoms: C6_8  and  C7_9
REMARK    5  A    between atoms: C6_8  and  C8_10
REMARK    6  A    between atoms: C6_8  and  C9_11
REMARK    7  A    between atoms: C9_11  and  C10_12
REMARK    8  A    between atoms: C10_12  and  O3_13
REMARK    9  A    between atoms: O3_13  and  C11_14
REMARK                            x       y       z     vdW  Elec       q    Type
REMARK                         _______ _______ _______ _____ _____    ______ ____
ROOT
ATOM      9  O   UNL     1      45.815  17.012  17.804  0.00  0.00    -0.324 OA
ENDROOT
BRANCH   9  10
ATOM     10  C   UNL     1      45.244  17.127  19.029  0.00  0.00    +0.219 A 
ATOM     11  C   UNL     1      45.250  16.044  19.919  0.00  0.00    -0.193 A 
ATOM     12  C   UNL     1      45.869  14.772  19.546  0.00  0.00    +0.166 A 
ATOM     13  C   UNL     1      45.845  13.757  20.450  0.00  0.00    -0.079 A 
ATOM     14  C   UNL     1      45.233  13.950  21.704  0.00  0.00    +0.511 A 
ATOM     15  O   UNL     1      44.665  15.118  22.042  0.00  0.00    -0.267 OA
ATOM     16  O   UNL     1      45.219  13.030  22.504  0.00  0.00    -0.455 OA
ATOM     17  C   UNL     1      44.654  16.170  21.192  0.00  0.00    +0.185 A 
ATOM     18  C   UNL     1      44.063  17.363  21.564  0.00  0.00    +0.024 A 
ATOM     19  C   UNL     1      44.052  18.442  20.690  0.00  0.00    +0.123 A 
ATOM     20  O   UNL     1      43.560  19.694  20.783  0.00  0.00    -0.185 OA
ATOM     21  C   UNL     1      43.811  20.394  19.661  0.00  0.00    +0.231 A 
ATOM     22  C   UNL     1      44.464  19.632  18.776  0.00  0.00    -0.025 A 
ATOM     23  C   UNL     1      44.649  18.324  19.421  0.00  0.00    -0.172 A 
ENDBRANCH   9  10
BRANCH   9   8
ATOM      8  C   UNL     1      47.029  17.735  17.583  0.00  0.00    +0.196 C 
BRANCH   8   7
ATOM      7  C   UNL     1      48.193  16.751  17.455  0.00  0.00    +0.057 C 
BRANCH   7   6
ATOM      6  C   UNL     1      49.260  17.087  18.498  0.00  0.00    +0.008 C 
ATOM     24  C   UNL     1      48.589  17.645  19.755  0.00  0.00    +0.051 C 
ATOM     25  C   UNL     1      50.040  15.821  18.856  0.00  0.00    +0.061 C 
BRANCH   6   5
ATOM      1  C   UNL     1      52.893  20.085  18.307  0.00  0.00    +0.084 C 
ATOM      2  C   UNL     1      51.511  19.950  17.662  0.00  0.00    -0.103 C 
ATOM      3  C   UNL     1      50.949  21.325  17.298  0.00  0.00    +0.084 C 
ATOM      4  C   UNL     1      50.563  19.204  18.580  0.00  0.00    -0.058 C 
ATOM      5  C   UNL     1      50.206  18.116  17.934  0.00  0.00    +0.070 C 
ATOM     26  O   UNL     1      50.771  18.015  16.717  0.00  0.00    -0.280 OA
ATOM     27  C   UNL     1      51.575  19.054  16.439  0.00  0.00    +0.492 C 
ATOM     28  O   UNL     1      52.214  19.237  15.429  0.00  0.00    -0.423 OA
ENDBRANCH   6   5
ENDBRANCH   7   6
ENDBRANCH   8   7
ENDBRANCH   9   8
TORSDOF 5
ENDMDL
MODEL 6
REMARK VINA RESULT:      -6.2      3.059      3.849
REMARK  Name = ZINC95485990
REMARK  9 active torsions:
REMARK  status: ('A' for Active; 'I' for Inactive)
REMARK    1  A    between atoms: C1_1  and  C2_2
REMARK    2  A    between atoms: C2_2  and  C22_28
REMARK    3  A    between atoms: C4_4  and  C6_8
REMARK    4  A    between atoms: C6_8  and  C7_9
REMARK    5  A    between atoms: C6_8  and  C8_10
REMARK    6  A    between atoms: C6_8  and  C9_11
REMARK    7  A    between atoms: C9_11  and  C10_12
REMARK    8  A    between atoms: C10_12  and  O3_13
REMARK    9  A    between atoms: O3_13  and  C11_14
REMARK                            x       y       z     vdW  Elec       q    Type
REMARK                         _______ _______ _______ _____ _____    ______ ____
ROOT
ATOM      9  O   UNL     1      45.853  17.025  17.951  0.00  0.00    -0.324 OA
ENDROOT
BRANCH   9  10
ATOM     10  C   UNL     1      45.569  17.461  19.204  0.00  0.00    +0.219 A 
ATOM     11  C   UNL     1      45.551  18.834  19.490  0.00  0.00    -0.193 A 
ATOM     12  C   UNL     1      45.838  19.819  18.447  0.00  0.00    +0.166 A 
ATOM     13  C   UNL     1      45.805  21.136  18.782  0.00  0.00    -0.079 A 
ATOM     14  C   UNL     1      45.503  21.515  20.105  0.00  0.00    +0.511 A 
ATOM     15  O   UNL     1      45.241  20.608  21.058  0.00  0.00    -0.267 OA
ATOM     16  O   UNL     1      45.477  22.700  20.391  0.00  0.00    -0.455 OA
ATOM     17  C   UNL     1      45.254  19.282  20.794  0.00  0.00    +0.185 A 
ATOM     18  C   UNL     1      44.981  18.367  21.795  0.00  0.00    +0.024 A 
ATOM     19  C   UNL     1      44.995  17.005  21.522  0.00  0.00    +0.123 A 
ATOM     20  O   UNL     1      44.773  15.914  22.282  0.00  0.00    -0.185 OA
ATOM     21  C   UNL     1      44.890  14.788  21.554  0.00  0.00    +0.231 A 
ATOM     22  C   UNL     1      45.208  15.086  20.289  0.00  0.00    -0.025 A 
ATOM     23  C   UNL     1      45.285  16.552  20.221  0.00  0.00    -0.172 A 
ENDBRANCH   9  10
BRANCH   9   8
ATOM      8  C   UNL     1      46.972  16.146  17.809  0.00  0.00    +0.196 C 
BRANCH   8   7
ATOM      7  C   UNL     1      48.067  16.842  16.998  0.00  0.00    +0.057 C 
BRANCH   7   6
ATOM      6  C   UNL     1      49.417  16.640  17.689  0.00  0.00    +0.008 C 
ATOM     24  C   UNL     1      49.195  16.392  19.182  0.00  0.00    +0.051 C 
ATOM     25  C   UNL     1      50.130  15.435  17.072  0.00  0.00    +0.061 C 
BRANCH   6   5
ATOM      1  C   UNL     1      52.745  19.861  18.568  0.00  0.00    +0.084 C 
ATOM      2  C   UNL     1      51.389  19.809  17.860  0.00  0.00    -0.103 C 
ATOM      3  C   UNL     1      50.700  21.174  17.914  0.00  0.00    +0.084 C 
ATOM      4  C   UNL     1      50.508  18.735  18.467  0.00  0.00    -0.058 C 
ATOM      5  C   UNL     1      50.264  17.873  17.505  0.00  0.00    +0.070 C 
ATOM     26  O   UNL     1      50.847  18.204  16.338  0.00  0.00    -0.280 OA
ATOM     27  C   UNL     1      51.550  19.345  16.425  0.00  0.00    +0.492 C 
ATOM     28  O   UNL     1      52.177  19.887  15.545  0.00  0.00    -0.423 OA
ENDBRANCH   6   5
ENDBRANCH   7   6
ENDBRANCH   8   7
ENDBRANCH   9   8
TORSDOF 5
ENDMDL
MODEL 7
REMARK VINA RESULT:      -6.2      1.457      3.833
REMARK  Name = ZINC95485990
REMARK  9 active torsions:
REMARK  status: ('A' for Active; 'I' for Inactive)
REMARK    1  A    between atoms: C1_1  and  C2_2
REMARK    2  A    between atoms: C2_2  and  C22_28
REMARK    3  A    between atoms: C4_4  and  C6_8
REMARK    4  A    between atoms: C6_8  and  C7_9
REMARK    5  A    between atoms: C6_8  and  C8_10
REMARK    6  A    between atoms: C6_8  and  C9_11
REMARK    7  A    between atoms: C9_11  and  C10_12
REMARK    8  A    between atoms: C10_12  and  O3_13
REMARK    9  A    between atoms: O3_13  and  C11_14
REMARK                            x       y       z     vdW  Elec       q    Type
REMARK                         _______ _______ _______ _____ _____    ______ ____
ROOT
ATOM      9  O   UNL     1      46.113  21.380  21.960  0.00  0.00    -0.324 OA
ENDROOT
BRANCH   9  10
ATOM     10  C   UNL     1      45.100  20.717  21.348  0.00  0.00    +0.219 A 
ATOM     11  C   UNL     1      44.948  19.334  21.525  0.00  0.00    -0.193 A 
ATOM     12  C   UNL     1      45.876  18.582  22.370  0.00  0.00    +0.166 A 
ATOM     13  C   UNL     1      45.679  17.243  22.505  0.00  0.00    -0.079 A 
ATOM     14  C   UNL     1      44.605  16.622  21.839  0.00  0.00    +0.511 A 
ATOM     15  O   UNL     1      43.756  17.316  21.065  0.00  0.00    -0.267 OA
ATOM     16  O   UNL     1      44.441  15.422  21.969  0.00  0.00    -0.455 OA
ATOM     17  C   UNL     1      43.892  18.650  20.887  0.00  0.00    +0.185 A 
ATOM     18  C   UNL     1      43.005  19.342  20.084  0.00  0.00    +0.024 A 
ATOM     19  C   UNL     1      43.146  20.713  19.902  0.00  0.00    +0.123 A 
ATOM     20  O   UNL     1      42.447  21.622  19.193  0.00  0.00    -0.185 OA
ATOM     21  C   UNL     1      42.968  22.853  19.342  0.00  0.00    +0.231 A 
ATOM     22  C   UNL     1      44.041  22.807  20.141  0.00  0.00    -0.025 A 
ATOM     23  C   UNL     1      44.194  21.401  20.541  0.00  0.00    -0.172 A 
ENDBRANCH   9  10
BRANCH   9   8
ATOM      8  C   UNL     1      47.228  21.754  21.147  0.00  0.00    +0.196 C 
BRANCH   8   7
ATOM      7  C   UNL     1      48.237  20.605  21.107  0.00  0.00    +0.057 C 
BRANCH   7   6
ATOM      6  C   UNL     1      48.375  20.098  19.670  0.00  0.00    +0.008 C 
ATOM     24  C   UNL     1      48.017  18.612  19.616  0.00  0.00    +0.051 C 
ATOM     25  C   UNL     1      47.429  20.884  18.759  0.00  0.00    +0.061 C 
BRANCH   6   5
ATOM      1  C   UNL     1      51.962  20.976  16.740  0.00  0.00    +0.084 C 
ATOM      2  C   UNL     1      51.729  20.180  18.026  0.00  0.00    -0.103 C 
ATOM      3  C   UNL     1      52.681  18.984  18.099  0.00  0.00    +0.084 C 
ATOM      4  C   UNL     1      50.285  19.726  18.122  0.00  0.00    -0.058 C 
ATOM      5  C   UNL     1      49.796  20.290  19.204  0.00  0.00    +0.070 C 
ATOM     26  O   UNL     1      50.691  21.055  19.854  0.00  0.00    -0.280 OA
ATOM     27  C   UNL     1      51.888  21.069  19.244  0.00  0.00    +0.492 C 
ATOM     28  O   UNL     1      52.881  21.664  19.594  0.00  0.00    -0.423 OA
ENDBRANCH   6   5
ENDBRANCH   7   6
ENDBRANCH   8   7
ENDBRANCH   9   8
TORSDOF 5
ENDMDL
MODEL 8
REMARK VINA RESULT:      -6.1      1.773      3.007
REMARK  Name = ZINC95485990
REMARK  9 active torsions:
REMARK  status: ('A' for Active; 'I' for Inactive)
REMARK    1  A    between atoms: C1_1  and  C2_2
REMARK    2  A    between atoms: C2_2  and  C22_28
REMARK    3  A    between atoms: C4_4  and  C6_8
REMARK    4  A    between atoms: C6_8  and  C7_9
REMARK    5  A    between atoms: C6_8  and  C8_10
REMARK    6  A    between atoms: C6_8  and  C9_11
REMARK    7  A    between atoms: C9_11  and  C10_12
REMARK    8  A    between atoms: C10_12  and  O3_13
REMARK    9  A    between atoms: O3_13  and  C11_14
REMARK                            x       y       z     vdW  Elec       q    Type
REMARK                         _______ _______ _______ _____ _____    ______ ____
ROOT
ATOM      9  O   UNL     1      44.926  20.613  19.864  0.00  0.00    -0.324 OA
ENDROOT
BRANCH   9  10
ATOM     10  C   UNL     1      43.800  19.983  20.280  0.00  0.00    +0.219 A 
ATOM     11  C   UNL     1      42.540  20.428  19.854  0.00  0.00    -0.193 A 
ATOM     12  C   UNL     1      42.416  21.576  18.957  0.00  0.00    +0.166 A 
ATOM     13  C   UNL     1      41.169  21.962  18.577  0.00  0.00    -0.079 A 
ATOM     14  C   UNL     1      40.043  21.260  19.050  0.00  0.00    +0.511 A 
ATOM     15  O   UNL     1      40.162  20.207  19.874  0.00  0.00    -0.267 OA
ATOM     16  O   UNL     1      38.932  21.617  18.701  0.00  0.00    -0.455 OA
ATOM     17  C   UNL     1      41.371  19.768  20.290  0.00  0.00    +0.185 A 
ATOM     18  C   UNL     1      41.466  18.681  21.139  0.00  0.00    +0.024 A 
ATOM     19  C   UNL     1      42.709  18.231  21.566  0.00  0.00    +0.123 A 
ATOM     20  O   UNL     1      43.094  17.222  22.373  0.00  0.00    -0.185 OA
ATOM     21  C   UNL     1      44.434  17.172  22.477  0.00  0.00    +0.231 A 
ATOM     22  C   UNL     1      44.991  18.154  21.757  0.00  0.00    -0.025 A 
ATOM     23  C   UNL     1      43.879  18.882  21.130  0.00  0.00    -0.172 A 
ENDBRANCH   9  10
BRANCH   9   8
ATOM      8  C   UNL     1      45.762  19.907  18.943  0.00  0.00    +0.196 C 
BRANCH   8   7
ATOM      7  C   UNL     1      47.026  20.726  18.671  0.00  0.00    +0.057 C 
BRANCH   7   6
ATOM      6  C   UNL     1      48.212  20.087  19.396  0.00  0.00    +0.008 C 
ATOM     24  C   UNL     1      49.516  20.696  18.878  0.00  0.00    +0.051 C 
ATOM     25  C   UNL     1      48.090  20.345  20.899  0.00  0.00    +0.061 C 
BRANCH   6   5
ATOM      1  C   UNL     1      46.855  15.579  19.642  0.00  0.00    +0.084 C 
ATOM      2  C   UNL     1      48.155  16.351  19.407  0.00  0.00    -0.103 C 
ATOM      3  C   UNL     1      49.359  15.538  19.886  0.00  0.00    +0.084 C 
ATOM      4  C   UNL     1      48.108  17.702  20.094  0.00  0.00    -0.058 C 
ATOM      5  C   UNL     1      48.215  18.601  19.140  0.00  0.00    +0.070 C 
ATOM     26  O   UNL     1      48.327  18.061  17.913  0.00  0.00    -0.280 OA
ATOM     27  C   UNL     1      48.304  16.719  17.943  0.00  0.00    +0.492 C 
ATOM     28  O   UNL     1      48.386  15.964  17.002  0.00  0.00    -0.423 OA
ENDBRANCH   6   5
ENDBRANCH   7   6
ENDBRANCH   8   7
ENDBRANCH   9   8
TORSDOF 5
ENDMDL
MODEL 9
REMARK VINA RESULT:      -6.1      3.320      5.273
REMARK  Name = ZINC95485990
REMARK  9 active torsions:
REMARK  status: ('A' for Active; 'I' for Inactive)
REMARK    1  A    between atoms: C1_1  and  C2_2
REMARK    2  A    between atoms: C2_2  and  C22_28
REMARK    3  A    between atoms: C4_4  and  C6_8
REMARK    4  A    between atoms: C6_8  and  C7_9
REMARK    5  A    between atoms: C6_8  and  C8_10
REMARK    6  A    between atoms: C6_8  and  C9_11
REMARK    7  A    between atoms: C9_11  and  C10_12
REMARK    8  A    between atoms: C10_12  and  O3_13
REMARK    9  A    between atoms: O3_13  and  C11_14
REMARK                            x       y       z     vdW  Elec       q    Type
REMARK                         _______ _______ _______ _____ _____    ______ ____
ROOT
ATOM      9  O   UNL     1      44.540  18.887  20.820  0.00  0.00    -0.324 OA
ENDROOT
BRANCH   9  10
ATOM     10  C   UNL     1      44.319  20.186  20.500  0.00  0.00    +0.219 A 
ATOM     11  C   UNL     1      43.123  20.570  19.878  0.00  0.00    -0.193 A 
ATOM     12  C   UNL     1      42.092  19.581  19.563  0.00  0.00    +0.166 A 
ATOM     13  C   UNL     1      40.951  20.012  18.961  0.00  0.00    -0.079 A 
ATOM     14  C   UNL     1      40.793  21.378  18.657  0.00  0.00    +0.511 A 
ATOM     15  O   UNL     1      41.741  22.282  18.947  0.00  0.00    -0.267 OA
ATOM     16  O   UNL     1      39.765  21.749  18.116  0.00  0.00    -0.455 OA
ATOM     17  C   UNL     1      42.899  21.923  19.547  0.00  0.00    +0.185 A 
ATOM     18  C   UNL     1      43.860  22.874  19.835  0.00  0.00    +0.024 A 
ATOM     19  C   UNL     1      45.049  22.505  20.451  0.00  0.00    +0.123 A 
ATOM     20  O   UNL     1      46.137  23.200  20.841  0.00  0.00    -0.185 OA
ATOM     21  C   UNL     1      47.044  22.391  21.417  0.00  0.00    +0.231 A 
ATOM     22  C   UNL     1      46.603  21.128  21.419  0.00  0.00    -0.025 A 
ATOM     23  C   UNL     1      45.276  21.157  20.789  0.00  0.00    -0.172 A 
ENDBRANCH   9  10
BRANCH   9   8
ATOM      8  C   UNL     1      45.041  18.039  19.784  0.00  0.00    +0.196 C 
BRANCH   8   7
ATOM      7  C   UNL     1      46.495  17.673  20.084  0.00  0.00    +0.057 C 
BRANCH   7   6
ATOM      6  C   UNL     1      47.216  17.339  18.776  0.00  0.00    +0.008 C 
ATOM     24  C   UNL     1      46.649  18.200  17.646  0.00  0.00    +0.051 C 
ATOM     25  C   UNL     1      48.711  17.622  18.931  0.00  0.00    +0.061 C 
BRANCH   6   5
ATOM      1  C   UNL     1      45.230  13.064  18.795  0.00  0.00    +0.084 C 
ATOM      2  C   UNL     1      46.629  13.653  18.606  0.00  0.00    -0.103 C 
ATOM      3  C   UNL     1      47.699  12.655  19.053  0.00  0.00    +0.084 C 
ATOM      4  C   UNL     1      46.765  14.963  19.357  0.00  0.00    -0.058 C 
ATOM      5  C   UNL     1      47.011  15.882  18.449  0.00  0.00    +0.070 C 
ATOM     26  O   UNL     1      47.063  15.390  17.198  0.00  0.00    -0.280 OA
ATOM     27  C   UNL     1      46.848  14.064  17.162  0.00  0.00    +0.492 C 
ATOM     28  O   UNL     1      46.834  13.351  16.186  0.00  0.00    -0.423 OA
ENDBRANCH   6   5
ENDBRANCH   7   6
ENDBRANCH   8   7
ENDBRANCH   9   8
TORSDOF 5
ENDMDL
