MODEL 1
REMARK VINA RESULT:      -5.5      0.000      0.000
REMARK  Name = ZINC95486162
REMARK  13 active torsions:
REMARK  status: ('A' for Active; 'I' for Inactive)
REMARK    1  A    between atoms: C1_1  and  C2_2
REMARK    2  A    between atoms: C6_6  and  O1_8
REMARK    3  A    between atoms: O1_8  and  C8_9
REMARK    4  A    between atoms: C9_10  and  O4_33
REMARK    5  A    between atoms: C11_12  and  C26_32
REMARK    6  A    between atoms: C12_13  and  C13_14
REMARK    7  A    between atoms: C14_15  and  O3_30
REMARK    8  A    between atoms: C16_17  and  O2_28
REMARK    9  A    between atoms: C20_21  and  C23_27
REMARK   10  A    between atoms: C21_24  and  C22_26
REMARK   11  A    between atoms: O2_28  and  C24_29
REMARK   12  A    between atoms: O3_30  and  C25_31
REMARK   13  A    between atoms: O4_33  and  C27_34
REMARK                            x       y       z     vdW  Elec       q    Type
REMARK                         _______ _______ _______ _____ _____    ______ ____
ROOT
ATOM     16  C   UNL     1      50.757  17.604  19.552  0.00  0.00    -0.078 A 
ATOM     17  C   UNL     1      50.516  17.498  20.926  0.00  0.00    +0.210 A 
ATOM     20  C   UNL     1      50.658  18.612  21.734  0.00  0.00    -0.147 A 
ATOM     21  C   UNL     1      51.036  19.824  21.180  0.00  0.00    +0.202 A 
ATOM     24  C   UNL     1      51.277  19.934  19.811  0.00  0.00    -0.206 A 
ATOM     25  C   UNL     1      51.681  21.275  19.259  0.00  0.00    +0.244 C 
ATOM     26  C   UNL     1      52.673  21.938  20.217  0.00  0.00    +0.098 C 
ATOM     27  N   UNL     1      52.324  21.120  17.947  0.00  0.00    -0.505 N 
ATOM     28  H   UNL     1      52.500  22.030  17.548  0.00  0.00    +0.430 HD
ATOM     29  H   UNL     1      53.195  20.620  18.047  0.00  0.00    +0.427 HD
ATOM     30  C   UNL     1      51.421  20.363  17.067  0.00  0.00    +0.173 C 
ATOM     31  C   UNL     1      51.912  20.450  15.622  0.00  0.00    +0.093 C 
ATOM     32  C   UNL     1      51.410  18.902  17.520  0.00  0.00    +0.137 C 
ATOM     33  C   UNL     1      51.146  18.829  19.002  0.00  0.00    -0.002 A 
ENDROOT
BRANCH  16  15
ATOM      1  C   UNL     1      45.840  17.495  18.009  0.00  0.00    +0.092 C 
ATOM      2  C   UNL     1      47.037  16.616  17.753  0.00  0.00    -0.013 A 
ATOM      3  C   UNL     1      48.233  16.927  18.328  0.00  0.00    -0.054 A 
ATOM      4  C   UNL     1      49.353  16.115  18.096  0.00  0.00    +0.053 A 
ATOM      5  C   UNL     1      49.230  14.976  17.266  0.00  0.00    -0.109 A 
ATOM      6  C   UNL     1      50.356  14.160  17.034  0.00  0.00    +0.190 A 
ATOM      9  C   UNL     1      51.563  14.476  17.617  0.00  0.00    -0.114 A 
ATOM     10  C   UNL     1      51.692  15.593  18.433  0.00  0.00    +0.005 A 
ATOM     11  C   UNL     1      53.027  15.911  19.055  0.00  0.00    +0.093 C 
ATOM     12  C   UNL     1      47.983  14.677  16.684  0.00  0.00    +0.181 A 
ATOM     15  C   UNL     1      50.607  16.417  18.682  0.00  0.00    -0.107 A 
ATOM     34  C   UNL     1      46.903  15.495  16.939  0.00  0.00    -0.113 A 
BRANCH   6   7
ATOM      7  O   UNL     1      50.248  13.064  16.240  0.00  0.00    -0.288 OA
ATOM      8  C   UNL     1      51.240  12.900  15.224  0.00  0.00    +0.245 C 
ENDBRANCH   6   7
BRANCH  12  13
ATOM     13  O   UNL     1      47.843  13.589  15.885  0.00  0.00    -0.289 OA
ATOM     14  C   UNL     1      46.868  12.619  16.273  0.00  0.00    +0.245 C 
ENDBRANCH  12  13
ENDBRANCH  16  15
BRANCH  17  18
ATOM     18  O   UNL     1      50.144  16.307  21.464  0.00  0.00    -0.291 OA
ATOM     19  C   UNL     1      51.074  15.672  22.342  0.00  0.00    +0.252 C 
ENDBRANCH  17  18
BRANCH  21  22
ATOM     22  O   UNL     1      51.175  20.915  21.977  0.00  0.00    -0.308 OA
ATOM     23  C   UNL     1      49.976  21.488  22.505  0.00  0.00    +0.253 C 
ENDBRANCH  21  22
TORSDOF 5
ENDMDL
MODEL 2
REMARK VINA RESULT:      -5.4      2.936      5.734
REMARK  Name = ZINC95486162
REMARK  13 active torsions:
REMARK  status: ('A' for Active; 'I' for Inactive)
REMARK    1  A    between atoms: C1_1  and  C2_2
REMARK    2  A    between atoms: C6_6  and  O1_8
REMARK    3  A    between atoms: O1_8  and  C8_9
REMARK    4  A    between atoms: C9_10  and  O4_33
REMARK    5  A    between atoms: C11_12  and  C26_32
REMARK    6  A    between atoms: C12_13  and  C13_14
REMARK    7  A    between atoms: C14_15  and  O3_30
REMARK    8  A    between atoms: C16_17  and  O2_28
REMARK    9  A    between atoms: C20_21  and  C23_27
REMARK   10  A    between atoms: C21_24  and  C22_26
REMARK   11  A    between atoms: O2_28  and  C24_29
REMARK   12  A    between atoms: O3_30  and  C25_31
REMARK   13  A    between atoms: O4_33  and  C27_34
REMARK                            x       y       z     vdW  Elec       q    Type
REMARK                         _______ _______ _______ _____ _____    ______ ____
ROOT
ATOM     16  C   UNL     1      49.590  18.886  20.578  0.00  0.00    -0.078 A 
ATOM     17  C   UNL     1      49.637  17.915  21.583  0.00  0.00    +0.210 A 
ATOM     20  C   UNL     1      50.706  17.039  21.639  0.00  0.00    -0.147 A 
ATOM     21  C   UNL     1      51.723  17.128  20.702  0.00  0.00    +0.202 A 
ATOM     24  C   UNL     1      51.680  18.096  19.699  0.00  0.00    -0.206 A 
ATOM     25  C   UNL     1      52.813  18.152  18.709  0.00  0.00    +0.244 C 
ATOM     26  C   UNL     1      53.212  16.728  18.316  0.00  0.00    +0.098 C 
ATOM     27  N   UNL     1      52.403  18.877  17.498  0.00  0.00    -0.505 N 
ATOM     28  H   UNL     1      53.199  18.991  16.888  0.00  0.00    +0.430 HD
ATOM     29  H   UNL     1      51.678  18.365  17.018  0.00  0.00    +0.427 HD
ATOM     30  C   UNL     1      51.892  20.199  17.892  0.00  0.00    +0.173 C 
ATOM     31  C   UNL     1      51.749  21.089  16.658  0.00  0.00    +0.093 C 
ATOM     32  C   UNL     1      50.525  20.015  18.554  0.00  0.00    +0.137 C 
ATOM     33  C   UNL     1      50.617  18.965  19.631  0.00  0.00    -0.002 A 
ENDROOT
BRANCH  16  15
ATOM      1  C   UNL     1      46.103  16.792  17.411  0.00  0.00    +0.092 C 
ATOM      2  C   UNL     1      46.160  18.071  18.205  0.00  0.00    -0.013 A 
ATOM      3  C   UNL     1      47.258  18.338  18.968  0.00  0.00    -0.054 A 
ATOM      4  C   UNL     1      47.321  19.526  19.711  0.00  0.00    +0.053 A 
ATOM      5  C   UNL     1      46.241  20.439  19.663  0.00  0.00    -0.109 A 
ATOM      6  C   UNL     1      46.305  21.632  20.409  0.00  0.00    +0.190 A 
ATOM      9  C   UNL     1      47.416  21.901  21.178  0.00  0.00    -0.114 A 
ATOM     10  C   UNL     1      48.480  21.010  21.232  0.00  0.00    +0.005 A 
ATOM     11  C   UNL     1      49.680  21.333  22.083  0.00  0.00    +0.093 C 
ATOM     12  C   UNL     1      45.119  20.138  18.866  0.00  0.00    +0.181 A 
ATOM     15  C   UNL     1      48.450  19.828  20.512  0.00  0.00    -0.107 A 
ATOM     34  C   UNL     1      45.095  18.964  18.145  0.00  0.00    -0.113 A 
BRANCH   6   7
ATOM      7  O   UNL     1      45.275  22.516  20.368  0.00  0.00    -0.288 OA
ATOM      8  C   UNL     1      44.820  23.040  21.618  0.00  0.00    +0.245 C 
ENDBRANCH   6   7
BRANCH  12  13
ATOM     13  O   UNL     1      44.071  21.000  18.804  0.00  0.00    -0.289 OA
ATOM     14  C   UNL     1      42.769  20.456  19.025  0.00  0.00    +0.245 C 
ENDBRANCH  12  13
ENDBRANCH  16  15
BRANCH  17  18
ATOM     18  O   UNL     1      48.638  17.834  22.501  0.00  0.00    -0.291 OA
ATOM     19  C   UNL     1      47.715  16.753  22.361  0.00  0.00    +0.252 C 
ENDBRANCH  17  18
BRANCH  21  22
ATOM     22  O   UNL     1      52.771  16.266  20.761  0.00  0.00    -0.308 OA
ATOM     23  C   UNL     1      53.558  16.281  21.954  0.00  0.00    +0.253 C 
ENDBRANCH  21  22
TORSDOF 5
ENDMDL
MODEL 3
REMARK VINA RESULT:      -5.3      1.108      3.152
REMARK  Name = ZINC95486162
REMARK  13 active torsions:
REMARK  status: ('A' for Active; 'I' for Inactive)
REMARK    1  A    between atoms: C1_1  and  C2_2
REMARK    2  A    between atoms: C6_6  and  O1_8
REMARK    3  A    between atoms: O1_8  and  C8_9
REMARK    4  A    between atoms: C9_10  and  O4_33
REMARK    5  A    between atoms: C11_12  and  C26_32
REMARK    6  A    between atoms: C12_13  and  C13_14
REMARK    7  A    between atoms: C14_15  and  O3_30
REMARK    8  A    between atoms: C16_17  and  O2_28
REMARK    9  A    between atoms: C20_21  and  C23_27
REMARK   10  A    between atoms: C21_24  and  C22_26
REMARK   11  A    between atoms: O2_28  and  C24_29
REMARK   12  A    between atoms: O3_30  and  C25_31
REMARK   13  A    between atoms: O4_33  and  C27_34
REMARK                            x       y       z     vdW  Elec       q    Type
REMARK                         _______ _______ _______ _____ _____    ______ ____
ROOT
ATOM     16  C   UNL     1      49.638  18.021  19.349  0.00  0.00    -0.078 A 
ATOM     17  C   UNL     1      49.156  18.090  20.661  0.00  0.00    +0.210 A 
ATOM     20  C   UNL     1      49.472  19.181  21.450  0.00  0.00    -0.147 A 
ATOM     21  C   UNL     1      50.261  20.198  20.939  0.00  0.00    +0.202 A 
ATOM     24  C   UNL     1      50.743  20.134  19.632  0.00  0.00    -0.206 A 
ATOM     25  C   UNL     1      51.593  21.269  19.124  0.00  0.00    +0.244 C 
ATOM     26  C   UNL     1      52.561  21.707  20.226  0.00  0.00    +0.098 C 
ATOM     27  N   UNL     1      52.372  20.845  17.953  0.00  0.00    -0.505 N 
ATOM     28  H   UNL     1      52.860  21.640  17.567  0.00  0.00    +0.430 HD
ATOM     29  H   UNL     1      53.038  20.136  18.221  0.00  0.00    +0.427 HD
ATOM     30  C   UNL     1      51.449  20.298  16.947  0.00  0.00    +0.173 C 
ATOM     31  C   UNL     1      52.174  20.137  15.611  0.00  0.00    +0.093 C 
ATOM     32  C   UNL     1      50.953  18.934  17.431  0.00  0.00    +0.137 C 
ATOM     33  C   UNL     1      50.441  19.049  18.844  0.00  0.00    -0.002 A 
ENDROOT
BRANCH  16  15
ATOM      1  C   UNL     1      53.504  14.648  19.847  0.00  0.00    +0.092 C 
ATOM      2  C   UNL     1      52.218  14.656  19.064  0.00  0.00    -0.013 A 
ATOM      3  C   UNL     1      51.386  15.733  19.151  0.00  0.00    -0.054 A 
ATOM      4  C   UNL     1      50.186  15.751  18.425  0.00  0.00    +0.053 A 
ATOM      5  C   UNL     1      49.848  14.647  17.607  0.00  0.00    -0.109 A 
ATOM      6  C   UNL     1      48.642  14.666  16.878  0.00  0.00    +0.190 A 
ATOM      9  C   UNL     1      47.804  15.755  16.967  0.00  0.00    -0.114 A 
ATOM     10  C   UNL     1      48.128  16.842  17.768  0.00  0.00    +0.005 A 
ATOM     11  C   UNL     1      47.190  18.019  17.844  0.00  0.00    +0.093 C 
ATOM     12  C   UNL     1      50.725  13.547  17.535  0.00  0.00    +0.181 A 
ATOM     15  C   UNL     1      49.305  16.857  18.499  0.00  0.00    -0.107 A 
ATOM     34  C   UNL     1      51.898  13.568  18.257  0.00  0.00    -0.113 A 
BRANCH   6   7
ATOM      7  O   UNL     1      48.309  13.613  16.088  0.00  0.00    -0.288 OA
ATOM      8  C   UNL     1      47.047  12.989  16.337  0.00  0.00    +0.245 C 
ENDBRANCH   6   7
BRANCH  12  13
ATOM     13  O   UNL     1      50.421  12.478  16.755  0.00  0.00    -0.289 OA
ATOM     14  C   UNL     1      51.460  11.969  15.917  0.00  0.00    +0.245 C 
ENDBRANCH  12  13
ENDBRANCH  16  15
BRANCH  17  18
ATOM     18  O   UNL     1      48.381  17.090  21.156  0.00  0.00    -0.291 OA
ATOM     19  C   UNL     1      47.040  17.426  21.517  0.00  0.00    +0.252 C 
ENDBRANCH  17  18
BRANCH  21  22
ATOM     22  O   UNL     1      50.569  21.268  21.717  0.00  0.00    -0.308 OA
ATOM     23  C   UNL     1      49.512  21.822  22.505  0.00  0.00    +0.253 C 
ENDBRANCH  21  22
TORSDOF 5
ENDMDL
MODEL 4
REMARK VINA RESULT:      -5.1      1.972      7.221
REMARK  Name = ZINC95486162
REMARK  13 active torsions:
REMARK  status: ('A' for Active; 'I' for Inactive)
REMARK    1  A    between atoms: C1_1  and  C2_2
REMARK    2  A    between atoms: C6_6  and  O1_8
REMARK    3  A    between atoms: O1_8  and  C8_9
REMARK    4  A    between atoms: C9_10  and  O4_33
REMARK    5  A    between atoms: C11_12  and  C26_32
REMARK    6  A    between atoms: C12_13  and  C13_14
REMARK    7  A    between atoms: C14_15  and  O3_30
REMARK    8  A    between atoms: C16_17  and  O2_28
REMARK    9  A    between atoms: C20_21  and  C23_27
REMARK   10  A    between atoms: C21_24  and  C22_26
REMARK   11  A    between atoms: O2_28  and  C24_29
REMARK   12  A    between atoms: O3_30  and  C25_31
REMARK   13  A    between atoms: O4_33  and  C27_34
REMARK                            x       y       z     vdW  Elec       q    Type
REMARK                         _______ _______ _______ _____ _____    ______ ____
ROOT
ATOM     16  C   UNL     1      49.108  16.306  18.302  0.00  0.00    -0.078 A 
ATOM     17  C   UNL     1      47.937  16.321  17.537  0.00  0.00    +0.210 A 
ATOM     20  C   UNL     1      47.646  15.251  16.710  0.00  0.00    -0.147 A 
ATOM     21  C   UNL     1      48.512  14.172  16.645  0.00  0.00    +0.202 A 
ATOM     24  C   UNL     1      49.679  14.152  17.408  0.00  0.00    -0.206 A 
ATOM     25  C   UNL     1      50.584  12.953  17.304  0.00  0.00    +0.244 C 
ATOM     26  C   UNL     1      50.675  12.514  15.841  0.00  0.00    +0.098 C 
ATOM     27  N   UNL     1      51.934  13.283  17.782  0.00  0.00    -0.505 N 
ATOM     28  H   UNL     1      52.499  12.447  17.798  0.00  0.00    +0.430 HD
ATOM     29  H   UNL     1      52.357  13.968  17.173  0.00  0.00    +0.427 HD
ATOM     30  C   UNL     1      51.829  13.833  19.142  0.00  0.00    +0.173 C 
ATOM     31  C   UNL     1      53.216  13.896  19.784  0.00  0.00    +0.093 C 
ATOM     32  C   UNL     1      51.239  15.241  19.055  0.00  0.00    +0.137 C 
ATOM     33  C   UNL     1      49.980  15.216  18.225  0.00  0.00    -0.002 A 
ENDROOT
BRANCH  16  15
ATOM      1  C   UNL     1      51.899  19.629  15.521  0.00  0.00    +0.092 C 
ATOM      2  C   UNL     1      51.398  19.617  16.941  0.00  0.00    -0.013 A 
ATOM      3  C   UNL     1      50.663  18.558  17.384  0.00  0.00    -0.054 A 
ATOM      4  C   UNL     1      50.191  18.536  18.705  0.00  0.00    +0.053 A 
ATOM      5  C   UNL     1      50.484  19.618  19.568  0.00  0.00    -0.109 A 
ATOM      6  C   UNL     1      50.011  19.595  20.896  0.00  0.00    +0.190 A 
ATOM      9  C   UNL     1      49.269  18.523  21.341  0.00  0.00    -0.114 A 
ATOM     10  C   UNL     1      48.977  17.458  20.499  0.00  0.00    +0.005 A 
ATOM     11  C   UNL     1      48.163  16.300  21.017  0.00  0.00    +0.093 C 
ATOM     12  C   UNL     1      51.245  20.700  19.086  0.00  0.00    +0.181 A 
ATOM     15  C   UNL     1      49.426  17.447  19.189  0.00  0.00    -0.107 A 
ATOM     34  C   UNL     1      51.697  20.683  17.784  0.00  0.00    -0.113 A 
BRANCH   6   7
ATOM      7  O   UNL     1      50.287  20.627  21.733  0.00  0.00    -0.288 OA
ATOM      8  C   UNL     1      49.200  21.146  22.505  0.00  0.00    +0.245 C 
ENDBRANCH   6   7
BRANCH  12  13
ATOM     13  O   UNL     1      51.538  21.748  19.898  0.00  0.00    -0.289 OA
ATOM     14  C   UNL     1      52.917  21.973  20.196  0.00  0.00    +0.245 C 
ENDBRANCH  12  13
ENDBRANCH  16  15
BRANCH  17  18
ATOM     18  O   UNL     1      47.090  17.382  17.605  0.00  0.00    -0.291 OA
ATOM     19  C   UNL     1      45.844  17.175  18.273  0.00  0.00    +0.252 C 
ENDBRANCH  17  18
BRANCH  21  22
ATOM     22  O   UNL     1      48.222  13.123  15.832  0.00  0.00    -0.308 OA
ATOM     23  C   UNL     1      47.043  12.374  16.135  0.00  0.00    +0.253 C 
ENDBRANCH  21  22
TORSDOF 5
ENDMDL
MODEL 5
REMARK VINA RESULT:      -4.8      1.835      7.084
REMARK  Name = ZINC95486162
REMARK  13 active torsions:
REMARK  status: ('A' for Active; 'I' for Inactive)
REMARK    1  A    between atoms: C1_1  and  C2_2
REMARK    2  A    between atoms: C6_6  and  O1_8
REMARK    3  A    between atoms: O1_8  and  C8_9
REMARK    4  A    between atoms: C9_10  and  O4_33
REMARK    5  A    between atoms: C11_12  and  C26_32
REMARK    6  A    between atoms: C12_13  and  C13_14
REMARK    7  A    between atoms: C14_15  and  O3_30
REMARK    8  A    between atoms: C16_17  and  O2_28
REMARK    9  A    between atoms: C20_21  and  C23_27
REMARK   10  A    between atoms: C21_24  and  C22_26
REMARK   11  A    between atoms: O2_28  and  C24_29
REMARK   12  A    between atoms: O3_30  and  C25_31
REMARK   13  A    between atoms: O4_33  and  C27_34
REMARK                            x       y       z     vdW  Elec       q    Type
REMARK                         _______ _______ _______ _____ _____    ______ ____
ROOT
ATOM     16  C   UNL     1      50.591  15.850  18.486  0.00  0.00    -0.078 A 
ATOM     17  C   UNL     1      51.659  14.978  18.249  0.00  0.00    +0.210 A 
ATOM     20  C   UNL     1      51.478  13.881  17.426  0.00  0.00    -0.147 A 
ATOM     21  C   UNL     1      50.243  13.653  16.841  0.00  0.00    +0.202 A 
ATOM     24  C   UNL     1      49.176  14.521  17.073  0.00  0.00    -0.206 A 
ATOM     25  C   UNL     1      47.857  14.229  16.409  0.00  0.00    +0.244 C 
ATOM     26  C   UNL     1      47.584  12.725  16.466  0.00  0.00    +0.098 C 
ATOM     27  N   UNL     1      46.766  14.932  17.099  0.00  0.00    -0.505 N 
ATOM     28  H   UNL     1      45.907  14.806  16.586  0.00  0.00    +0.430 HD
ATOM     29  H   UNL     1      46.659  14.569  18.034  0.00  0.00    +0.427 HD
ATOM     30  C   UNL     1      47.097  16.364  17.162  0.00  0.00    +0.173 C 
ATOM     31  C   UNL     1      45.863  17.162  17.587  0.00  0.00    +0.093 C 
ATOM     32  C   UNL     1      48.215  16.562  18.187  0.00  0.00    +0.137 C 
ATOM     33  C   UNL     1      49.346  15.608  17.898  0.00  0.00    -0.002 A 
ENDROOT
BRANCH  16  15
ATOM      1  C   UNL     1      52.046  19.763  15.462  0.00  0.00    +0.092 C 
ATOM      2  C   UNL     1      51.800  19.620  16.941  0.00  0.00    -0.013 A 
ATOM      3  C   UNL     1      51.413  18.413  17.443  0.00  0.00    -0.054 A 
ATOM      4  C   UNL     1      51.181  18.269  18.819  0.00  0.00    +0.053 A 
ATOM      5  C   UNL     1      51.352  19.381  19.676  0.00  0.00    -0.109 A 
ATOM      6  C   UNL     1      51.121  19.236  21.059  0.00  0.00    +0.190 A 
ATOM      9  C   UNL     1      50.730  18.015  21.563  0.00  0.00    -0.114 A 
ATOM     10  C   UNL     1      50.559  16.919  20.729  0.00  0.00    +0.005 A 
ATOM     11  C   UNL     1      50.131  15.597  21.312  0.00  0.00    +0.093 C 
ATOM     12  C   UNL     1      51.754  20.617  19.132  0.00  0.00    +0.181 A 
ATOM     15  C   UNL     1      50.778  17.026  19.365  0.00  0.00    -0.107 A 
ATOM     34  C   UNL     1      51.978  20.719  17.776  0.00  0.00    -0.113 A 
BRANCH   6   7
ATOM      7  O   UNL     1      51.284  20.297  21.890  0.00  0.00    -0.288 OA
ATOM      8  C   UNL     1      50.107  20.827  22.504  0.00  0.00    +0.245 C 
ENDBRANCH   6   7
BRANCH  12  13
ATOM     13  O   UNL     1      51.925  21.697  19.936  0.00  0.00    -0.289 OA
ATOM     14  C   UNL     1      53.250  22.220  20.048  0.00  0.00    +0.245 C 
ENDBRANCH  12  13
ENDBRANCH  16  15
BRANCH  17  18
ATOM     18  O   UNL     1      52.868  15.208  18.824  0.00  0.00    -0.291 OA
ATOM     19  C   UNL     1      53.347  14.225  19.745  0.00  0.00    +0.252 C 
ENDBRANCH  17  18
BRANCH  21  22
ATOM     22  O   UNL     1      50.069  12.575  16.033  0.00  0.00    -0.308 OA
ATOM     23  C   UNL     1      51.199  12.149  15.267  0.00  0.00    +0.253 C 
ENDBRANCH  21  22
TORSDOF 5
ENDMDL
MODEL 6
REMARK VINA RESULT:      -4.8      3.081      6.383
REMARK  Name = ZINC95486162
REMARK  13 active torsions:
REMARK  status: ('A' for Active; 'I' for Inactive)
REMARK    1  A    between atoms: C1_1  and  C2_2
REMARK    2  A    between atoms: C6_6  and  O1_8
REMARK    3  A    between atoms: O1_8  and  C8_9
REMARK    4  A    between atoms: C9_10  and  O4_33
REMARK    5  A    between atoms: C11_12  and  C26_32
REMARK    6  A    between atoms: C12_13  and  C13_14
REMARK    7  A    between atoms: C14_15  and  O3_30
REMARK    8  A    between atoms: C16_17  and  O2_28
REMARK    9  A    between atoms: C20_21  and  C23_27
REMARK   10  A    between atoms: C21_24  and  C22_26
REMARK   11  A    between atoms: O2_28  and  C24_29
REMARK   12  A    between atoms: O3_30  and  C25_31
REMARK   13  A    between atoms: O4_33  and  C27_34
REMARK                            x       y       z     vdW  Elec       q    Type
REMARK                         _______ _______ _______ _____ _____    ______ ____
ROOT
ATOM     16  C   UNL     1      48.340  17.093  21.032  0.00  0.00    -0.078 A 
ATOM     17  C   UNL     1      48.749  16.024  21.837  0.00  0.00    +0.210 A 
ATOM     20  C   UNL     1      47.807  15.138  22.328  0.00  0.00    -0.147 A 
ATOM     21  C   UNL     1      46.468  15.312  22.020  0.00  0.00    +0.202 A 
ATOM     24  C   UNL     1      46.056  16.375  21.218  0.00  0.00    -0.206 A 
ATOM     25  C   UNL     1      44.589  16.516  20.910  0.00  0.00    +0.244 C 
ATOM     26  C   UNL     1      43.777  16.213  22.171  0.00  0.00    +0.098 C 
ATOM     27  N   UNL     1      44.284  17.884  20.470  0.00  0.00    -0.505 N 
ATOM     28  H   UNL     1      43.320  17.936  20.176  0.00  0.00    +0.430 HD
ATOM     29  H   UNL     1      44.442  18.533  21.227  0.00  0.00    +0.427 HD
ATOM     30  C   UNL     1      45.163  18.222  19.340  0.00  0.00    +0.173 C 
ATOM     31  C   UNL     1      44.669  19.501  18.664  0.00  0.00    +0.093 C 
ATOM     32  C   UNL     1      46.581  18.436  19.873  0.00  0.00    +0.137 C 
ATOM     33  C   UNL     1      46.985  17.266  20.732  0.00  0.00    -0.002 A 
ENDROOT
BRANCH  16  15
ATOM      1  C   UNL     1      50.139  15.080  16.641  0.00  0.00    +0.092 C 
ATOM      2  C   UNL     1      50.426  16.346  17.406  0.00  0.00    -0.013 A 
ATOM      3  C   UNL     1      49.760  16.591  18.570  0.00  0.00    -0.054 A 
ATOM      4  C   UNL     1      50.019  17.767  19.290  0.00  0.00    +0.053 A 
ATOM      5  C   UNL     1      50.972  18.690  18.800  0.00  0.00    -0.109 A 
ATOM      6  C   UNL     1      51.233  19.871  19.524  0.00  0.00    +0.190 A 
ATOM      9  C   UNL     1      50.560  20.116  20.701  0.00  0.00    -0.114 A 
ATOM     10  C   UNL     1      49.623  19.214  21.188  0.00  0.00    +0.005 A 
ATOM     11  C   UNL     1      48.904  19.512  22.479  0.00  0.00    +0.093 C 
ATOM     12  C   UNL     1      51.646  18.412  17.594  0.00  0.00    +0.181 A 
ATOM     15  C   UNL     1      49.341  18.045  20.502  0.00  0.00    -0.107 A 
ATOM     34  C   UNL     1      51.369  17.245  16.917  0.00  0.00    -0.113 A 
BRANCH   6   7
ATOM      7  O   UNL     1      52.147  20.763  19.063  0.00  0.00    -0.288 OA
ATOM      8  C   UNL     1      52.663  21.707  20.005  0.00  0.00    +0.245 C 
ENDBRANCH   6   7
BRANCH  12  13
ATOM     13  O   UNL     1      52.565  19.285  17.106  0.00  0.00    -0.289 OA
ATOM     14  C   UNL     1      52.336  19.801  15.793  0.00  0.00    +0.245 C 
ENDBRANCH  12  13
ENDBRANCH  16  15
BRANCH  17  18
ATOM     18  O   UNL     1      50.064  15.858  22.134  0.00  0.00    -0.291 OA
ATOM     19  C   UNL     1      50.677  14.640  21.705  0.00  0.00    +0.252 C 
ENDBRANCH  17  18
BRANCH  21  22
ATOM     22  O   UNL     1      45.546  14.439  22.505  0.00  0.00    -0.308 OA
ATOM     23  C   UNL     1      45.523  13.132  21.925  0.00  0.00    +0.253 C 
ENDBRANCH  21  22
TORSDOF 5
ENDMDL
MODEL 7
REMARK VINA RESULT:      -4.6      3.231      6.605
REMARK  Name = ZINC95486162
REMARK  13 active torsions:
REMARK  status: ('A' for Active; 'I' for Inactive)
REMARK    1  A    between atoms: C1_1  and  C2_2
REMARK    2  A    between atoms: C6_6  and  O1_8
REMARK    3  A    between atoms: O1_8  and  C8_9
REMARK    4  A    between atoms: C9_10  and  O4_33
REMARK    5  A    between atoms: C11_12  and  C26_32
REMARK    6  A    between atoms: C12_13  and  C13_14
REMARK    7  A    between atoms: C14_15  and  O3_30
REMARK    8  A    between atoms: C16_17  and  O2_28
REMARK    9  A    between atoms: C20_21  and  C23_27
REMARK   10  A    between atoms: C21_24  and  C22_26
REMARK   11  A    between atoms: O2_28  and  C24_29
REMARK   12  A    between atoms: O3_30  and  C25_31
REMARK   13  A    between atoms: O4_33  and  C27_34
REMARK                            x       y       z     vdW  Elec       q    Type
REMARK                         _______ _______ _______ _____ _____    ______ ____
ROOT
ATOM     16  C   UNL     1      48.519  15.106  18.857  0.00  0.00    -0.078 A 
ATOM     17  C   UNL     1      48.325  13.993  18.032  0.00  0.00    +0.210 A 
ATOM     20  C   UNL     1      49.256  12.970  18.031  0.00  0.00    -0.147 A 
ATOM     21  C   UNL     1      50.374  13.053  18.847  0.00  0.00    +0.202 A 
ATOM     24  C   UNL     1      50.570  14.160  19.671  0.00  0.00    -0.206 A 
ATOM     25  C   UNL     1      51.799  14.197  20.541  0.00  0.00    +0.244 C 
ATOM     26  C   UNL     1      52.997  13.673  19.746  0.00  0.00    +0.098 C 
ATOM     27  N   UNL     1      52.084  15.573  20.970  0.00  0.00    -0.505 N 
ATOM     28  H   UNL     1      52.849  15.568  21.629  0.00  0.00    +0.430 HD
ATOM     29  H   UNL     1      52.328  16.140  20.172  0.00  0.00    +0.427 HD
ATOM     30  C   UNL     1      50.882  16.123  21.616  0.00  0.00    +0.173 C 
ATOM     31  C   UNL     1      51.233  17.421  22.344  0.00  0.00    +0.093 C 
ATOM     32  C   UNL     1      49.835  16.405  20.537  0.00  0.00    +0.137 C 
ATOM     33  C   UNL     1      49.653  15.184  19.671  0.00  0.00    -0.002 A 
ENDROOT
BRANCH  16  15
ATOM      1  C   UNL     1      45.056  13.968  22.501  0.00  0.00    +0.092 C 
ATOM      2  C   UNL     1      45.220  15.112  21.535  0.00  0.00    -0.013 A 
ATOM      3  C   UNL     1      46.276  15.115  20.673  0.00  0.00    -0.054 A 
ATOM      4  C   UNL     1      46.438  16.176  19.769  0.00  0.00    +0.053 A 
ATOM      5  C   UNL     1      45.501  17.235  19.761  0.00  0.00    -0.109 A 
ATOM      6  C   UNL     1      45.663  18.300  18.852  0.00  0.00    +0.190 A 
ATOM      9  C   UNL     1      46.731  18.301  17.981  0.00  0.00    -0.114 A 
ATOM     10  C   UNL     1      47.655  17.265  17.984  0.00  0.00    +0.005 A 
ATOM     11  C   UNL     1      48.812  17.296  17.019  0.00  0.00    +0.093 C 
ATOM     12  C   UNL     1      44.418  17.207  20.662  0.00  0.00    +0.181 A 
ATOM     15  C   UNL     1      47.527  16.203  18.864  0.00  0.00    -0.107 A 
ATOM     34  C   UNL     1      44.288  16.146  21.531  0.00  0.00    -0.113 A 
BRANCH   6   7
ATOM      7  O   UNL     1      44.768  19.321  18.834  0.00  0.00    -0.288 OA
ATOM      8  C   UNL     1      45.299  20.649  18.808  0.00  0.00    +0.245 C 
ENDBRANCH   6   7
BRANCH  12  13
ATOM     13  O   UNL     1      43.507  18.213  20.670  0.00  0.00    -0.289 OA
ATOM     14  C   UNL     1      42.535  18.201  21.718  0.00  0.00    +0.245 C 
ENDBRANCH  12  13
ENDBRANCH  16  15
BRANCH  17  18
ATOM     18  O   UNL     1      47.226  13.917  17.236  0.00  0.00    -0.291 OA
ATOM     19  C   UNL     1      47.438  13.548  15.872  0.00  0.00    +0.252 C 
ENDBRANCH  17  18
BRANCH  21  22
ATOM     22  O   UNL     1      51.286  12.046  18.843  0.00  0.00    -0.308 OA
ATOM     23  C   UNL     1      51.141  11.043  17.835  0.00  0.00    +0.253 C 
ENDBRANCH  21  22
TORSDOF 5
ENDMDL
MODEL 8
REMARK VINA RESULT:      -4.5      3.505      7.100
REMARK  Name = ZINC95486162
REMARK  13 active torsions:
REMARK  status: ('A' for Active; 'I' for Inactive)
REMARK    1  A    between atoms: C1_1  and  C2_2
REMARK    2  A    between atoms: C6_6  and  O1_8
REMARK    3  A    between atoms: O1_8  and  C8_9
REMARK    4  A    between atoms: C9_10  and  O4_33
REMARK    5  A    between atoms: C11_12  and  C26_32
REMARK    6  A    between atoms: C12_13  and  C13_14
REMARK    7  A    between atoms: C14_15  and  O3_30
REMARK    8  A    between atoms: C16_17  and  O2_28
REMARK    9  A    between atoms: C20_21  and  C23_27
REMARK   10  A    between atoms: C21_24  and  C22_26
REMARK   11  A    between atoms: O2_28  and  C24_29
REMARK   12  A    between atoms: O3_30  and  C25_31
REMARK   13  A    between atoms: O4_33  and  C27_34
REMARK                            x       y       z     vdW  Elec       q    Type
REMARK                         _______ _______ _______ _____ _____    ______ ____
ROOT
ATOM     16  C   UNL     1      49.674  13.431  17.757  0.00  0.00    -0.078 A 
ATOM     17  C   UNL     1      50.752  13.206  18.620  0.00  0.00    +0.210 A 
ATOM     20  C   UNL     1      51.849  12.492  18.173  0.00  0.00    -0.147 A 
ATOM     21  C   UNL     1      51.875  12.004  16.877  0.00  0.00    +0.202 A 
ATOM     24  C   UNL     1      50.804  12.227  16.013  0.00  0.00    -0.206 A 
ATOM     25  C   UNL     1      50.885  11.680  14.613  0.00  0.00    +0.244 C 
ATOM     26  C   UNL     1      51.494  10.277  14.653  0.00  0.00    +0.098 C 
ATOM     27  N   UNL     1      49.546  11.595  14.014  0.00  0.00    -0.505 N 
ATOM     28  H   UNL     1      49.626  11.320  13.046  0.00  0.00    +0.430 HD
ATOM     29  H   UNL     1      48.987  10.919  14.513  0.00  0.00    +0.427 HD
ATOM     30  C   UNL     1      48.908  12.918  14.099  0.00  0.00    +0.173 C 
ATOM     31  C   UNL     1      47.658  12.948  13.220  0.00  0.00    +0.093 C 
ATOM     32  C   UNL     1      48.520  13.180  15.555  0.00  0.00    +0.137 C 
ATOM     33  C   UNL     1      49.706  12.929  16.452  0.00  0.00    -0.002 A 
ENDROOT
BRANCH  16  15
ATOM      1  C   UNL     1      50.689  18.413  16.906  0.00  0.00    +0.092 C 
ATOM      2  C   UNL     1      49.518  17.669  17.492  0.00  0.00    -0.013 A 
ATOM      3  C   UNL     1      49.562  16.310  17.580  0.00  0.00    -0.054 A 
ATOM      4  C   UNL     1      48.476  15.608  18.124  0.00  0.00    +0.053 A 
ATOM      5  C   UNL     1      47.341  16.320  18.578  0.00  0.00    -0.109 A 
ATOM      6  C   UNL     1      46.251  15.614  19.126  0.00  0.00    +0.190 A 
ATOM      9  C   UNL     1      46.299  14.240  19.215  0.00  0.00    -0.114 A 
ATOM     10  C   UNL     1      47.409  13.534  18.771  0.00  0.00    +0.005 A 
ATOM     11  C   UNL     1      47.430  12.032  18.882  0.00  0.00    +0.093 C 
ATOM     12  C   UNL     1      47.321  17.725  18.476  0.00  0.00    +0.181 A 
ATOM     15  C   UNL     1      48.498  14.195  18.227  0.00  0.00    -0.107 A 
ATOM     34  C   UNL     1      48.409  18.380  17.942  0.00  0.00    -0.113 A 
BRANCH   6   7
ATOM      7  O   UNL     1      45.158  16.288  19.567  0.00  0.00    -0.288 OA
ATOM      8  C   UNL     1      44.735  16.032  20.908  0.00  0.00    +0.245 C 
ENDBRANCH   6   7
BRANCH  12  13
ATOM     13  O   UNL     1      46.242  18.428  18.906  0.00  0.00    -0.289 OA
ATOM     14  C   UNL     1      46.240  19.834  18.652  0.00  0.00    +0.245 C 
ENDBRANCH  12  13
ENDBRANCH  16  15
BRANCH  17  18
ATOM     18  O   UNL     1      50.722  13.688  19.890  0.00  0.00    -0.291 OA
ATOM     19  C   UNL     1      51.650  14.725  20.213  0.00  0.00    +0.252 C 
ENDBRANCH  17  18
BRANCH  21  22
ATOM     22  O   UNL     1      52.955  11.303  16.442  0.00  0.00    -0.308 OA
ATOM     23  C   UNL     1      53.698  10.581  17.427  0.00  0.00    +0.253 C 
ENDBRANCH  21  22
TORSDOF 5
ENDMDL
MODEL 9
REMARK VINA RESULT:      -4.4      3.656      6.034
REMARK  Name = ZINC95486162
REMARK  13 active torsions:
REMARK  status: ('A' for Active; 'I' for Inactive)
REMARK    1  A    between atoms: C1_1  and  C2_2
REMARK    2  A    between atoms: C6_6  and  O1_8
REMARK    3  A    between atoms: O1_8  and  C8_9
REMARK    4  A    between atoms: C9_10  and  O4_33
REMARK    5  A    between atoms: C11_12  and  C26_32
REMARK    6  A    between atoms: C12_13  and  C13_14
REMARK    7  A    between atoms: C14_15  and  O3_30
REMARK    8  A    between atoms: C16_17  and  O2_28
REMARK    9  A    between atoms: C20_21  and  C23_27
REMARK   10  A    between atoms: C21_24  and  C22_26
REMARK   11  A    between atoms: O2_28  and  C24_29
REMARK   12  A    between atoms: O3_30  and  C25_31
REMARK   13  A    between atoms: O4_33  and  C27_34
REMARK                            x       y       z     vdW  Elec       q    Type
REMARK                         _______ _______ _______ _____ _____    ______ ____
ROOT
ATOM     16  C   UNL     1      46.953  18.862  20.016  0.00  0.00    -0.078 A 
ATOM     17  C   UNL     1      47.402  19.972  19.293  0.00  0.00    +0.210 A 
ATOM     20  C   UNL     1      46.527  21.006  19.012  0.00  0.00    -0.147 A 
ATOM     21  C   UNL     1      45.214  20.937  19.448  0.00  0.00    +0.202 A 
ATOM     24  C   UNL     1      44.762  19.832  20.170  0.00  0.00    -0.206 A 
ATOM     25  C   UNL     1      43.327  19.810  20.624  0.00  0.00    +0.244 C 
ATOM     26  C   UNL     1      42.434  20.349  19.504  0.00  0.00    +0.098 C 
ATOM     27  N   UNL     1      42.908  18.438  20.941  0.00  0.00    -0.505 N 
ATOM     28  H   UNL     1      41.979  18.452  21.336  0.00  0.00    +0.430 HD
ATOM     29  H   UNL     1      42.913  17.874  20.105  0.00  0.00    +0.427 HD
ATOM     30  C   UNL     1      43.850  17.874  21.920  0.00  0.00    +0.173 C 
ATOM     31  C   UNL     1      43.280  16.580  22.503  0.00  0.00    +0.093 C 
ATOM     32  C   UNL     1      45.173  17.579  21.210  0.00  0.00    +0.137 C 
ATOM     33  C   UNL     1      45.624  18.797  20.446  0.00  0.00    -0.002 A 
ENDROOT
BRANCH  16  15
ATOM      1  C   UNL     1      46.599  15.502  16.123  0.00  0.00    +0.092 C 
ATOM      2  C   UNL     1      47.407  15.549  17.394  0.00  0.00    -0.013 A 
ATOM      3  C   UNL     1      47.265  16.608  18.239  0.00  0.00    -0.054 A 
ATOM      4  C   UNL     1      48.012  16.662  19.425  0.00  0.00    +0.053 A 
ATOM      5  C   UNL     1      48.908  15.612  19.734  0.00  0.00    -0.109 A 
ATOM      6  C   UNL     1      49.657  15.665  20.927  0.00  0.00    +0.190 A 
ATOM      9  C   UNL     1      49.512  16.737  21.780  0.00  0.00    -0.114 A 
ATOM     10  C   UNL     1      48.635  17.772  21.483  0.00  0.00    +0.005 A 
ATOM     11  C   UNL     1      48.500  18.930  22.438  0.00  0.00    +0.093 C 
ATOM     12  C   UNL     1      49.035  14.528  18.843  0.00  0.00    +0.181 A 
ATOM     15  C   UNL     1      47.884  17.752  20.321  0.00  0.00    -0.107 A 
ATOM     34  C   UNL     1      48.280  14.507  17.691  0.00  0.00    -0.113 A 
BRANCH   6   7
ATOM      7  O   UNL     1      50.519  14.661  21.234  0.00  0.00    -0.288 OA
ATOM      8  C   UNL     1      50.332  14.009  22.492  0.00  0.00    +0.245 C 
ENDBRANCH   6   7
BRANCH  12  13
ATOM     13  O   UNL     1      49.888  13.509  19.121  0.00  0.00    -0.289 OA
ATOM     14  C   UNL     1      50.852  13.179  18.120  0.00  0.00    +0.245 C 
ENDBRANCH  12  13
ENDBRANCH  16  15
BRANCH  17  18
ATOM     18  O   UNL     1      48.692  20.035  18.870  0.00  0.00    -0.291 OA
ATOM     19  C   UNL     1      49.573  20.892  19.597  0.00  0.00    +0.252 C 
ENDBRANCH  17  18
BRANCH  21  22
ATOM     22  O   UNL     1      44.357  21.954  19.170  0.00  0.00    -0.308 OA
ATOM     23  C   UNL     1      44.764  23.269  19.559  0.00  0.00    +0.253 C 
ENDBRANCH  21  22
TORSDOF 5
ENDMDL
