MODEL 1
REMARK VINA RESULT:      -6.1      0.000      0.000
REMARK  Name = ZINC95486093
REMARK  7 active torsions:
REMARK  status: ('A' for Active; 'I' for Inactive)
REMARK    1  A    between atoms: C1_1  and  C2_2
REMARK    2  A    between atoms: C2_2  and  C19_26
REMARK    3  A    between atoms: C11_14  and  C18_25
REMARK    4  A    between atoms: C14_18  and  O3_24
REMARK    5  A    between atoms: C15_20  and  C16_21
REMARK    6  A    between atoms: C15_20  and  C17_22
REMARK    7  A    between atoms: C17_22  and  O2_23
REMARK                            x       y       z     vdW  Elec       q    Type
REMARK                         _______ _______ _______ _____ _____    ______ ____
ROOT
ATOM      1  C   UNL     1      51.924  21.186  16.419  0.00  0.00    +0.022 C 
ATOM      2  C   UNL     1      51.392  20.386  17.620  0.00  0.00    -0.029 C 
ATOM      5  C   UNL     1      50.156  21.096  18.165  0.00  0.00    +0.020 C 
ATOM      6  C   UNL     1      49.486  20.265  19.262  0.00  0.00    +0.014 C 
ATOM      7  C   UNL     1      49.089  18.903  18.684  0.00  0.00    -0.003 C 
ATOM      8  C   UNL     1      50.355  18.169  18.251  0.00  0.00    +0.002 C 
ATOM      9  C   UNL     1      50.017  16.787  17.697  0.00  0.00    +0.001 C 
ATOM     10  C   UNL     1      49.137  15.976  18.630  0.00  0.00    +0.021 C 
ATOM     11  C   UNL     1      47.913  16.725  19.149  0.00  0.00    +0.015 C 
ATOM     12  C   UNL     1      46.740  16.671  18.197  0.00  0.00    -0.030 C 
ATOM     16  C   UNL     1      46.249  15.207  18.100  0.00  0.00    +0.051 C 
ATOM     17  C   UNL     1      45.542  17.494  18.692  0.00  0.00    +0.163 C 
ATOM     20  C   UNL     1      46.037  18.854  19.121  0.00  0.00    +0.336 C 
ATOM     21  O   UNL     1      45.616  19.870  18.630  0.00  0.00    -0.438 OA
ATOM     22  C   UNL     1      47.094  18.870  20.201  0.00  0.00    +0.028 C 
ATOM     23  C   UNL     1      48.311  18.084  19.704  0.00  0.00    -0.028 C 
ATOM     24  C   UNL     1      49.203  17.844  20.941  0.00  0.00    +0.033 C 
ATOM     25  C   UNL     1      51.051  18.977  17.149  0.00  0.00    +0.024 C 
ENDROOT
BRANCH   2   3
ATOM      3  C   UNL     1      52.470  20.338  18.672  0.00  0.00    -0.033 C 
ATOM      4  C   UNL     1      52.721  21.398  19.402  0.00  0.00    -0.004 C 
ENDBRANCH   2   3
BRANCH  17  18
ATOM     18  O   UNL     1      44.925  16.830  19.794  0.00  0.00    -0.541 OA
ATOM     19  H   UNL     1      44.422  17.416  20.376  0.00  0.00    +0.381 HD
ENDBRANCH  17  18
BRANCH  12  13
ATOM     13  C   UNL     1      47.085  17.133  16.782  0.00  0.00    +0.186 C 
BRANCH  13  14
ATOM     14  O   UNL     1      46.392  16.319  15.834  0.00  0.00    -0.570 OA
ATOM     15  H   UNL     1      46.953  15.666  15.393  0.00  0.00    +0.382 HD
ENDBRANCH  13  14
ENDBRANCH  12  13
TORSDOF 4
ENDMDL
MODEL 2
REMARK VINA RESULT:      -5.4      1.684      3.581
REMARK  Name = ZINC95486093
REMARK  7 active torsions:
REMARK  status: ('A' for Active; 'I' for Inactive)
REMARK    1  A    between atoms: C1_1  and  C2_2
REMARK    2  A    between atoms: C2_2  and  C19_26
REMARK    3  A    between atoms: C11_14  and  C18_25
REMARK    4  A    between atoms: C14_18  and  O3_24
REMARK    5  A    between atoms: C15_20  and  C16_21
REMARK    6  A    between atoms: C15_20  and  C17_22
REMARK    7  A    between atoms: C17_22  and  O2_23
REMARK                            x       y       z     vdW  Elec       q    Type
REMARK                         _______ _______ _______ _____ _____    ______ ____
ROOT
ATOM      1  C   UNL     1      51.679  21.141  19.711  0.00  0.00    +0.022 C 
ATOM      2  C   UNL     1      50.656  20.349  18.879  0.00  0.00    -0.029 C 
ATOM      5  C   UNL     1      50.820  18.865  19.197  0.00  0.00    +0.020 C 
ATOM      6  C   UNL     1      49.725  18.036  18.521  0.00  0.00    +0.014 C 
ATOM      7  C   UNL     1      48.358  18.523  19.011  0.00  0.00    -0.003 C 
ATOM      8  C   UNL     1      48.174  19.976  18.581  0.00  0.00    +0.002 C 
ATOM      9  C   UNL     1      46.808  20.500  19.015  0.00  0.00    +0.001 C 
ATOM     10  C   UNL     1      45.665  19.596  18.592  0.00  0.00    +0.021 C 
ATOM     11  C   UNL     1      45.872  18.122  18.930  0.00  0.00    +0.015 C 
ATOM     12  C   UNL     1      45.458  17.777  20.342  0.00  0.00    -0.030 C 
ATOM     16  C   UNL     1      43.927  17.962  20.467  0.00  0.00    +0.051 C 
ATOM     17  C   UNL     1      45.744  16.311  20.698  0.00  0.00    +0.163 C 
ATOM     20  C   UNL     1      47.157  15.981  20.279  0.00  0.00    +0.336 C 
ATOM     21  O   UNL     1      47.978  15.584  21.064  0.00  0.00    -0.438 OA
ATOM     22  C   UNL     1      47.483  16.181  18.817  0.00  0.00    +0.028 C 
ATOM     23  C   UNL     1      47.240  17.651  18.459  0.00  0.00    -0.028 C 
ATOM     24  C   UNL     1      47.257  17.727  16.917  0.00  0.00    +0.033 C 
ATOM     25  C   UNL     1      49.258  20.835  19.243  0.00  0.00    +0.024 C 
ENDROOT
BRANCH   2   3
ATOM      3  C   UNL     1      50.934  20.602  17.420  0.00  0.00    -0.033 C 
ATOM      4  C   UNL     1      52.137  20.406  16.939  0.00  0.00    -0.004 C 
ENDBRANCH   2   3
BRANCH  17  18
ATOM     18  O   UNL     1      44.823  15.462  20.013  0.00  0.00    -0.541 OA
ATOM     19  H   UNL     1      45.219  14.651  19.664  0.00  0.00    +0.381 HD
ENDBRANCH  17  18
BRANCH  12  13
ATOM     13  C   UNL     1      46.114  18.662  21.401  0.00  0.00    +0.186 C 
BRANCH  13  14
ATOM     14  O   UNL     1      45.104  19.374  22.117  0.00  0.00    -0.570 OA
ATOM     15  H   UNL     1      45.417  19.784  22.936  0.00  0.00    +0.382 HD
ENDBRANCH  13  14
ENDBRANCH  12  13
TORSDOF 4
ENDMDL
MODEL 3
REMARK VINA RESULT:      -5.3      2.573      5.859
REMARK  Name = ZINC95486093
REMARK  7 active torsions:
REMARK  status: ('A' for Active; 'I' for Inactive)
REMARK    1  A    between atoms: C1_1  and  C2_2
REMARK    2  A    between atoms: C2_2  and  C19_26
REMARK    3  A    between atoms: C11_14  and  C18_25
REMARK    4  A    between atoms: C14_18  and  O3_24
REMARK    5  A    between atoms: C15_20  and  C16_21
REMARK    6  A    between atoms: C15_20  and  C17_22
REMARK    7  A    between atoms: C17_22  and  O2_23
REMARK                            x       y       z     vdW  Elec       q    Type
REMARK                         _______ _______ _______ _____ _____    ______ ____
ROOT
ATOM      1  C   UNL     1      44.467  19.902  18.462  0.00  0.00    +0.022 C 
ATOM      2  C   UNL     1      45.663  19.272  19.196  0.00  0.00    -0.029 C 
ATOM      5  C   UNL     1      46.325  18.262  18.263  0.00  0.00    +0.020 C 
ATOM      6  C   UNL     1      47.616  17.715  18.877  0.00  0.00    +0.014 C 
ATOM      7  C   UNL     1      48.574  18.880  19.144  0.00  0.00    -0.003 C 
ATOM      8  C   UNL     1      47.932  19.815  20.166  0.00  0.00    +0.002 C 
ATOM      9  C   UNL     1      48.864  20.978  20.494  0.00  0.00    +0.001 C 
ATOM     10  C   UNL     1      50.260  20.527  20.882  0.00  0.00    +0.021 C 
ATOM     11  C   UNL     1      50.883  19.518  19.921  0.00  0.00    +0.015 C 
ATOM     12  C   UNL     1      51.558  20.171  18.736  0.00  0.00    -0.030 C 
ATOM     16  C   UNL     1      52.774  20.981  19.243  0.00  0.00    +0.051 C 
ATOM     17  C   UNL     1      52.111  19.146  17.735  0.00  0.00    +0.163 C 
ATOM     20  C   UNL     1      51.041  18.119  17.457  0.00  0.00    +0.336 C 
ATOM     21  O   UNL     1      50.629  17.912  16.345  0.00  0.00    -0.438 OA
ATOM     22  C   UNL     1      50.511  17.365  18.655  0.00  0.00    +0.028 C 
ATOM     23  C   UNL     1      49.920  18.374  19.644  0.00  0.00    -0.028 C 
ATOM     24  C   UNL     1      49.709  17.607  20.968  0.00  0.00    +0.033 C 
ATOM     25  C   UNL     1      46.634  20.381  19.580  0.00  0.00    +0.024 C 
ENDROOT
BRANCH   2   3
ATOM      3  C   UNL     1      45.147  18.579  20.432  0.00  0.00    -0.033 C 
ATOM      4  C   UNL     1      44.017  17.917  20.387  0.00  0.00    -0.004 C 
ENDBRANCH   2   3
BRANCH  17  18
ATOM     18  O   UNL     1      53.265  18.511  18.287  0.00  0.00    -0.541 OA
ATOM     19  H   UNL     1      54.034  18.514  17.701  0.00  0.00    +0.381 HD
ENDBRANCH  17  18
BRANCH  12  13
ATOM     13  C   UNL     1      50.649  21.137  17.977  0.00  0.00    +0.186 C 
BRANCH  13  14
ATOM     14  O   UNL     1      51.301  21.559  16.777  0.00  0.00    -0.570 OA
ATOM     15  H   UNL     1      52.247  21.732  16.883  0.00  0.00    +0.382 HD
ENDBRANCH  13  14
ENDBRANCH  12  13
TORSDOF 4
ENDMDL
MODEL 4
REMARK VINA RESULT:      -5.1      3.374      6.231
REMARK  Name = ZINC95486093
REMARK  7 active torsions:
REMARK  status: ('A' for Active; 'I' for Inactive)
REMARK    1  A    between atoms: C1_1  and  C2_2
REMARK    2  A    between atoms: C2_2  and  C19_26
REMARK    3  A    between atoms: C11_14  and  C18_25
REMARK    4  A    between atoms: C14_18  and  O3_24
REMARK    5  A    between atoms: C15_20  and  C16_21
REMARK    6  A    between atoms: C15_20  and  C17_22
REMARK    7  A    between atoms: C17_22  and  O2_23
REMARK                            x       y       z     vdW  Elec       q    Type
REMARK                         _______ _______ _______ _____ _____    ______ ____
ROOT
ATOM      1  C   UNL     1      45.612  14.501  22.457  0.00  0.00    +0.022 C 
ATOM      2  C   UNL     1      46.143  15.466  21.384  0.00  0.00    -0.029 C 
ATOM      5  C   UNL     1      44.993  15.831  20.450  0.00  0.00    +0.020 C 
ATOM      6  C   UNL     1      45.419  16.912  19.455  0.00  0.00    +0.014 C 
ATOM      7  C   UNL     1      45.871  18.154  20.230  0.00  0.00    -0.003 C 
ATOM      8  C   UNL     1      47.092  17.787  21.069  0.00  0.00    +0.002 C 
ATOM      9  C   UNL     1      47.605  19.002  21.837  0.00  0.00    +0.001 C 
ATOM     10  C   UNL     1      47.824  20.214  20.950  0.00  0.00    +0.021 C 
ATOM     11  C   UNL     1      46.648  20.542  20.034  0.00  0.00    +0.015 C 
ATOM     12  C   UNL     1      45.590  21.383  20.710  0.00  0.00    -0.030 C 
ATOM     16  C   UNL     1      46.192  22.771  21.031  0.00  0.00    +0.051 C 
ATOM     17  C   UNL     1      44.376  21.640  19.806  0.00  0.00    +0.163 C 
ATOM     20  C   UNL     1      43.946  20.329  19.193  0.00  0.00    +0.336 C 
ATOM     21  O   UNL     1      42.836  19.888  19.345  0.00  0.00    -0.438 OA
ATOM     22  C   UNL     1      44.990  19.599  18.380  0.00  0.00    +0.028 C 
ATOM     23  C   UNL     1      46.191  19.301  19.282  0.00  0.00    -0.028 C 
ATOM     24  C   UNL     1      47.339  18.872  18.343  0.00  0.00    +0.033 C 
ATOM     25  C   UNL     1      46.698  16.704  22.079  0.00  0.00    +0.024 C 
ENDROOT
BRANCH   2   3
ATOM      3  C   UNL     1      47.235  14.766  20.616  0.00  0.00    -0.033 C 
ATOM      4  C   UNL     1      46.986  13.627  20.016  0.00  0.00    -0.004 C 
ENDBRANCH   2   3
BRANCH  17  18
ATOM     18  O   UNL     1      44.729  22.566  18.778  0.00  0.00    -0.541 OA
ATOM     19  H   UNL     1      44.033  22.711  18.122  0.00  0.00    +0.381 HD
ENDBRANCH  17  18
BRANCH  12  13
ATOM     13  C   UNL     1      45.088  20.787  22.024  0.00  0.00    +0.186 C 
BRANCH  13  14
ATOM     14  O   UNL     1      43.976  21.548  22.499  0.00  0.00    -0.570 OA
ATOM     15  H   UNL     1      43.335  21.777  21.812  0.00  0.00    +0.382 HD
ENDBRANCH  13  14
ENDBRANCH  12  13
TORSDOF 4
ENDMDL
MODEL 5
REMARK VINA RESULT:      -5.1      2.753      6.020
REMARK  Name = ZINC95486093
REMARK  7 active torsions:
REMARK  status: ('A' for Active; 'I' for Inactive)
REMARK    1  A    between atoms: C1_1  and  C2_2
REMARK    2  A    between atoms: C2_2  and  C19_26
REMARK    3  A    between atoms: C11_14  and  C18_25
REMARK    4  A    between atoms: C14_18  and  O3_24
REMARK    5  A    between atoms: C15_20  and  C16_21
REMARK    6  A    between atoms: C15_20  and  C17_22
REMARK    7  A    between atoms: C17_22  and  O2_23
REMARK                            x       y       z     vdW  Elec       q    Type
REMARK                         _______ _______ _______ _____ _____    ______ ____
ROOT
ATOM      1  C   UNL     1      46.343  16.483  17.832  0.00  0.00    +0.022 C 
ATOM      2  C   UNL     1      47.873  16.500  17.985  0.00  0.00    -0.029 C 
ATOM      5  C   UNL     1      48.457  17.414  16.911  0.00  0.00    +0.020 C 
ATOM      6  C   UNL     1      49.963  17.598  17.109  0.00  0.00    +0.014 C 
ATOM      7  C   UNL     1      50.215  18.200  18.495  0.00  0.00    -0.003 C 
ATOM      8  C   UNL     1      49.724  17.214  19.552  0.00  0.00    +0.002 C 
ATOM      9  C   UNL     1      49.983  17.752  20.956  0.00  0.00    +0.001 C 
ATOM     10  C   UNL     1      51.420  18.194  21.164  0.00  0.00    +0.021 C 
ATOM     11  C   UNL     1      51.961  19.107  20.067  0.00  0.00    +0.015 C 
ATOM     12  C   UNL     1      51.613  20.562  20.284  0.00  0.00    -0.030 C 
ATOM     16  C   UNL     1      52.340  21.059  21.556  0.00  0.00    +0.051 C 
ATOM     17  C   UNL     1      52.093  21.460  19.135  0.00  0.00    +0.163 C 
ATOM     20  C   UNL     1      51.684  20.828  17.827  0.00  0.00    +0.336 C 
ATOM     21  O   UNL     1      50.988  21.402  17.031  0.00  0.00    -0.438 OA
ATOM     22  C   UNL     1      52.196  19.429  17.573  0.00  0.00    +0.028 C 
ATOM     23  C   UNL     1      51.691  18.513  18.693  0.00  0.00    -0.028 C 
ATOM     24  C   UNL     1      52.503  17.205  18.579  0.00  0.00    +0.033 C 
ATOM     25  C   UNL     1      48.214  17.008  19.381  0.00  0.00    +0.024 C 
ENDROOT
BRANCH   2   3
ATOM      3  C   UNL     1      48.382  15.093  17.803  0.00  0.00    -0.033 C 
ATOM      4  C   UNL     1      48.022  14.397  16.752  0.00  0.00    -0.004 C 
ENDBRANCH   2   3
BRANCH  17  18
ATOM     18  O   UNL     1      53.513  21.592  19.190  0.00  0.00    -0.541 OA
ATOM     19  H   UNL     1      53.826  22.507  19.144  0.00  0.00    +0.381 HD
ENDBRANCH  17  18
BRANCH  12  13
ATOM     13  C   UNL     1      50.118  20.804  20.487  0.00  0.00    +0.186 C 
BRANCH  13  14
ATOM     14  O   UNL     1      49.885  21.241  21.828  0.00  0.00    -0.570 OA
ATOM     15  H   UNL     1      49.831  20.521  22.472  0.00  0.00    +0.382 HD
ENDBRANCH  13  14
ENDBRANCH  12  13
TORSDOF 4
ENDMDL
MODEL 6
REMARK VINA RESULT:      -5.1      2.062      3.224
REMARK  Name = ZINC95486093
REMARK  7 active torsions:
REMARK  status: ('A' for Active; 'I' for Inactive)
REMARK    1  A    between atoms: C1_1  and  C2_2
REMARK    2  A    between atoms: C2_2  and  C19_26
REMARK    3  A    between atoms: C11_14  and  C18_25
REMARK    4  A    between atoms: C14_18  and  O3_24
REMARK    5  A    between atoms: C15_20  and  C16_21
REMARK    6  A    between atoms: C15_20  and  C17_22
REMARK    7  A    between atoms: C17_22  and  O2_23
REMARK                            x       y       z     vdW  Elec       q    Type
REMARK                         _______ _______ _______ _____ _____    ______ ____
ROOT
ATOM      1  C   UNL     1      50.919  19.503  18.148  0.00  0.00    +0.022 C 
ATOM      2  C   UNL     1      49.967  19.868  19.301  0.00  0.00    -0.029 C 
ATOM      5  C   UNL     1      48.812  20.687  18.732  0.00  0.00    +0.020 C 
ATOM      6  C   UNL     1      47.748  20.947  19.800  0.00  0.00    +0.014 C 
ATOM      7  C   UNL     1      47.224  19.604  20.321  0.00  0.00    -0.003 C 
ATOM      8  C   UNL     1      48.378  18.856  20.984  0.00  0.00    +0.002 C 
ATOM      9  C   UNL     1      47.900  17.522  21.552  0.00  0.00    +0.001 C 
ATOM     10  C   UNL     1      46.679  17.660  22.442  0.00  0.00    +0.021 C 
ATOM     11  C   UNL     1      45.549  18.486  21.833  0.00  0.00    +0.015 C 
ATOM     12  C   UNL     1      44.646  17.676  20.931  0.00  0.00    -0.030 C 
ATOM     16  C   UNL     1      43.901  16.627  21.789  0.00  0.00    +0.051 C 
ATOM     17  C   UNL     1      43.562  18.532  20.261  0.00  0.00    +0.163 C 
ATOM     20  C   UNL     1      44.212  19.766  19.681  0.00  0.00    +0.336 C 
ATOM     21  O   UNL     1      44.137  20.035  18.511  0.00  0.00    -0.438 OA
ATOM     22  C   UNL     1      44.967  20.642  20.654  0.00  0.00    +0.028 C 
ATOM     23  C   UNL     1      46.078  19.809  21.300  0.00  0.00    -0.028 C 
ATOM     24  C   UNL     1      46.587  20.631  22.505  0.00  0.00    +0.033 C 
ATOM     25  C   UNL     1      49.463  18.579  19.938  0.00  0.00    +0.024 C 
ENDROOT
BRANCH   2   3
ATOM      3  C   UNL     1      50.736  20.683  20.309  0.00  0.00    -0.033 C 
ATOM      4  C   UNL     1      51.875  21.236  19.972  0.00  0.00    -0.004 C 
ENDBRANCH   2   3
BRANCH  17  18
ATOM     18  O   UNL     1      42.581  18.907  21.228  0.00  0.00    -0.541 OA
ATOM     19  H   UNL     1      41.799  18.338  21.237  0.00  0.00    +0.381 HD
ENDBRANCH  17  18
BRANCH  12  13
ATOM     13  C   UNL     1      45.400  16.921  19.838  0.00  0.00    +0.186 C 
BRANCH  13  14
ATOM     14  O   UNL     1      44.940  15.569  19.790  0.00  0.00    -0.570 OA
ATOM     15  H   UNL     1      44.629  15.290  18.917  0.00  0.00    +0.382 HD
ENDBRANCH  13  14
ENDBRANCH  12  13
TORSDOF 4
ENDMDL
MODEL 7
REMARK VINA RESULT:      -5.0      2.516      4.700
REMARK  Name = ZINC95486093
REMARK  7 active torsions:
REMARK  status: ('A' for Active; 'I' for Inactive)
REMARK    1  A    between atoms: C1_1  and  C2_2
REMARK    2  A    between atoms: C2_2  and  C19_26
REMARK    3  A    between atoms: C11_14  and  C18_25
REMARK    4  A    between atoms: C14_18  and  O3_24
REMARK    5  A    between atoms: C15_20  and  C16_21
REMARK    6  A    between atoms: C15_20  and  C17_22
REMARK    7  A    between atoms: C17_22  and  O2_23
REMARK                            x       y       z     vdW  Elec       q    Type
REMARK                         _______ _______ _______ _____ _____    ______ ____
ROOT
ATOM      1  C   UNL     1      43.393  22.630  19.638  0.00  0.00    +0.022 C 
ATOM      2  C   UNL     1      44.571  21.872  20.274  0.00  0.00    -0.029 C 
ATOM      5  C   UNL     1      44.043  20.567  20.864  0.00  0.00    +0.020 C 
ATOM      6  C   UNL     1      45.192  19.693  21.373  0.00  0.00    +0.014 C 
ATOM      7  C   UNL     1      46.141  19.389  20.209  0.00  0.00    -0.003 C 
ATOM      8  C   UNL     1      46.740  20.703  19.713  0.00  0.00    +0.002 C 
ATOM      9  C   UNL     1      47.723  20.452  18.572  0.00  0.00    +0.001 C 
ATOM     10  C   UNL     1      48.766  19.402  18.910  0.00  0.00    +0.021 C 
ATOM     11  C   UNL     1      48.193  18.115  19.495  0.00  0.00    +0.015 C 
ATOM     12  C   UNL     1      47.733  17.138  18.438  0.00  0.00    -0.030 C 
ATOM     16  C   UNL     1      48.967  16.653  17.642  0.00  0.00    +0.051 C 
ATOM     17  C   UNL     1      47.086  15.882  19.037  0.00  0.00    +0.163 C 
ATOM     20  C   UNL     1      46.085  16.309  20.084  0.00  0.00    +0.336 C 
ATOM     21  O   UNL     1      44.923  16.002  20.017  0.00  0.00    -0.438 OA
ATOM     22  C   UNL     1      46.624  17.147  21.221  0.00  0.00    +0.028 C 
ATOM     23  C   UNL     1      47.237  18.424  20.637  0.00  0.00    -0.028 C 
ATOM     24  C   UNL     1      48.057  19.067  21.777  0.00  0.00    +0.033 C 
ATOM     25  C   UNL     1      45.613  21.603  19.195  0.00  0.00    +0.024 C 
ENDROOT
BRANCH   2   3
ATOM      3  C   UNL     1      45.157  22.735  21.362  0.00  0.00    -0.033 C 
ATOM      4  C   UNL     1      45.615  23.929  21.075  0.00  0.00    -0.004 C 
ENDBRANCH   2   3
BRANCH  17  18
ATOM     18  O   UNL     1      48.092  15.061  19.632  0.00  0.00    -0.541 OA
ATOM     19  H   UNL     1      48.603  15.504  20.323  0.00  0.00    +0.381 HD
ENDBRANCH  17  18
BRANCH  12  13
ATOM     13  C   UNL     1      46.753  17.747  17.435  0.00  0.00    +0.186 C 
BRANCH  13  14
ATOM     14  O   UNL     1      46.820  17.023  16.205  0.00  0.00    -0.570 OA
ATOM     15  H   UNL     1      47.353  17.454  15.523  0.00  0.00    +0.382 HD
ENDBRANCH  13  14
ENDBRANCH  12  13
TORSDOF 4
ENDMDL
MODEL 8
REMARK VINA RESULT:      -4.8      3.390      4.850
REMARK  Name = ZINC95486093
REMARK  7 active torsions:
REMARK  status: ('A' for Active; 'I' for Inactive)
REMARK    1  A    between atoms: C1_1  and  C2_2
REMARK    2  A    between atoms: C2_2  and  C19_26
REMARK    3  A    between atoms: C11_14  and  C18_25
REMARK    4  A    between atoms: C14_18  and  O3_24
REMARK    5  A    between atoms: C15_20  and  C16_21
REMARK    6  A    between atoms: C15_20  and  C17_22
REMARK    7  A    between atoms: C17_22  and  O2_23
REMARK                            x       y       z     vdW  Elec       q    Type
REMARK                         _______ _______ _______ _____ _____    ______ ____
ROOT
ATOM      1  C   UNL     1      43.640  19.895  18.658  0.00  0.00    +0.022 C 
ATOM      2  C   UNL     1      44.862  19.168  19.244  0.00  0.00    -0.029 C 
ATOM      5  C   UNL     1      44.371  17.958  20.035  0.00  0.00    +0.020 C 
ATOM      6  C   UNL     1      45.547  17.103  20.512  0.00  0.00    +0.014 C 
ATOM      7  C   UNL     1      46.349  16.633  19.293  0.00  0.00    -0.003 C 
ATOM      8  C   UNL     1      46.922  17.859  18.585  0.00  0.00    +0.002 C 
ATOM      9  C   UNL     1      47.761  17.444  17.380  0.00  0.00    +0.001 C 
ATOM     10  C   UNL     1      48.807  16.398  17.719  0.00  0.00    +0.021 C 
ATOM     11  C   UNL     1      48.271  15.208  18.510  0.00  0.00    +0.015 C 
ATOM     12  C   UNL     1      47.668  14.138  17.630  0.00  0.00    -0.030 C 
ATOM     16  C   UNL     1      48.790  13.518  16.764  0.00  0.00    +0.051 C 
ATOM     17  C   UNL     1      47.061  12.983  18.438  0.00  0.00    +0.163 C 
ATOM     20  C   UNL     1      46.198  13.563  19.533  0.00  0.00    +0.336 C 
ATOM     21  O   UNL     1      45.028  13.297  19.630  0.00  0.00    -0.438 OA
ATOM     22  C   UNL     1      46.884  14.501  20.498  0.00  0.00    +0.028 C 
ATOM     23  C   UNL     1      47.460  15.680  19.707  0.00  0.00    -0.028 C 
ATOM     24  C   UNL     1      48.422  16.414  20.666  0.00  0.00    +0.033 C 
ATOM     25  C   UNL     1      45.766  18.739  18.094  0.00  0.00    +0.024 C 
ENDROOT
BRANCH   2   3
ATOM      3  C   UNL     1      45.591  20.123  20.153  0.00  0.00    -0.033 C 
ATOM      4  C   UNL     1      45.905  21.322  19.725  0.00  0.00    -0.004 C 
ENDBRANCH   2   3
BRANCH  17  18
ATOM     18  O   UNL     1      48.106  12.195  19.009  0.00  0.00    -0.541 OA
ATOM     19  H   UNL     1      48.081  12.148  19.975  0.00  0.00    +0.381 HD
ENDBRANCH  17  18
BRANCH  12  13
ATOM     13  C   UNL     1      46.596  14.668  16.678  0.00  0.00    +0.186 C 
BRANCH  13  14
ATOM     14  O   UNL     1      46.975  14.385  15.330  0.00  0.00    -0.570 OA
ATOM     15  H   UNL     1      47.586  15.031  14.948  0.00  0.00    +0.382 HD
ENDBRANCH  13  14
ENDBRANCH  12  13
TORSDOF 4
ENDMDL
MODEL 9
REMARK VINA RESULT:      -4.8      1.962      3.552
REMARK  Name = ZINC95486093
REMARK  7 active torsions:
REMARK  status: ('A' for Active; 'I' for Inactive)
REMARK    1  A    between atoms: C1_1  and  C2_2
REMARK    2  A    between atoms: C2_2  and  C19_26
REMARK    3  A    between atoms: C11_14  and  C18_25
REMARK    4  A    between atoms: C14_18  and  O3_24
REMARK    5  A    between atoms: C15_20  and  C16_21
REMARK    6  A    between atoms: C15_20  and  C17_22
REMARK    7  A    between atoms: C17_22  and  O2_23
REMARK                            x       y       z     vdW  Elec       q    Type
REMARK                         _______ _______ _______ _____ _____    ______ ____
ROOT
ATOM      1  C   UNL     1      52.553  18.649  18.408  0.00  0.00    +0.022 C 
ATOM      2  C   UNL     1      51.027  18.706  18.223  0.00  0.00    -0.029 C 
ATOM      5  C   UNL     1      50.622  17.629  17.221  0.00  0.00    +0.020 C 
ATOM      6  C   UNL     1      49.099  17.529  17.112  0.00  0.00    +0.014 C 
ATOM      7  C   UNL     1      48.520  17.197  18.491  0.00  0.00    -0.003 C 
ATOM      8  C   UNL     1      48.845  18.344  19.445  0.00  0.00    +0.002 C 
ATOM      9  C   UNL     1      48.260  18.078  20.829  0.00  0.00    +0.001 C 
ATOM     10  C   UNL     1      46.784  17.724  20.790  0.00  0.00    +0.021 C 
ATOM     11  C   UNL     1      46.425  16.643  19.775  0.00  0.00    +0.015 C 
ATOM     12  C   UNL     1      46.619  15.243  20.309  0.00  0.00    -0.030 C 
ATOM     16  C   UNL     1      45.609  15.007  21.457  0.00  0.00    +0.051 C 
ATOM     17  C   UNL     1      46.332  14.164  19.255  0.00  0.00    +0.163 C 
ATOM     20  C   UNL     1      47.049  14.536  17.979  0.00  0.00    +0.336 C 
ATOM     21  O   UNL     1      47.856  13.805  17.466  0.00  0.00    -0.438 OA
ATOM     22  C   UNL     1      46.698  15.880  17.383  0.00  0.00    +0.028 C 
ATOM     23  C   UNL     1      47.018  16.968  18.412  0.00  0.00    -0.028 C 
ATOM     24  C   UNL     1      46.340  18.258  17.900  0.00  0.00    +0.033 C 
ATOM     25  C   UNL     1      50.367  18.471  19.576  0.00  0.00    +0.024 C 
ENDROOT
BRANCH   2   3
ATOM      3  C   UNL     1      50.665  20.071  17.696  0.00  0.00    -0.033 C 
ATOM      4  C   UNL     1      51.139  21.145  18.280  0.00  0.00    -0.004 C 
ENDBRANCH   2   3
BRANCH  17  18
ATOM     18  O   UNL     1      44.926  14.087  19.018  0.00  0.00    -0.541 OA
ATOM     19  H   UNL     1      44.518  13.270  19.338  0.00  0.00    +0.381 HD
ENDBRANCH  17  18
BRANCH  12  13
ATOM     13  C   UNL     1      48.018  14.997  20.873  0.00  0.00    +0.186 C 
BRANCH  13  14
ATOM     14  O   UNL     1      48.379  13.629  20.671  0.00  0.00    -0.570 OA
ATOM     15  H   UNL     1      49.209  13.374  21.099  0.00  0.00    +0.382 HD
ENDBRANCH  13  14
ENDBRANCH  12  13
TORSDOF 4
ENDMDL
