MODEL 1
REMARK VINA RESULT:      -5.7      0.000      0.000
REMARK  Name = ZINC01663628
REMARK  8 active torsions:
REMARK  status: ('A' for Active; 'I' for Inactive)
REMARK    1  A    between atoms: C1_1  and  O1_2
REMARK    2  A    between atoms: O1_2  and  C2_3
REMARK    3  A    between atoms: C6_7  and  O3_11
REMARK    4  A    between atoms: C7_8  and  O2_9
REMARK    5  A    between atoms: O2_9  and  C8_10
REMARK    6  A    between atoms: C10_14  and  C12_18
REMARK    7  A    between atoms: C12_18  and  C13_19
REMARK    8  A    between atoms: C16_22  and  O6_25
REMARK                            x       y       z     vdW  Elec       q    Type
REMARK                         _______ _______ _______ _____ _____    ______ ____
ROOT
ATOM      3  C   UNL     1      42.476  20.435  19.351  0.00  0.00    +0.197 A 
ATOM      4  C   UNL     1      43.534  21.311  19.141  0.00  0.00    -0.102 A 
ATOM      5  C   UNL     1      44.715  21.160  19.847  0.00  0.00    +0.231 A 
ATOM      6  C   UNL     1      44.830  20.115  20.782  0.00  0.00    -0.304 A 
ATOM      7  C   UNL     1      46.078  19.973  21.541  0.00  0.00    +0.403 C 
ATOM      8  C   UNL     1      47.264  20.789  21.059  0.00  0.00    -0.049 C 
ATOM     18  C   UNL     1      46.728  22.171  20.653  0.00  0.00    +0.276 C 
ATOM     19  O   UNL     1      46.159  19.239  22.504  0.00  0.00    -0.416 OA
ATOM     20  C   UNL     1      43.762  19.228  20.988  0.00  0.00    +0.224 A 
ATOM     23  O   UNL     1      45.743  22.016  19.632  0.00  0.00    -0.299 OA
ATOM     24  C   UNL     1      42.588  19.396  20.269  0.00  0.00    -0.010 A 
ENDROOT
BRANCH   3   2
ATOM      1  C   UNL     1      40.766  21.911  18.612  0.00  0.00    +0.253 C 
ATOM      2  O   UNL     1      41.324  20.595  18.653  0.00  0.00    -0.293 OA
ENDBRANCH   3   2
BRANCH  20  21
ATOM     21  O   UNL     1      43.878  18.215  21.882  0.00  0.00    -0.460 OA
ATOM     22  H   UNL     1      43.566  18.436  22.771  0.00  0.00    +0.396 HD
ENDBRANCH  20  21
BRANCH  24  25
ATOM     25  O   UNL     1      41.545  18.542  20.462  0.00  0.00    -0.308 OA
ATOM     26  C   UNL     1      40.570  18.916  21.438  0.00  0.00    +0.217 C 
ENDBRANCH  24  25
BRANCH   8   9
ATOM      9  C   UNL     1      47.911  20.107  19.853  0.00  0.00    +0.110 C 
BRANCH   9  10
ATOM     10  C   UNL     1      49.347  20.547  19.737  0.00  0.00    -0.100 A 
ATOM     11  C   UNL     1      49.899  20.780  18.491  0.00  0.00    +0.034 A 
ATOM     12  C   UNL     1      51.214  21.189  18.382  0.00  0.00    -0.012 A 
ATOM     13  C   UNL     1      51.984  21.356  19.524  0.00  0.00    +0.107 A 
ATOM     16  C   UNL     1      51.429  21.118  20.773  0.00  0.00    -0.011 A 
ATOM     17  C   UNL     1      50.112  20.714  20.877  0.00  0.00    +0.025 A 
BRANCH  13  14
ATOM     14  O   UNL     1      53.279  21.754  19.419  0.00  0.00    -0.499 OA
ATOM     15  H   UNL     1      53.555  21.959  18.515  0.00  0.00    +0.391 HD
ENDBRANCH  13  14
ENDBRANCH   9  10
ENDBRANCH   8   9
TORSDOF 6
ENDMDL
MODEL 2
REMARK VINA RESULT:      -5.7      4.120      7.653
REMARK  Name = ZINC01663628
REMARK  8 active torsions:
REMARK  status: ('A' for Active; 'I' for Inactive)
REMARK    1  A    between atoms: C1_1  and  O1_2
REMARK    2  A    between atoms: O1_2  and  C2_3
REMARK    3  A    between atoms: C6_7  and  O3_11
REMARK    4  A    between atoms: C7_8  and  O2_9
REMARK    5  A    between atoms: O2_9  and  C8_10
REMARK    6  A    between atoms: C10_14  and  C12_18
REMARK    7  A    between atoms: C12_18  and  C13_19
REMARK    8  A    between atoms: C16_22  and  O6_25
REMARK                            x       y       z     vdW  Elec       q    Type
REMARK                         _______ _______ _______ _____ _____    ______ ____
ROOT
ATOM      3  C   UNL     1      46.717  14.315  19.367  0.00  0.00    +0.197 A 
ATOM      4  C   UNL     1      46.452  15.055  20.514  0.00  0.00    -0.102 A 
ATOM      5  C   UNL     1      46.074  16.382  20.415  0.00  0.00    +0.231 A 
ATOM      6  C   UNL     1      45.966  16.975  19.143  0.00  0.00    -0.304 A 
ATOM      7  C   UNL     1      45.583  18.388  19.047  0.00  0.00    +0.403 C 
ATOM      8  C   UNL     1      45.052  19.037  20.313  0.00  0.00    -0.049 C 
ATOM     18  C   UNL     1      45.904  18.518  21.480  0.00  0.00    +0.276 C 
ATOM     19  O   UNL     1      45.684  19.008  18.008  0.00  0.00    -0.416 OA
ATOM     20  C   UNL     1      46.228  16.225  17.987  0.00  0.00    +0.224 A 
ATOM     23  O   UNL     1      45.813  17.094  21.537  0.00  0.00    -0.299 OA
ATOM     24  C   UNL     1      46.604  14.895  18.108  0.00  0.00    -0.010 A 
ENDROOT
BRANCH   3   2
ATOM      1  C   UNL     1      48.341  12.749  20.112  0.00  0.00    +0.253 C 
ATOM      2  O   UNL     1      47.088  13.015  19.478  0.00  0.00    -0.293 OA
ENDBRANCH   3   2
BRANCH  20  21
ATOM     21  O   UNL     1      46.113  16.794  16.761  0.00  0.00    -0.460 OA
ATOM     22  H   UNL     1      45.755  16.203  16.084  0.00  0.00    +0.396 HD
ENDBRANCH  20  21
BRANCH  24  25
ATOM     25  O   UNL     1      46.862  14.157  16.992  0.00  0.00    -0.308 OA
ATOM     26  C   UNL     1      48.210  14.146  16.518  0.00  0.00    +0.217 C 
ENDBRANCH  24  25
BRANCH   8   9
ATOM      9  C   UNL     1      43.588  18.647  20.523  0.00  0.00    +0.110 C 
BRANCH   9  10
ATOM     10  C   UNL     1      42.696  19.668  19.865  0.00  0.00    -0.100 A 
ATOM     11  C   UNL     1      41.424  19.313  19.456  0.00  0.00    +0.034 A 
ATOM     12  C   UNL     1      40.603  20.248  18.858  0.00  0.00    -0.012 A 
ATOM     13  C   UNL     1      41.058  21.543  18.659  0.00  0.00    +0.107 A 
ATOM     16  C   UNL     1      42.337  21.897  19.066  0.00  0.00    -0.011 A 
ATOM     17  C   UNL     1      43.152  20.959  19.669  0.00  0.00    +0.025 A 
BRANCH  13  14
ATOM     14  O   UNL     1      40.254  22.464  18.066  0.00  0.00    -0.499 OA
ATOM     15  H   UNL     1      39.761  22.125  17.307  0.00  0.00    +0.391 HD
ENDBRANCH  13  14
ENDBRANCH   9  10
ENDBRANCH   8   9
TORSDOF 6
ENDMDL
MODEL 3
REMARK VINA RESULT:      -5.4      5.349      7.487
REMARK  Name = ZINC01663628
REMARK  8 active torsions:
REMARK  status: ('A' for Active; 'I' for Inactive)
REMARK    1  A    between atoms: C1_1  and  O1_2
REMARK    2  A    between atoms: O1_2  and  C2_3
REMARK    3  A    between atoms: C6_7  and  O3_11
REMARK    4  A    between atoms: C7_8  and  O2_9
REMARK    5  A    between atoms: O2_9  and  C8_10
REMARK    6  A    between atoms: C10_14  and  C12_18
REMARK    7  A    between atoms: C12_18  and  C13_19
REMARK    8  A    between atoms: C16_22  and  O6_25
REMARK                            x       y       z     vdW  Elec       q    Type
REMARK                         _______ _______ _______ _____ _____    ______ ____
ROOT
ATOM      3  C   UNL     1      46.537  13.177  17.588  0.00  0.00    +0.197 A 
ATOM      4  C   UNL     1      45.792  13.999  18.426  0.00  0.00    -0.102 A 
ATOM      5  C   UNL     1      46.203  15.296  18.675  0.00  0.00    +0.231 A 
ATOM      6  C   UNL     1      47.385  15.771  18.076  0.00  0.00    -0.304 A 
ATOM      7  C   UNL     1      47.826  17.142  18.360  0.00  0.00    +0.403 C 
ATOM      8  C   UNL     1      46.824  18.049  19.053  0.00  0.00    -0.049 C 
ATOM     18  C   UNL     1      46.108  17.203  20.117  0.00  0.00    +0.276 C 
ATOM     19  O   UNL     1      48.933  17.532  18.055  0.00  0.00    -0.416 OA
ATOM     20  C   UNL     1      48.132  14.942  17.226  0.00  0.00    +0.224 A 
ATOM     23  O   UNL     1      45.469  16.092  19.488  0.00  0.00    -0.299 OA
ATOM     24  C   UNL     1      47.702  13.645  16.989  0.00  0.00    -0.010 A 
ENDROOT
BRANCH   3   2
ATOM      1  C   UNL     1      45.000  11.738  16.486  0.00  0.00    +0.253 C 
ATOM      2  O   UNL     1      46.123  11.906  17.354  0.00  0.00    -0.293 OA
ENDBRANCH   3   2
BRANCH  20  21
ATOM     21  O   UNL     1      49.265  15.405  16.642  0.00  0.00    -0.460 OA
ATOM     22  H   UNL     1      49.265  16.359  16.484  0.00  0.00    +0.396 HD
ENDBRANCH  20  21
BRANCH  24  25
ATOM     25  O   UNL     1      48.420  12.830  16.167  0.00  0.00    -0.308 OA
ATOM     26  C   UNL     1      48.112  12.880  14.772  0.00  0.00    +0.217 C 
ENDBRANCH  24  25
BRANCH   8   9
ATOM      9  C   UNL     1      45.810  18.577  18.038  0.00  0.00    +0.110 C 
BRANCH   9  10
ATOM     10  C   UNL     1      45.116  19.790  18.604  0.00  0.00    -0.100 A 
ATOM     11  C   UNL     1      45.841  20.935  18.876  0.00  0.00    +0.034 A 
ATOM     12  C   UNL     1      45.207  22.049  19.389  0.00  0.00    -0.012 A 
ATOM     13  C   UNL     1      43.843  22.015  19.642  0.00  0.00    +0.107 A 
ATOM     16  C   UNL     1      43.119  20.862  19.373  0.00  0.00    -0.011 A 
ATOM     17  C   UNL     1      43.757  19.753  18.854  0.00  0.00    +0.025 A 
BRANCH  13  14
ATOM     14  O   UNL     1      43.217  23.108  20.152  0.00  0.00    -0.499 OA
ATOM     15  H   UNL     1      42.538  23.478  19.572  0.00  0.00    +0.391 HD
ENDBRANCH  13  14
ENDBRANCH   9  10
ENDBRANCH   8   9
TORSDOF 6
ENDMDL
MODEL 4
REMARK VINA RESULT:      -5.2      5.089      7.749
REMARK  Name = ZINC01663628
REMARK  8 active torsions:
REMARK  status: ('A' for Active; 'I' for Inactive)
REMARK    1  A    between atoms: C1_1  and  O1_2
REMARK    2  A    between atoms: O1_2  and  C2_3
REMARK    3  A    between atoms: C6_7  and  O3_11
REMARK    4  A    between atoms: C7_8  and  O2_9
REMARK    5  A    between atoms: O2_9  and  C8_10
REMARK    6  A    between atoms: C10_14  and  C12_18
REMARK    7  A    between atoms: C12_18  and  C13_19
REMARK    8  A    between atoms: C16_22  and  O6_25
REMARK                            x       y       z     vdW  Elec       q    Type
REMARK                         _______ _______ _______ _____ _____    ______ ____
ROOT
ATOM      3  C   UNL     1      48.200  14.015  16.576  0.00  0.00    +0.197 A 
ATOM      4  C   UNL     1      46.985  14.398  17.132  0.00  0.00    -0.102 A 
ATOM      5  C   UNL     1      46.906  15.534  17.918  0.00  0.00    +0.231 A 
ATOM      6  C   UNL     1      48.068  16.292  18.153  0.00  0.00    -0.304 A 
ATOM      7  C   UNL     1      47.980  17.485  19.003  0.00  0.00    +0.403 C 
ATOM      8  C   UNL     1      46.585  17.980  19.339  0.00  0.00    -0.049 C 
ATOM     18  C   UNL     1      45.716  16.742  19.607  0.00  0.00    +0.276 C 
ATOM     19  O   UNL     1      48.972  18.048  19.417  0.00  0.00    -0.416 OA
ATOM     20  C   UNL     1      49.292  15.907  17.586  0.00  0.00    +0.224 A 
ATOM     23  O   UNL     1      45.717  15.904  18.451  0.00  0.00    -0.299 OA
ATOM     24  C   UNL     1      49.350  14.766  16.800  0.00  0.00    -0.010 A 
ENDROOT
BRANCH   3   2
ATOM      1  C   UNL     1      47.213  11.941  15.964  0.00  0.00    +0.253 C 
ATOM      2  O   UNL     1      48.264  12.898  15.809  0.00  0.00    -0.293 OA
ENDBRANCH   3   2
BRANCH  20  21
ATOM     21  O   UNL     1      50.409  16.644  17.805  0.00  0.00    -0.460 OA
ATOM     22  H   UNL     1      50.729  16.613  18.717  0.00  0.00    +0.396 HD
ENDBRANCH  20  21
BRANCH  24  25
ATOM     25  O   UNL     1      50.533  14.381  16.246  0.00  0.00    -0.308 OA
ATOM     26  C   UNL     1      51.349  13.490  17.009  0.00  0.00    +0.217 C 
ENDBRANCH  24  25
BRANCH   8   9
ATOM      9  C   UNL     1      46.015  18.770  18.159  0.00  0.00    +0.110 C 
BRANCH   9  10
ATOM     10  C   UNL     1      45.242  19.957  18.675  0.00  0.00    -0.100 A 
ATOM     11  C   UNL     1      45.899  21.141  18.952  0.00  0.00    +0.034 A 
ATOM     12  C   UNL     1      45.191  22.232  19.419  0.00  0.00    -0.012 A 
ATOM     13  C   UNL     1      43.822  22.134  19.621  0.00  0.00    +0.107 A 
ATOM     16  C   UNL     1      43.166  20.943  19.347  0.00  0.00    -0.011 A 
ATOM     17  C   UNL     1      43.877  19.857  18.874  0.00  0.00    +0.025 A 
BRANCH  13  14
ATOM     14  O   UNL     1      43.125  23.204  20.085  0.00  0.00    -0.499 OA
ATOM     15  H   UNL     1      43.682  23.936  20.385  0.00  0.00    +0.391 HD
ENDBRANCH  13  14
ENDBRANCH   9  10
ENDBRANCH   8   9
TORSDOF 6
ENDMDL
MODEL 5
REMARK VINA RESULT:      -5.1      5.717      8.091
REMARK  Name = ZINC01663628
REMARK  8 active torsions:
REMARK  status: ('A' for Active; 'I' for Inactive)
REMARK    1  A    between atoms: C1_1  and  O1_2
REMARK    2  A    between atoms: O1_2  and  C2_3
REMARK    3  A    between atoms: C6_7  and  O3_11
REMARK    4  A    between atoms: C7_8  and  O2_9
REMARK    5  A    between atoms: O2_9  and  C8_10
REMARK    6  A    between atoms: C10_14  and  C12_18
REMARK    7  A    between atoms: C12_18  and  C13_19
REMARK    8  A    between atoms: C16_22  and  O6_25
REMARK                            x       y       z     vdW  Elec       q    Type
REMARK                         _______ _______ _______ _____ _____    ______ ____
ROOT
ATOM      3  C   UNL     1      47.460  12.514  18.081  0.00  0.00    +0.197 A 
ATOM      4  C   UNL     1      47.573  13.353  19.183  0.00  0.00    -0.102 A 
ATOM      5  C   UNL     1      47.381  14.717  19.043  0.00  0.00    +0.231 A 
ATOM      6  C   UNL     1      47.076  15.244  17.774  0.00  0.00    -0.304 A 
ATOM      7  C   UNL     1      46.893  16.692  17.630  0.00  0.00    +0.403 C 
ATOM      8  C   UNL     1      46.762  17.493  18.913  0.00  0.00    -0.049 C 
ATOM     18  C   UNL     1      47.771  16.911  19.915  0.00  0.00    +0.276 C 
ATOM     19  O   UNL     1      46.847  17.224  16.540  0.00  0.00    -0.416 OA
ATOM     20  C   UNL     1      46.957  14.393  16.664  0.00  0.00    +0.224 A 
ATOM     23  O   UNL     1      47.487  15.527  20.124  0.00  0.00    -0.299 OA
ATOM     24  C   UNL     1      47.151  13.030  16.826  0.00  0.00    -0.010 A 
ENDROOT
BRANCH   3   2
ATOM      1  C   UNL     1      48.835  10.767  18.919  0.00  0.00    +0.253 C 
ATOM      2  O   UNL     1      47.652  11.180  18.231  0.00  0.00    -0.293 OA
ENDBRANCH   3   2
BRANCH  20  21
ATOM     21  O   UNL     1      46.653  14.901  15.444  0.00  0.00    -0.460 OA
ATOM     22  H   UNL     1      45.949  15.565  15.458  0.00  0.00    +0.396 HD
ENDBRANCH  20  21
BRANCH  24  25
ATOM     25  O   UNL     1      47.040  12.195  15.755  0.00  0.00    -0.308 OA
ATOM     26  C   UNL     1      48.227  11.943  15.001  0.00  0.00    +0.217 C 
ENDBRANCH  24  25
BRANCH   8   9
ATOM      9  C   UNL     1      45.343  17.361  19.467  0.00  0.00    +0.110 C 
BRANCH   9  10
ATOM     10  C   UNL     1      44.675  18.712  19.467  0.00  0.00    -0.100 A 
ATOM     11  C   UNL     1      45.387  19.834  19.084  0.00  0.00    +0.034 A 
ATOM     12  C   UNL     1      44.776  21.072  19.077  0.00  0.00    -0.012 A 
ATOM     13  C   UNL     1      43.449  21.192  19.466  0.00  0.00    +0.107 A 
ATOM     16  C   UNL     1      42.738  20.065  19.855  0.00  0.00    -0.011 A 
ATOM     17  C   UNL     1      43.353  18.828  19.854  0.00  0.00    +0.025 A 
BRANCH  13  14
ATOM     14  O   UNL     1      42.847  22.410  19.466  0.00  0.00    -0.499 OA
ATOM     15  H   UNL     1      42.766  22.808  18.588  0.00  0.00    +0.391 HD
ENDBRANCH  13  14
ENDBRANCH   9  10
ENDBRANCH   8   9
TORSDOF 6
ENDMDL
MODEL 6
REMARK VINA RESULT:      -5.0      2.822      7.887
REMARK  Name = ZINC01663628
REMARK  8 active torsions:
REMARK  status: ('A' for Active; 'I' for Inactive)
REMARK    1  A    between atoms: C1_1  and  O1_2
REMARK    2  A    between atoms: O1_2  and  C2_3
REMARK    3  A    between atoms: C6_7  and  O3_11
REMARK    4  A    between atoms: C7_8  and  O2_9
REMARK    5  A    between atoms: O2_9  and  C8_10
REMARK    6  A    between atoms: C10_14  and  C12_18
REMARK    7  A    between atoms: C12_18  and  C13_19
REMARK    8  A    between atoms: C16_22  and  O6_25
REMARK                            x       y       z     vdW  Elec       q    Type
REMARK                         _______ _______ _______ _____ _____    ______ ____
ROOT
ATOM      3  C   UNL     1      50.884  19.245  18.725  0.00  0.00    +0.197 A 
ATOM      4  C   UNL     1      49.913  20.144  19.151  0.00  0.00    -0.102 A 
ATOM      5  C   UNL     1      48.572  19.867  18.953  0.00  0.00    +0.231 A 
ATOM      6  C   UNL     1      48.203  18.670  18.311  0.00  0.00    -0.304 A 
ATOM      7  C   UNL     1      46.780  18.391  18.088  0.00  0.00    +0.403 C 
ATOM      8  C   UNL     1      45.789  19.280  18.819  0.00  0.00    -0.049 C 
ATOM     18  C   UNL     1      46.341  20.713  18.767  0.00  0.00    +0.276 C 
ATOM     19  O   UNL     1      46.412  17.496  17.356  0.00  0.00    -0.416 OA
ATOM     20  C   UNL     1      49.184  17.761  17.887  0.00  0.00    +0.224 A 
ATOM     23  O   UNL     1      47.632  20.746  19.376  0.00  0.00    -0.299 OA
ATOM     24  C   UNL     1      50.523  18.057  18.097  0.00  0.00    -0.010 A 
ENDROOT
BRANCH   3   2
ATOM      1  C   UNL     1      52.538  20.901  19.134  0.00  0.00    +0.253 C 
ATOM      2  O   UNL     1      52.195  19.530  18.924  0.00  0.00    -0.293 OA
ENDBRANCH   3   2
BRANCH  20  21
ATOM     21  O   UNL     1      48.827  16.603  17.279  0.00  0.00    -0.460 OA
ATOM     22  H   UNL     1      48.766  15.846  17.878  0.00  0.00    +0.396 HD
ENDBRANCH  20  21
BRANCH  24  25
ATOM     25  O   UNL     1      51.485  17.183  17.688  0.00  0.00    -0.308 OA
ATOM     26  C   UNL     1      51.902  16.191  18.628  0.00  0.00    +0.217 C 
ENDBRANCH  24  25
BRANCH   8   9
ATOM      9  C   UNL     1      45.657  18.826  20.273  0.00  0.00    +0.110 C 
BRANCH   9  10
ATOM     10  C   UNL     1      44.220  18.948  20.710  0.00  0.00    -0.100 A 
ATOM     11  C   UNL     1      43.230  19.179  19.772  0.00  0.00    +0.034 A 
ATOM     12  C   UNL     1      41.912  19.285  20.169  0.00  0.00    -0.012 A 
ATOM     13  C   UNL     1      41.582  19.172  21.512  0.00  0.00    +0.107 A 
ATOM     16  C   UNL     1      42.577  18.945  22.452  0.00  0.00    -0.011 A 
ATOM     17  C   UNL     1      43.893  18.833  22.049  0.00  0.00    +0.025 A 
BRANCH  13  14
ATOM     14  O   UNL     1      40.286  19.282  21.905  0.00  0.00    -0.499 OA
ATOM     15  H   UNL     1      40.071  18.771  22.698  0.00  0.00    +0.391 HD
ENDBRANCH  13  14
ENDBRANCH   9  10
ENDBRANCH   8   9
TORSDOF 6
ENDMDL
MODEL 7
REMARK VINA RESULT:      -4.9      3.549      4.642
REMARK  Name = ZINC01663628
REMARK  8 active torsions:
REMARK  status: ('A' for Active; 'I' for Inactive)
REMARK    1  A    between atoms: C1_1  and  O1_2
REMARK    2  A    between atoms: O1_2  and  C2_3
REMARK    3  A    between atoms: C6_7  and  O3_11
REMARK    4  A    between atoms: C7_8  and  O2_9
REMARK    5  A    between atoms: O2_9  and  C8_10
REMARK    6  A    between atoms: C10_14  and  C12_18
REMARK    7  A    between atoms: C12_18  and  C13_19
REMARK    8  A    between atoms: C16_22  and  O6_25
REMARK                            x       y       z     vdW  Elec       q    Type
REMARK                         _______ _______ _______ _____ _____    ______ ____
ROOT
ATOM      3  C   UNL     1      43.602  18.506  20.730  0.00  0.00    +0.197 A 
ATOM      4  C   UNL     1      44.067  17.225  21.001  0.00  0.00    -0.102 A 
ATOM      5  C   UNL     1      44.973  16.619  20.149  0.00  0.00    +0.231 A 
ATOM      6  C   UNL     1      45.412  17.310  19.004  0.00  0.00    -0.304 A 
ATOM      7  C   UNL     1      46.359  16.654  18.095  0.00  0.00    +0.403 C 
ATOM      8  C   UNL     1      47.019  15.384  18.601  0.00  0.00    -0.049 C 
ATOM     18  C   UNL     1      45.945  14.582  19.352  0.00  0.00    +0.276 C 
ATOM     19  O   UNL     1      46.602  17.103  16.994  0.00  0.00    -0.416 OA
ATOM     20  C   UNL     1      44.945  18.606  18.736  0.00  0.00    +0.224 A 
ATOM     23  O   UNL     1      45.426  15.372  20.422  0.00  0.00    -0.299 OA
ATOM     24  C   UNL     1      44.039  19.196  19.604  0.00  0.00    -0.010 A 
ENDROOT
BRANCH   3   2
ATOM      1  C   UNL     1      41.325  18.863  21.311  0.00  0.00    +0.253 C 
ATOM      2  O   UNL     1      42.712  19.089  21.573  0.00  0.00    -0.293 OA
ENDBRANCH   3   2
BRANCH  20  21
ATOM     21  O   UNL     1      45.378  19.275  17.639  0.00  0.00    -0.460 OA
ATOM     22  H   UNL     1      45.005  18.951  16.807  0.00  0.00    +0.396 HD
ENDBRANCH  20  21
BRANCH  24  25
ATOM     25  O   UNL     1      43.578  20.453  19.353  0.00  0.00    -0.308 OA
ATOM     26  C   UNL     1      44.324  21.541  19.904  0.00  0.00    +0.217 C 
ENDBRANCH  24  25
BRANCH   8   9
ATOM      9  C   UNL     1      48.165  15.735  19.551  0.00  0.00    +0.110 C 
BRANCH   9  10
ATOM     10  C   UNL     1      49.270  16.408  18.779  0.00  0.00    -0.100 A 
ATOM     11  C   UNL     1      49.618  17.715  19.067  0.00  0.00    +0.034 A 
ATOM     12  C   UNL     1      50.634  18.332  18.365  0.00  0.00    -0.012 A 
ATOM     13  C   UNL     1      51.300  17.642  17.361  0.00  0.00    +0.107 A 
ATOM     16  C   UNL     1      50.946  16.332  17.071  0.00  0.00    -0.011 A 
ATOM     17  C   UNL     1      49.933  15.718  17.780  0.00  0.00    +0.025 A 
BRANCH  13  14
ATOM     14  O   UNL     1      52.297  18.249  16.665  0.00  0.00    -0.499 OA
ATOM     15  H   UNL     1      51.985  18.882  16.004  0.00  0.00    +0.391 HD
ENDBRANCH  13  14
ENDBRANCH   9  10
ENDBRANCH   8   9
TORSDOF 6
ENDMDL
MODEL 8
REMARK VINA RESULT:      -4.9      6.083      7.096
REMARK  Name = ZINC01663628
REMARK  8 active torsions:
REMARK  status: ('A' for Active; 'I' for Inactive)
REMARK    1  A    between atoms: C1_1  and  O1_2
REMARK    2  A    between atoms: O1_2  and  C2_3
REMARK    3  A    between atoms: C6_7  and  O3_11
REMARK    4  A    between atoms: C7_8  and  O2_9
REMARK    5  A    between atoms: O2_9  and  C8_10
REMARK    6  A    between atoms: C10_14  and  C12_18
REMARK    7  A    between atoms: C12_18  and  C13_19
REMARK    8  A    between atoms: C16_22  and  O6_25
REMARK                            x       y       z     vdW  Elec       q    Type
REMARK                         _______ _______ _______ _____ _____    ______ ____
ROOT
ATOM      3  C   UNL     1      45.016  16.885  20.675  0.00  0.00    +0.197 A 
ATOM      4  C   UNL     1      45.159  15.509  20.547  0.00  0.00    -0.102 A 
ATOM      5  C   UNL     1      45.630  14.965  19.365  0.00  0.00    +0.231 A 
ATOM      6  C   UNL     1      45.955  15.819  18.294  0.00  0.00    -0.304 A 
ATOM      7  C   UNL     1      46.436  15.233  17.037  0.00  0.00    +0.403 C 
ATOM      8  C   UNL     1      46.820  13.765  17.073  0.00  0.00    -0.049 C 
ATOM     18  C   UNL     1      45.778  13.045  17.943  0.00  0.00    +0.276 C 
ATOM     19  O   UNL     1      46.523  15.889  16.020  0.00  0.00    -0.416 OA
ATOM     20  C   UNL     1      45.816  17.208  18.429  0.00  0.00    +0.224 A 
ATOM     23  O   UNL     1      45.771  13.622  19.249  0.00  0.00    -0.299 OA
ATOM     24  C   UNL     1      45.344  17.733  19.622  0.00  0.00    -0.010 A 
ENDROOT
BRANCH   3   2
ATOM      1  C   UNL     1      43.203  17.097  22.197  0.00  0.00    +0.253 C 
ATOM      2  O   UNL     1      44.552  17.406  21.839  0.00  0.00    -0.293 OA
ENDBRANCH   3   2
BRANCH  20  21
ATOM     21  O   UNL     1      46.141  18.031  17.400  0.00  0.00    -0.460 OA
ATOM     22  H   UNL     1      46.708  18.773  17.653  0.00  0.00    +0.396 HD
ENDBRANCH  20  21
BRANCH  24  25
ATOM     25  O   UNL     1      45.204  19.081  19.764  0.00  0.00    -0.308 OA
ATOM     26  C   UNL     1      43.961  19.651  19.347  0.00  0.00    +0.217 C 
ENDBRANCH  24  25
BRANCH   8   9
ATOM      9  C   UNL     1      48.211  13.605  17.688  0.00  0.00    +0.110 C 
BRANCH   9  10
ATOM     10  C   UNL     1      49.237  13.497  16.589  0.00  0.00    -0.100 A 
ATOM     11  C   UNL     1      48.931  12.821  15.422  0.00  0.00    +0.034 A 
ATOM     12  C   UNL     1      49.867  12.726  14.412  0.00  0.00    -0.012 A 
ATOM     13  C   UNL     1      51.120  13.300  14.572  0.00  0.00    +0.107 A 
ATOM     16  C   UNL     1      51.427  13.973  15.746  0.00  0.00    -0.011 A 
ATOM     17  C   UNL     1      50.485  14.071  16.751  0.00  0.00    +0.025 A 
BRANCH  13  14
ATOM     14  O   UNL     1      52.045  13.203  13.582  0.00  0.00    -0.499 OA
ATOM     15  H   UNL     1      52.953  13.361  13.875  0.00  0.00    +0.391 HD
ENDBRANCH  13  14
ENDBRANCH   9  10
ENDBRANCH   8   9
TORSDOF 6
ENDMDL
MODEL 9
REMARK VINA RESULT:      -4.9      5.324      6.350
REMARK  Name = ZINC01663628
REMARK  8 active torsions:
REMARK  status: ('A' for Active; 'I' for Inactive)
REMARK    1  A    between atoms: C1_1  and  O1_2
REMARK    2  A    between atoms: O1_2  and  C2_3
REMARK    3  A    between atoms: C6_7  and  O3_11
REMARK    4  A    between atoms: C7_8  and  O2_9
REMARK    5  A    between atoms: O2_9  and  C8_10
REMARK    6  A    between atoms: C10_14  and  C12_18
REMARK    7  A    between atoms: C12_18  and  C13_19
REMARK    8  A    between atoms: C16_22  and  O6_25
REMARK                            x       y       z     vdW  Elec       q    Type
REMARK                         _______ _______ _______ _____ _____    ______ ____
ROOT
ATOM      3  C   UNL     1      46.906  14.235  20.717  0.00  0.00    +0.197 A 
ATOM      4  C   UNL     1      48.167  14.541  21.215  0.00  0.00    -0.102 A 
ATOM      5  C   UNL     1      49.117  15.124  20.395  0.00  0.00    +0.231 A 
ATOM      6  C   UNL     1      48.795  15.396  19.052  0.00  0.00    -0.304 A 
ATOM      7  C   UNL     1      49.814  15.996  18.183  0.00  0.00    +0.403 C 
ATOM      8  C   UNL     1      51.054  16.545  18.867  0.00  0.00    -0.049 C 
ATOM     18  C   UNL     1      51.434  15.556  19.979  0.00  0.00    +0.276 C 
ATOM     19  O   UNL     1      49.674  16.052  16.979  0.00  0.00    -0.416 OA
ATOM     20  C   UNL     1      47.520  15.091  18.553  0.00  0.00    +0.224 A 
ATOM     23  O   UNL     1      50.342  15.424  20.890  0.00  0.00    -0.299 OA
ATOM     24  C   UNL     1      46.581  14.509  19.392  0.00  0.00    -0.010 A 
ENDROOT
BRANCH   3   2
ATOM      1  C   UNL     1      45.327  14.516  22.471  0.00  0.00    +0.253 C 
ATOM      2  O   UNL     1      45.984  13.662  21.531  0.00  0.00    -0.293 OA
ENDBRANCH   3   2
BRANCH  20  21
ATOM     21  O   UNL     1      47.207  15.364  17.262  0.00  0.00    -0.460 OA
ATOM     22  H   UNL     1      47.159  16.309  17.060  0.00  0.00    +0.396 HD
ENDBRANCH  20  21
BRANCH  24  25
ATOM     25  O   UNL     1      45.340  14.207  18.918  0.00  0.00    -0.308 OA
ATOM     26  C   UNL     1      45.159  12.908  18.352  0.00  0.00    +0.217 C 
ENDBRANCH  24  25
BRANCH   8   9
ATOM      9  C   UNL     1      50.751  17.917  19.472  0.00  0.00    +0.110 C 
BRANCH   9  10
ATOM     10  C   UNL     1      51.054  18.991  18.459  0.00  0.00    -0.100 A 
ATOM     11  C   UNL     1      50.465  20.236  18.576  0.00  0.00    +0.034 A 
ATOM     12  C   UNL     1      50.746  21.224  17.653  0.00  0.00    -0.012 A 
ATOM     13  C   UNL     1      51.613  20.963  16.601  0.00  0.00    +0.107 A 
ATOM     16  C   UNL     1      52.199  19.711  16.483  0.00  0.00    -0.011 A 
ATOM     17  C   UNL     1      51.919  18.728  17.413  0.00  0.00    +0.025 A 
BRANCH  13  14
ATOM     14  O   UNL     1      51.886  21.931  15.688  0.00  0.00    -0.499 OA
ATOM     15  H   UNL     1      52.021  21.598  14.790  0.00  0.00    +0.391 HD
ENDBRANCH  13  14
ENDBRANCH   9  10
ENDBRANCH   8   9
TORSDOF 6
ENDMDL
