MODEL 1
REMARK VINA RESULT:      -7.0      0.000      0.000
REMARK  Name = ZINC05452752
REMARK  11 active torsions:
REMARK  status: ('A' for Active; 'I' for Inactive)
REMARK    1  A    between atoms: C1_1  and  C2_2
REMARK    2  A    between atoms: C2_2  and  C3_3
REMARK    3  A    between atoms: C2_2  and  C4_4
REMARK    4  A    between atoms: C4_4  and  C5_5
REMARK    5  A    between atoms: C5_5  and  C6_7
REMARK    6  A    between atoms: C7_8  and  O5_30
REMARK    7  A    between atoms: C8_9  and  C21_25
REMARK    8  A    between atoms: C12_14  and  C15_19
REMARK    9  A    between atoms: C21_25  and  C22_26
REMARK   10  A    between atoms: C23_27  and  C24_28
REMARK   11  A    between atoms: C23_27  and  C25_29
REMARK                            x       y       z     vdW  Elec       q    Type
REMARK                         _______ _______ _______ _____ _____    ______ ____
ROOT
ATOM      5  C   UNL     1      46.995  17.938  18.740  0.00  0.00    -0.374 A 
ATOM      6  C   UNL     1      48.298  18.474  18.799  0.00  0.00    +0.314 A 
ATOM      9  C   UNL     1      48.530  19.677  19.436  0.00  0.00    -0.329 A 
ATOM     15  C   UNL     1      47.482  20.379  20.018  0.00  0.00    +0.262 A 
ATOM     16  C   UNL     1      46.175  19.858  19.962  0.00  0.00    -0.319 A 
ATOM     17  C   UNL     1      45.079  20.617  20.584  0.00  0.00    +0.147 A 
ATOM     24  C   UNL     1      45.391  21.817  21.200  0.00  0.00    -0.196 A 
ATOM     25  C   UNL     1      46.722  22.262  21.209  0.00  0.00    +0.516 A 
ATOM     26  O   UNL     1      46.988  23.320  21.753  0.00  0.00    -0.507 OA
ATOM     27  O   UNL     1      47.710  21.557  20.636  0.00  0.00    -0.279 OA
ATOM     28  C   UNL     1      45.928  18.638  19.324  0.00  0.00    +0.378 A 
ATOM     29  O   UNL     1      44.672  18.136  19.269  0.00  0.00    -0.625 OA
ENDROOT
BRANCH  17  18
ATOM     18  C   UNL     1      43.688  20.115  20.553  0.00  0.00    -0.044 A 
ATOM     19  C   UNL     1      42.832  20.486  19.515  0.00  0.00    +0.016 A 
ATOM     20  C   UNL     1      41.538  20.009  19.490  0.00  0.00    -0.028 A 
ATOM     21  C   UNL     1      41.084  19.175  20.495  0.00  0.00    -0.002 A 
ATOM     22  C   UNL     1      41.927  18.807  21.530  0.00  0.00    -0.024 A 
ATOM     23  C   UNL     1      43.225  19.272  21.564  0.00  0.00    +0.112 A 
ENDBRANCH  17  18
BRANCH   5   4
ATOM      4  C   UNL     1      46.756  16.660  18.069  0.00  0.00    +0.416 C 
ATOM     30  O   UNL     1      46.431  16.640  16.900  0.00  0.00    -0.493 OA
BRANCH   4   3
ATOM      3  C   UNL     1      46.913  15.369  18.830  0.00  0.00    +0.062 C 
BRANCH   3   2
ATOM      1  C   UNL     1      45.488  13.317  18.809  0.00  0.00    +0.006 C 
ATOM      2  C   UNL     1      45.532  14.804  19.165  0.00  0.00    -0.028 C 
ATOM     31  C   UNL     1      45.259  14.978  20.660  0.00  0.00    +0.007 C 
ENDBRANCH   3   2
ENDBRANCH   4   3
ENDBRANCH   5   4
BRANCH   6   7
ATOM      7  O   UNL     1      49.329  17.804  18.231  0.00  0.00    -0.472 OA
ATOM      8  H   UNL     1      50.357  18.177  18.344  0.00  0.00    +0.402 HD
ENDBRANCH   6   7
BRANCH   9  10
ATOM     10  C   UNL     1      49.928  20.235  19.497  0.00  0.00    +0.120 C 
BRANCH  10  11
ATOM     11  C   UNL     1      50.227  20.981  18.221  0.00  0.00    -0.027 C 
ATOM     12  C   UNL     1      51.301  20.690  17.529  0.00  0.00    -0.160 C 
ATOM     13  C   UNL     1      52.291  19.685  18.060  0.00  0.00    +0.079 C 
ATOM     14  C   UNL     1      51.546  21.360  16.201  0.00  0.00    +0.069 C 
ENDBRANCH  10  11
ENDBRANCH   9  10
TORSDOF 7
ENDMDL
MODEL 2
REMARK VINA RESULT:      -6.2      1.433      4.902
REMARK  Name = ZINC05452752
REMARK  11 active torsions:
REMARK  status: ('A' for Active; 'I' for Inactive)
REMARK    1  A    between atoms: C1_1  and  C2_2
REMARK    2  A    between atoms: C2_2  and  C3_3
REMARK    3  A    between atoms: C2_2  and  C4_4
REMARK    4  A    between atoms: C4_4  and  C5_5
REMARK    5  A    between atoms: C5_5  and  C6_7
REMARK    6  A    between atoms: C7_8  and  O5_30
REMARK    7  A    between atoms: C8_9  and  C21_25
REMARK    8  A    between atoms: C12_14  and  C15_19
REMARK    9  A    between atoms: C21_25  and  C22_26
REMARK   10  A    between atoms: C23_27  and  C24_28
REMARK   11  A    between atoms: C23_27  and  C25_29
REMARK                            x       y       z     vdW  Elec       q    Type
REMARK                         _______ _______ _______ _____ _____    ______ ____
ROOT
ATOM      5  C   UNL     1      45.909  19.154  19.432  0.00  0.00    -0.374 A 
ATOM      6  C   UNL     1      46.945  20.108  19.498  0.00  0.00    +0.314 A 
ATOM      9  C   UNL     1      48.266  19.706  19.506  0.00  0.00    -0.329 A 
ATOM     15  C   UNL     1      48.591  18.356  19.459  0.00  0.00    +0.262 A 
ATOM     16  C   UNL     1      47.567  17.392  19.399  0.00  0.00    -0.319 A 
ATOM     17  C   UNL     1      47.933  15.968  19.350  0.00  0.00    +0.147 A 
ATOM     24  C   UNL     1      49.278  15.644  19.366  0.00  0.00    -0.196 A 
ATOM     25  C   UNL     1      50.234  16.671  19.428  0.00  0.00    +0.516 A 
ATOM     26  O   UNL     1      51.417  16.377  19.442  0.00  0.00    -0.507 OA
ATOM     27  O   UNL     1      49.882  17.965  19.472  0.00  0.00    -0.279 OA
ATOM     28  C   UNL     1      46.225  17.787  19.385  0.00  0.00    +0.378 A 
ATOM     29  O   UNL     1      45.240  16.861  19.326  0.00  0.00    -0.625 OA
ENDROOT
BRANCH  17  18
ATOM     18  C   UNL     1      46.896  14.915  19.287  0.00  0.00    -0.044 A 
ATOM     19  C   UNL     1      46.531  14.364  18.057  0.00  0.00    +0.016 A 
ATOM     20  C   UNL     1      45.567  13.378  18.007  0.00  0.00    -0.028 A 
ATOM     21  C   UNL     1      44.954  12.944  19.168  0.00  0.00    -0.002 A 
ATOM     22  C   UNL     1      45.309  13.490  20.389  0.00  0.00    -0.024 A 
ATOM     23  C   UNL     1      46.275  14.472  20.456  0.00  0.00    +0.112 A 
ENDBRANCH  17  18
BRANCH   5   4
ATOM      4  C   UNL     1      44.511  19.586  19.418  0.00  0.00    +0.416 C 
ATOM     30  O   UNL     1      43.974  19.867  18.366  0.00  0.00    -0.493 OA
BRANCH   4   3
ATOM      3  C   UNL     1      43.740  19.683  20.709  0.00  0.00    +0.062 C 
BRANCH   3   2
ATOM      1  C   UNL     1      42.991  17.692  22.020  0.00  0.00    +0.006 C 
ATOM      2  C   UNL     1      42.719  18.545  20.779  0.00  0.00    -0.028 C 
ATOM     31  C   UNL     1      41.309  19.130  20.862  0.00  0.00    +0.007 C 
ENDBRANCH   3   2
ENDBRANCH   4   3
ENDBRANCH   5   4
BRANCH   6   7
ATOM      7  O   UNL     1      46.643  21.428  19.550  0.00  0.00    -0.472 OA
ATOM      8  H   UNL     1      46.016  21.880  18.767  0.00  0.00    +0.402 HD
ENDBRANCH   6   7
BRANCH   9  10
ATOM     10  C   UNL     1      49.363  20.738  19.570  0.00  0.00    +0.120 C 
BRANCH  10  11
ATOM     11  C   UNL     1      49.841  21.051  18.176  0.00  0.00    -0.027 C 
ATOM     12  C   UNL     1      51.120  21.000  17.895  0.00  0.00    -0.160 C 
ATOM     13  C   UNL     1      52.122  20.732  18.989  0.00  0.00    +0.079 C 
ATOM     14  C   UNL     1      51.590  21.209  16.478  0.00  0.00    +0.069 C 
ENDBRANCH  10  11
ENDBRANCH   9  10
TORSDOF 7
ENDMDL
MODEL 3
REMARK VINA RESULT:      -6.0      1.758      6.112
REMARK  Name = ZINC05452752
REMARK  11 active torsions:
REMARK  status: ('A' for Active; 'I' for Inactive)
REMARK    1  A    between atoms: C1_1  and  C2_2
REMARK    2  A    between atoms: C2_2  and  C3_3
REMARK    3  A    between atoms: C2_2  and  C4_4
REMARK    4  A    between atoms: C4_4  and  C5_5
REMARK    5  A    between atoms: C5_5  and  C6_7
REMARK    6  A    between atoms: C7_8  and  O5_30
REMARK    7  A    between atoms: C8_9  and  C21_25
REMARK    8  A    between atoms: C12_14  and  C15_19
REMARK    9  A    between atoms: C21_25  and  C22_26
REMARK   10  A    between atoms: C23_27  and  C24_28
REMARK   11  A    between atoms: C23_27  and  C25_29
REMARK                            x       y       z     vdW  Elec       q    Type
REMARK                         _______ _______ _______ _____ _____    ______ ____
ROOT
ATOM      5  C   UNL     1      46.725  17.120  20.069  0.00  0.00    -0.374 A 
ATOM      6  C   UNL     1      45.345  17.162  20.356  0.00  0.00    +0.314 A 
ATOM      9  C   UNL     1      44.729  18.363  20.650  0.00  0.00    -0.329 A 
ATOM     15  C   UNL     1      45.463  19.542  20.677  0.00  0.00    +0.262 A 
ATOM     16  C   UNL     1      46.842  19.514  20.397  0.00  0.00    -0.319 A 
ATOM     17  C   UNL     1      47.600  20.775  20.431  0.00  0.00    +0.147 A 
ATOM     24  C   UNL     1      46.913  21.936  20.738  0.00  0.00    -0.196 A 
ATOM     25  C   UNL     1      45.536  21.873  21.003  0.00  0.00    +0.516 A 
ATOM     26  O   UNL     1      44.938  22.900  21.273  0.00  0.00    -0.507 OA
ATOM     27  O   UNL     1      44.860  20.713  20.969  0.00  0.00    -0.279 OA
ATOM     28  C   UNL     1      47.476  18.305  20.093  0.00  0.00    +0.378 A 
ATOM     29  O   UNL     1      48.803  18.277  19.824  0.00  0.00    -0.625 OA
ENDROOT
BRANCH  17  18
ATOM     18  C   UNL     1      49.051  20.800  20.145  0.00  0.00    -0.044 A 
ATOM     19  C   UNL     1      49.973  20.735  21.191  0.00  0.00    +0.016 A 
ATOM     20  C   UNL     1      51.325  20.754  20.917  0.00  0.00    -0.028 A 
ATOM     21  C   UNL     1      51.768  20.850  19.610  0.00  0.00    -0.002 A 
ATOM     22  C   UNL     1      50.859  20.920  18.569  0.00  0.00    -0.024 A 
ATOM     23  C   UNL     1      49.505  20.896  18.828  0.00  0.00    +0.112 A 
ENDBRANCH  17  18
BRANCH   5   4
ATOM      4  C   UNL     1      47.371  15.846  19.752  0.00  0.00    +0.416 C 
ATOM     30  O   UNL     1      47.474  14.989  20.606  0.00  0.00    -0.493 OA
BRANCH   4   3
ATOM      3  C   UNL     1      47.911  15.599  18.367  0.00  0.00    +0.062 C 
BRANCH   3   2
ATOM      1  C   UNL     1      46.610  16.688  16.533  0.00  0.00    +0.006 C 
ATOM      2  C   UNL     1      46.747  15.428  17.390  0.00  0.00    -0.028 C 
ATOM     31  C   UNL     1      47.013  14.224  16.485  0.00  0.00    +0.007 C 
ENDBRANCH   3   2
ENDBRANCH   4   3
ENDBRANCH   5   4
BRANCH   6   7
ATOM      7  O   UNL     1      44.619  16.019  20.340  0.00  0.00    -0.472 OA
ATOM      8  H   UNL     1      44.697  15.329  19.487  0.00  0.00    +0.402 HD
ENDBRANCH   6   7
BRANCH   9  10
ATOM     10  C   UNL     1      43.253  18.393  20.949  0.00  0.00    +0.120 C 
BRANCH  10  11
ATOM     11  C   UNL     1      42.537  19.160  19.867  0.00  0.00    -0.027 C 
ATOM     12  C   UNL     1      41.309  19.576  20.061  0.00  0.00    -0.160 C 
ATOM     13  C   UNL     1      40.576  19.198  21.323  0.00  0.00    +0.079 C 
ATOM     14  C   UNL     1      40.630  20.432  19.023  0.00  0.00    +0.069 C 
ENDBRANCH  10  11
ENDBRANCH   9  10
TORSDOF 7
ENDMDL
MODEL 4
REMARK VINA RESULT:      -5.9      1.417      6.026
REMARK  Name = ZINC05452752
REMARK  11 active torsions:
REMARK  status: ('A' for Active; 'I' for Inactive)
REMARK    1  A    between atoms: C1_1  and  C2_2
REMARK    2  A    between atoms: C2_2  and  C3_3
REMARK    3  A    between atoms: C2_2  and  C4_4
REMARK    4  A    between atoms: C4_4  and  C5_5
REMARK    5  A    between atoms: C5_5  and  C6_7
REMARK    6  A    between atoms: C7_8  and  O5_30
REMARK    7  A    between atoms: C8_9  and  C21_25
REMARK    8  A    between atoms: C12_14  and  C15_19
REMARK    9  A    between atoms: C21_25  and  C22_26
REMARK   10  A    between atoms: C23_27  and  C24_28
REMARK   11  A    between atoms: C23_27  and  C25_29
REMARK                            x       y       z     vdW  Elec       q    Type
REMARK                         _______ _______ _______ _____ _____    ______ ____
ROOT
ATOM      5  C   UNL     1      47.152  17.182  18.901  0.00  0.00    -0.374 A 
ATOM      6  C   UNL     1      45.833  17.181  19.402  0.00  0.00    +0.314 A 
ATOM      9  C   UNL     1      45.359  18.258  20.124  0.00  0.00    -0.329 A 
ATOM     15  C   UNL     1      46.179  19.351  20.377  0.00  0.00    +0.262 A 
ATOM     16  C   UNL     1      47.499  19.363  19.889  0.00  0.00    -0.319 A 
ATOM     17  C   UNL     1      48.350  20.531  20.167  0.00  0.00    +0.147 A 
ATOM     24  C   UNL     1      47.804  21.569  20.902  0.00  0.00    -0.196 A 
ATOM     25  C   UNL     1      46.477  21.474  21.351  0.00  0.00    +0.516 A 
ATOM     26  O   UNL     1      46.005  22.392  21.998  0.00  0.00    -0.507 OA
ATOM     27  O   UNL     1      45.715  20.400  21.088  0.00  0.00    -0.279 OA
ATOM     28  C   UNL     1      47.988  18.281  19.150  0.00  0.00    +0.378 A 
ATOM     29  O   UNL     1      49.258  18.291  18.680  0.00  0.00    -0.625 OA
ENDROOT
BRANCH  17  18
ATOM     18  C   UNL     1      49.744  20.593  19.678  0.00  0.00    -0.044 A 
ATOM     19  C   UNL     1      50.797  20.214  20.511  0.00  0.00    +0.016 A 
ATOM     20  C   UNL     1      52.095  20.271  20.045  0.00  0.00    -0.028 A 
ATOM     21  C   UNL     1      52.355  20.712  18.760  0.00  0.00    -0.002 A 
ATOM     22  C   UNL     1      51.314  21.094  17.931  0.00  0.00    -0.024 A 
ATOM     23  C   UNL     1      50.012  21.037  18.381  0.00  0.00    +0.112 A 
ENDBRANCH  17  18
BRANCH   5   4
ATOM      4  C   UNL     1      47.646  16.041  18.131  0.00  0.00    +0.416 C 
ATOM     30  O   UNL     1      47.340  15.919  16.963  0.00  0.00    -0.493 OA
BRANCH   4   3
ATOM      3  C   UNL     1      48.534  15.016  18.789  0.00  0.00    +0.062 C 
BRANCH   3   2
ATOM      1  C   UNL     1      48.642  12.520  18.766  0.00  0.00    +0.006 C 
ATOM      2  C   UNL     1      47.741  13.729  19.023  0.00  0.00    -0.028 C 
ATOM     31  C   UNL     1      47.241  13.695  20.468  0.00  0.00    +0.007 C 
ENDBRANCH   3   2
ENDBRANCH   4   3
ENDBRANCH   5   4
BRANCH   6   7
ATOM      7  O   UNL     1      45.025  16.119  19.168  0.00  0.00    -0.472 OA
ATOM      8  H   UNL     1      45.265  15.138  19.604  0.00  0.00    +0.402 HD
ENDBRANCH   6   7
BRANCH   9  10
ATOM     10  C   UNL     1      43.946  18.246  20.648  0.00  0.00    +0.120 C 
BRANCH  10  11
ATOM     11  C   UNL     1      43.061  19.039  19.721  0.00  0.00    -0.027 C 
ATOM     12  C   UNL     1      41.842  19.351  20.088  0.00  0.00    -0.160 C 
ATOM     13  C   UNL     1      41.289  18.829  21.389  0.00  0.00    +0.079 C 
ATOM     14  C   UNL     1      40.993  20.233  19.209  0.00  0.00    +0.069 C 
ENDBRANCH  10  11
ENDBRANCH   9  10
TORSDOF 7
ENDMDL
MODEL 5
REMARK VINA RESULT:      -5.7      2.716      8.072
REMARK  Name = ZINC05452752
REMARK  11 active torsions:
REMARK  status: ('A' for Active; 'I' for Inactive)
REMARK    1  A    between atoms: C1_1  and  C2_2
REMARK    2  A    between atoms: C2_2  and  C3_3
REMARK    3  A    between atoms: C2_2  and  C4_4
REMARK    4  A    between atoms: C4_4  and  C5_5
REMARK    5  A    between atoms: C5_5  and  C6_7
REMARK    6  A    between atoms: C7_8  and  O5_30
REMARK    7  A    between atoms: C8_9  and  C21_25
REMARK    8  A    between atoms: C12_14  and  C15_19
REMARK    9  A    between atoms: C21_25  and  C22_26
REMARK   10  A    between atoms: C23_27  and  C24_28
REMARK   11  A    between atoms: C23_27  and  C25_29
REMARK                            x       y       z     vdW  Elec       q    Type
REMARK                         _______ _______ _______ _____ _____    ______ ____
ROOT
ATOM      5  C   UNL     1      47.202  16.731  18.709  0.00  0.00    -0.374 A 
ATOM      6  C   UNL     1      46.702  15.413  18.681  0.00  0.00    +0.314 A 
ATOM      9  C   UNL     1      47.483  14.379  18.204  0.00  0.00    -0.329 A 
ATOM     15  C   UNL     1      48.767  14.626  17.735  0.00  0.00    +0.262 A 
ATOM     16  C   UNL     1      49.278  15.938  17.752  0.00  0.00    -0.319 A 
ATOM     17  C   UNL     1      50.640  16.177  17.251  0.00  0.00    +0.147 A 
ATOM     24  C   UNL     1      51.359  15.090  16.785  0.00  0.00    -0.196 A 
ATOM     25  C   UNL     1      50.772  13.815  16.804  0.00  0.00    +0.516 A 
ATOM     26  O   UNL     1      51.412  12.863  16.392  0.00  0.00    -0.507 OA
ATOM     27  O   UNL     1      49.527  13.615  17.265  0.00  0.00    -0.279 OA
ATOM     28  C   UNL     1      48.498  16.992  18.238  0.00  0.00    +0.378 A 
ATOM     29  O   UNL     1      48.988  18.254  18.255  0.00  0.00    -0.625 OA
ENDROOT
BRANCH  17  18
ATOM     18  C   UNL     1      51.223  17.536  17.246  0.00  0.00    -0.044 A 
ATOM     19  C   UNL     1      51.061  18.365  16.135  0.00  0.00    +0.016 A 
ATOM     20  C   UNL     1      51.603  19.634  16.140  0.00  0.00    -0.028 A 
ATOM     21  C   UNL     1      52.317  20.081  17.237  0.00  0.00    -0.002 A 
ATOM     22  C   UNL     1      52.486  19.262  18.340  0.00  0.00    -0.024 A 
ATOM     23  C   UNL     1      51.944  17.994  18.351  0.00  0.00    +0.112 A 
ENDBRANCH  17  18
BRANCH   5   4
ATOM      4  C   UNL     1      46.372  17.821  19.222  0.00  0.00    +0.416 C 
ATOM     30  O   UNL     1      46.223  17.960  20.418  0.00  0.00    -0.493 OA
BRANCH   4   3
ATOM      3  C   UNL     1      45.701  18.771  18.264  0.00  0.00    +0.062 C 
BRANCH   3   2
ATOM      1  C   UNL     1      45.829  21.235  18.659  0.00  0.00    +0.006 C 
ATOM      2  C   UNL     1      45.104  19.944  19.044  0.00  0.00    -0.028 C 
ATOM     31  C   UNL     1      43.617  20.076  18.708  0.00  0.00    +0.007 C 
ENDBRANCH   3   2
ENDBRANCH   4   3
ENDBRANCH   5   4
BRANCH   6   7
ATOM      7  O   UNL     1      45.449  15.158  19.129  0.00  0.00    -0.472 OA
ATOM      8  H   UNL     1      45.142  15.498  20.130  0.00  0.00    +0.402 HD
ENDBRANCH   6   7
BRANCH   9  10
ATOM     10  C   UNL     1      46.937  12.974  18.186  0.00  0.00    +0.120 C 
BRANCH  10  11
ATOM     11  C   UNL     1      46.523  12.615  16.782  0.00  0.00    -0.027 C 
ATOM     12  C   UNL     1      46.597  11.371  16.375  0.00  0.00    -0.160 C 
ATOM     13  C   UNL     1      47.194  10.319  17.273  0.00  0.00    +0.079 C 
ATOM     14  C   UNL     1      46.085  10.993  15.009  0.00  0.00    +0.069 C 
ENDBRANCH  10  11
ENDBRANCH   9  10
TORSDOF 7
ENDMDL
MODEL 6
REMARK VINA RESULT:      -5.5      1.513      4.857
REMARK  Name = ZINC05452752
REMARK  11 active torsions:
REMARK  status: ('A' for Active; 'I' for Inactive)
REMARK    1  A    between atoms: C1_1  and  C2_2
REMARK    2  A    between atoms: C2_2  and  C3_3
REMARK    3  A    between atoms: C2_2  and  C4_4
REMARK    4  A    between atoms: C4_4  and  C5_5
REMARK    5  A    between atoms: C5_5  and  C6_7
REMARK    6  A    between atoms: C7_8  and  O5_30
REMARK    7  A    between atoms: C8_9  and  C21_25
REMARK    8  A    between atoms: C12_14  and  C15_19
REMARK    9  A    between atoms: C21_25  and  C22_26
REMARK   10  A    between atoms: C23_27  and  C24_28
REMARK   11  A    between atoms: C23_27  and  C25_29
REMARK                            x       y       z     vdW  Elec       q    Type
REMARK                         _______ _______ _______ _____ _____    ______ ____
ROOT
ATOM      5  C   UNL     1      47.483  20.749  20.955  0.00  0.00    -0.374 A 
ATOM      6  C   UNL     1      48.725  20.440  20.363  0.00  0.00    +0.314 A 
ATOM      9  C   UNL     1      48.857  19.330  19.552  0.00  0.00    -0.329 A 
ATOM     15  C   UNL     1      47.770  18.498  19.318  0.00  0.00    +0.262 A 
ATOM     16  C   UNL     1      46.525  18.790  19.906  0.00  0.00    -0.319 A 
ATOM     17  C   UNL     1      45.387  17.896  19.644  0.00  0.00    +0.147 A 
ATOM     24  C   UNL     1      45.599  16.801  18.824  0.00  0.00    -0.196 A 
ATOM     25  C   UNL     1      46.874  16.584  18.279  0.00  0.00    +0.516 A 
ATOM     26  O   UNL     1      47.052  15.617  17.559  0.00  0.00    -0.507 OA
ATOM     27  O   UNL     1      47.902  17.411  18.529  0.00  0.00    -0.279 OA
ATOM     28  C   UNL     1      46.378  19.915  20.724  0.00  0.00    +0.378 A 
ATOM     29  O   UNL     1      45.181  20.198  21.290  0.00  0.00    -0.625 OA
ENDROOT
BRANCH  17  18
ATOM     18  C   UNL     1      44.057  18.158  20.238  0.00  0.00    -0.044 A 
ATOM     19  C   UNL     1      43.158  19.011  19.596  0.00  0.00    +0.016 A 
ATOM     20  C   UNL     1      41.918  19.246  20.153  0.00  0.00    -0.028 A 
ATOM     21  C   UNL     1      41.569  18.649  21.350  0.00  0.00    -0.002 A 
ATOM     22  C   UNL     1      42.458  17.805  21.994  0.00  0.00    -0.024 A 
ATOM     23  C   UNL     1      43.699  17.556  21.446  0.00  0.00    +0.112 A 
ENDBRANCH  17  18
BRANCH   5   4
ATOM      4  C   UNL     1      47.348  21.929  21.808  0.00  0.00    +0.416 C 
ATOM     30  O   UNL     1      48.277  22.283  22.505  0.00  0.00    -0.493 OA
BRANCH   4   3
ATOM      3  C   UNL     1      46.056  22.705  21.821  0.00  0.00    +0.062 C 
BRANCH   3   2
ATOM      1  C   UNL     1      44.675  23.320  19.832  0.00  0.00    +0.006 C 
ATOM      2  C   UNL     1      45.983  23.594  20.578  0.00  0.00    -0.028 C 
ATOM     31  C   UNL     1      46.032  25.064  20.998  0.00  0.00    +0.007 C 
ENDBRANCH   3   2
ENDBRANCH   4   3
ENDBRANCH   5   4
BRANCH   6   7
ATOM      7  O   UNL     1      49.796  21.239  20.588  0.00  0.00    -0.472 OA
ATOM      8  H   UNL     1      49.783  22.286  20.249  0.00  0.00    +0.402 HD
ENDBRANCH   6   7
BRANCH   9  10
ATOM     10  C   UNL     1      50.189  19.016  18.922  0.00  0.00    +0.120 C 
BRANCH  10  11
ATOM     11  C   UNL     1      50.361  19.840  17.672  0.00  0.00    -0.027 C 
ATOM     12  C   UNL     1      51.497  20.450  17.440  0.00  0.00    -0.160 C 
ATOM     13  C   UNL     1      52.596  20.414  18.471  0.00  0.00    +0.079 C 
ATOM     14  C   UNL     1      51.706  21.187  16.142  0.00  0.00    +0.069 C 
ENDBRANCH  10  11
ENDBRANCH   9  10
TORSDOF 7
ENDMDL
MODEL 7
REMARK VINA RESULT:      -5.5      3.030      6.534
REMARK  Name = ZINC05452752
REMARK  11 active torsions:
REMARK  status: ('A' for Active; 'I' for Inactive)
REMARK    1  A    between atoms: C1_1  and  C2_2
REMARK    2  A    between atoms: C2_2  and  C3_3
REMARK    3  A    between atoms: C2_2  and  C4_4
REMARK    4  A    between atoms: C4_4  and  C5_5
REMARK    5  A    between atoms: C5_5  and  C6_7
REMARK    6  A    between atoms: C7_8  and  O5_30
REMARK    7  A    between atoms: C8_9  and  C21_25
REMARK    8  A    between atoms: C12_14  and  C15_19
REMARK    9  A    between atoms: C21_25  and  C22_26
REMARK   10  A    between atoms: C23_27  and  C24_28
REMARK   11  A    between atoms: C23_27  and  C25_29
REMARK                            x       y       z     vdW  Elec       q    Type
REMARK                         _______ _______ _______ _____ _____    ______ ____
ROOT
ATOM      5  C   UNL     1      50.216  17.066  17.665  0.00  0.00    -0.374 A 
ATOM      6  C   UNL     1      50.494  15.742  17.266  0.00  0.00    +0.314 A 
ATOM      9  C   UNL     1      49.527  14.762  17.371  0.00  0.00    -0.329 A 
ATOM     15  C   UNL     1      48.271  15.066  17.880  0.00  0.00    +0.262 A 
ATOM     16  C   UNL     1      47.980  16.382  18.288  0.00  0.00    -0.319 A 
ATOM     17  C   UNL     1      46.644  16.683  18.824  0.00  0.00    +0.147 A 
ATOM     24  C   UNL     1      45.730  15.647  18.902  0.00  0.00    -0.196 A 
ATOM     25  C   UNL     1      46.103  14.363  18.473  0.00  0.00    +0.516 A 
ATOM     26  O   UNL     1      45.292  13.456  18.546  0.00  0.00    -0.507 OA
ATOM     27  O   UNL     1      47.328  14.107  17.986  0.00  0.00    -0.279 OA
ATOM     28  C   UNL     1      48.951  17.384  18.181  0.00  0.00    +0.378 A 
ATOM     29  O   UNL     1      48.673  18.650  18.572  0.00  0.00    -0.625 OA
ENDROOT
BRANCH  17  18
ATOM     18  C   UNL     1      46.288  18.049  19.266  0.00  0.00    -0.044 A 
ATOM     19  C   UNL     1      46.485  18.429  20.594  0.00  0.00    +0.016 A 
ATOM     20  C   UNL     1      46.156  19.707  20.998  0.00  0.00    -0.028 A 
ATOM     21  C   UNL     1      45.621  20.606  20.093  0.00  0.00    -0.002 A 
ATOM     22  C   UNL     1      45.419  20.233  18.776  0.00  0.00    -0.024 A 
ATOM     23  C   UNL     1      45.749  18.961  18.357  0.00  0.00    +0.112 A 
ENDBRANCH  17  18
BRANCH   5   4
ATOM      4  C   UNL     1      51.244  18.100  17.546  0.00  0.00    +0.416 C 
ATOM     30  O   UNL     1      52.168  18.131  18.332  0.00  0.00    -0.493 OA
BRANCH   4   3
ATOM      3  C   UNL     1      51.153  19.128  16.447  0.00  0.00    +0.062 C 
BRANCH   3   2
ATOM      1  C   UNL     1      51.812  21.445  15.784  0.00  0.00    +0.006 C 
ATOM      2  C   UNL     1      51.708  20.462  16.951  0.00  0.00    -0.028 C 
ATOM     31  C   UNL     1      50.772  21.033  18.017  0.00  0.00    +0.007 C 
ENDBRANCH   3   2
ENDBRANCH   4   3
ENDBRANCH   5   4
BRANCH   6   7
ATOM      7  O   UNL     1      51.717  15.429  16.773  0.00  0.00    -0.472 OA
ATOM      8  H   UNL     1      51.806  14.913  15.806  0.00  0.00    +0.402 HD
ENDBRANCH   6   7
BRANCH   9  10
ATOM     10  C   UNL     1      49.836  13.353  16.936  0.00  0.00    +0.120 C 
BRANCH  10  11
ATOM     11  C   UNL     1      49.609  13.225  15.451  0.00  0.00    -0.027 C 
ATOM     12  C   UNL     1      50.548  12.725  14.685  0.00  0.00    -0.160 C 
ATOM     13  C   UNL     1      51.892  12.376  15.271  0.00  0.00    +0.079 C 
ATOM     14  C   UNL     1      50.283  12.499  13.219  0.00  0.00    +0.069 C 
ENDBRANCH  10  11
ENDBRANCH   9  10
TORSDOF 7
ENDMDL
MODEL 8
REMARK VINA RESULT:      -5.4      1.980      5.723
REMARK  Name = ZINC05452752
REMARK  11 active torsions:
REMARK  status: ('A' for Active; 'I' for Inactive)
REMARK    1  A    between atoms: C1_1  and  C2_2
REMARK    2  A    between atoms: C2_2  and  C3_3
REMARK    3  A    between atoms: C2_2  and  C4_4
REMARK    4  A    between atoms: C4_4  and  C5_5
REMARK    5  A    between atoms: C5_5  and  C6_7
REMARK    6  A    between atoms: C7_8  and  O5_30
REMARK    7  A    between atoms: C8_9  and  C21_25
REMARK    8  A    between atoms: C12_14  and  C15_19
REMARK    9  A    between atoms: C21_25  and  C22_26
REMARK   10  A    between atoms: C23_27  and  C24_28
REMARK   11  A    between atoms: C23_27  and  C25_29
REMARK                            x       y       z     vdW  Elec       q    Type
REMARK                         _______ _______ _______ _____ _____    ______ ____
ROOT
ATOM      5  C   UNL     1      47.862  19.340  20.640  0.00  0.00    -0.374 A 
ATOM      6  C   UNL     1      47.373  20.630  20.934  0.00  0.00    +0.314 A 
ATOM      9  C   UNL     1      46.067  20.805  21.347  0.00  0.00    -0.329 A 
ATOM     15  C   UNL     1      45.216  19.714  21.469  0.00  0.00    +0.262 A 
ATOM     16  C   UNL     1      45.688  18.421  21.175  0.00  0.00    -0.319 A 
ATOM     17  C   UNL     1      44.770  17.280  21.311  0.00  0.00    +0.147 A 
ATOM     24  C   UNL     1      43.476  17.536  21.727  0.00  0.00    -0.196 A 
ATOM     25  C   UNL     1      43.088  18.857  22.000  0.00  0.00    +0.516 A 
ATOM     26  O   UNL     1      41.945  19.075  22.365  0.00  0.00    -0.507 OA
ATOM     27  O   UNL     1      43.939  19.888  21.870  0.00  0.00    -0.279 OA
ATOM     28  C   UNL     1      47.011  18.231  20.760  0.00  0.00    +0.378 A 
ATOM     29  O   UNL     1      47.467  16.988  20.476  0.00  0.00    -0.625 OA
ENDROOT
BRANCH  17  18
ATOM     18  C   UNL     1      45.217  15.901  21.013  0.00  0.00    -0.044 A 
ATOM     19  C   UNL     1      45.695  15.083  22.037  0.00  0.00    +0.016 A 
ATOM     20  C   UNL     1      46.105  13.796  21.752  0.00  0.00    -0.028 A 
ATOM     21  C   UNL     1      46.053  13.320  20.455  0.00  0.00    -0.002 A 
ATOM     22  C   UNL     1      45.583  14.129  19.434  0.00  0.00    -0.024 A 
ATOM     23  C   UNL     1      45.165  15.415  19.706  0.00  0.00    +0.112 A 
ENDBRANCH  17  18
BRANCH   5   4
ATOM      4  C   UNL     1      49.248  19.160  20.208  0.00  0.00    +0.416 C 
ATOM     30  O   UNL     1      50.140  19.126  21.030  0.00  0.00    -0.493 OA
BRANCH   4   3
ATOM      3  C   UNL     1      49.567  19.018  18.742  0.00  0.00    +0.062 C 
BRANCH   3   2
ATOM      1  C   UNL     1      51.610  18.871  17.310  0.00  0.00    +0.006 C 
ATOM      2  C   UNL     1      50.941  19.629  18.459  0.00  0.00    -0.028 C 
ATOM     31  C   UNL     1      50.775  21.099  18.071  0.00  0.00    +0.007 C 
ENDBRANCH   3   2
ENDBRANCH   4   3
ENDBRANCH   5   4
BRANCH   6   7
ATOM      7  O   UNL     1      48.190  21.703  20.813  0.00  0.00    -0.472 OA
ATOM      8  H   UNL     1      49.068  21.656  20.151  0.00  0.00    +0.402 HD
ENDBRANCH   6   7
BRANCH   9  10
ATOM     10  C   UNL     1      45.560  22.188  21.663  0.00  0.00    +0.120 C 
BRANCH  10  11
ATOM     11  C   UNL     1      44.869  22.759  20.451  0.00  0.00    -0.027 C 
ATOM     12  C   UNL     1      45.092  24.000  20.093  0.00  0.00    -0.160 C 
ATOM     13  C   UNL     1      45.956  24.888  20.951  0.00  0.00    +0.079 C 
ATOM     14  C   UNL     1      44.485  24.539  18.823  0.00  0.00    +0.069 C 
ENDBRANCH  10  11
ENDBRANCH   9  10
TORSDOF 7
ENDMDL
MODEL 9
REMARK VINA RESULT:      -5.4      2.851      6.160
REMARK  Name = ZINC05452752
REMARK  11 active torsions:
REMARK  status: ('A' for Active; 'I' for Inactive)
REMARK    1  A    between atoms: C1_1  and  C2_2
REMARK    2  A    between atoms: C2_2  and  C3_3
REMARK    3  A    between atoms: C2_2  and  C4_4
REMARK    4  A    between atoms: C4_4  and  C5_5
REMARK    5  A    between atoms: C5_5  and  C6_7
REMARK    6  A    between atoms: C7_8  and  O5_30
REMARK    7  A    between atoms: C8_9  and  C21_25
REMARK    8  A    between atoms: C12_14  and  C15_19
REMARK    9  A    between atoms: C21_25  and  C22_26
REMARK   10  A    between atoms: C23_27  and  C24_28
REMARK   11  A    between atoms: C23_27  and  C25_29
REMARK                            x       y       z     vdW  Elec       q    Type
REMARK                         _______ _______ _______ _____ _____    ______ ____
ROOT
ATOM      5  C   UNL     1      50.633  19.100  17.771  0.00  0.00    -0.374 A 
ATOM      6  C   UNL     1      51.040  17.827  17.319  0.00  0.00    +0.314 A 
ATOM      9  C   UNL     1      50.185  16.746  17.412  0.00  0.00    -0.329 A 
ATOM     15  C   UNL     1      48.918  16.897  17.962  0.00  0.00    +0.262 A 
ATOM     16  C   UNL     1      48.500  18.160  18.422  0.00  0.00    -0.319 A 
ATOM     17  C   UNL     1      47.155  18.297  19.000  0.00  0.00    +0.147 A 
ATOM     24  C   UNL     1      46.359  17.167  19.063  0.00  0.00    -0.196 A 
ATOM     25  C   UNL     1      46.855  15.946  18.581  0.00  0.00    +0.516 A 
ATOM     26  O   UNL     1      46.148  14.955  18.640  0.00  0.00    -0.507 OA
ATOM     27  O   UNL     1      48.086  15.838  18.056  0.00  0.00    -0.279 OA
ATOM     28  C   UNL     1      49.355  19.263  18.328  0.00  0.00    +0.378 A 
ATOM     29  O   UNL     1      48.955  20.479  18.770  0.00  0.00    -0.625 OA
ENDROOT
BRANCH  17  18
ATOM     18  C   UNL     1      46.668  19.602  19.499  0.00  0.00    -0.044 A 
ATOM     19  C   UNL     1      46.896  19.976  20.824  0.00  0.00    +0.016 A 
ATOM     20  C   UNL     1      46.443  21.197  21.280  0.00  0.00    -0.028 A 
ATOM     21  C   UNL     1      45.754  22.044  20.432  0.00  0.00    -0.002 A 
ATOM     22  C   UNL     1      45.521  21.677  19.118  0.00  0.00    -0.024 A 
ATOM     23  C   UNL     1      45.973  20.462  18.647  0.00  0.00    +0.112 A 
ENDBRANCH  17  18
BRANCH   5   4
ATOM      4  C   UNL     1      51.540  20.242  17.664  0.00  0.00    +0.416 C 
ATOM     30  O   UNL     1      51.410  21.038  16.756  0.00  0.00    -0.493 OA
BRANCH   4   3
ATOM      3  C   UNL     1      52.638  20.430  18.680  0.00  0.00    +0.062 C 
BRANCH   3   2
ATOM      1  C   UNL     1      52.085  19.981  21.074  0.00  0.00    +0.006 C 
ATOM      2  C   UNL     1      52.050  21.028  19.959  0.00  0.00    -0.028 C 
ATOM     31  C   UNL     1      52.875  22.246  20.378  0.00  0.00    +0.007 C 
ENDBRANCH   3   2
ENDBRANCH   4   3
ENDBRANCH   5   4
BRANCH   6   7
ATOM      7  O   UNL     1      52.275  17.664  16.787  0.00  0.00    -0.472 OA
ATOM      8  H   UNL     1      52.619  18.330  15.982  0.00  0.00    +0.402 HD
ENDBRANCH   6   7
BRANCH   9  10
ATOM     10  C   UNL     1      50.631  15.394  16.920  0.00  0.00    +0.120 C 
BRANCH  10  11
ATOM     11  C   UNL     1      51.364  14.674  18.024  0.00  0.00    -0.027 C 
ATOM     12  C   UNL     1      51.795  13.451  17.835  0.00  0.00    -0.160 C 
ATOM     13  C   UNL     1      51.468  12.726  16.555  0.00  0.00    +0.079 C 
ATOM     14  C   UNL     1      52.617  12.770  18.898  0.00  0.00    +0.069 C 
ENDBRANCH  10  11
ENDBRANCH   9  10
TORSDOF 7
ENDMDL
