MODEL 1
REMARK VINA RESULT:      -7.4      0.000      0.000
REMARK  Name = ZINC95486164
REMARK  10 active torsions:
REMARK  status: ('A' for Active; 'I' for Inactive)
REMARK    1  A    between atoms: C1_1  and  C2_2
REMARK    2  A    between atoms: C4_4  and  O4_30
REMARK    3  A    between atoms: C7_7  and  C8_8
REMARK    4  A    between atoms: C9_9  and  O2_24
REMARK    5  A    between atoms: C11_11  and  O1_23
REMARK    6  A    between atoms: C15_15  and  C19_22
REMARK    7  A    between atoms: N1_17  and  C18_21
REMARK    8  A    between atoms: C16_18  and  C17_20
REMARK    9  A    between atoms: C23_28  and  O3_29
REMARK   10  A    between atoms: O4_30  and  C24_31
REMARK                            x       y       z     vdW  Elec       q    Type
REMARK                         _______ _______ _______ _____ _____    ______ ____
ROOT
ATOM     16  C   UNL     1      44.011  18.407  20.636  0.00  0.00    -0.045 A 
ATOM     17  C   UNL     1      43.367  17.901  21.769  0.00  0.00    +0.168 A 
ATOM     20  C   UNL     1      43.567  16.582  22.137  0.00  0.00    -0.016 A 
ATOM     21  C   UNL     1      44.401  15.772  21.383  0.00  0.00    +0.158 A 
ATOM     24  C   UNL     1      45.045  16.273  20.254  0.00  0.00    -0.163 A 
ATOM     25  C   UNL     1      45.945  15.352  19.473  0.00  0.00    +0.239 C 
ATOM     26  C   UNL     1      45.291  13.973  19.373  0.00  0.00    +0.092 C 
ATOM     27  N   UNL     1      46.160  15.872  18.115  0.00  0.00    -0.383 N 
ATOM     28  H   UNL     1      45.292  15.865  17.601  0.00  0.00    +0.423 HD
ATOM     29  C   UNL     1      47.150  15.036  17.423  0.00  0.00    +0.324 C 
ATOM     30  C   UNL     1      46.662  17.251  18.214  0.00  0.00    +0.169 C 
ATOM     31  C   UNL     1      47.188  17.710  16.852  0.00  0.00    +0.094 C 
ATOM     32  C   UNL     1      45.512  18.158  18.653  0.00  0.00    +0.133 C 
ATOM     33  C   UNL     1      44.846  17.582  19.876  0.00  0.00    -0.045 A 
ENDROOT
BRANCH  16  15
ATOM      1  C   UNL     1      45.961  20.391  21.360  0.00  0.00    +0.093 C 
ATOM      2  C   UNL     1      44.734  20.782  20.577  0.00  0.00    -0.009 A 
ATOM      3  C   UNL     1      44.553  22.108  20.202  0.00  0.00    -0.102 A 
ATOM      4  C   UNL     1      43.442  22.496  19.486  0.00  0.00    +0.181 A 
ATOM      7  C   UNL     1      42.472  21.540  19.126  0.00  0.00    -0.106 A 
ATOM      8  C   UNL     1      42.649  20.188  19.504  0.00  0.00    +0.027 A 
ATOM      9  C   UNL     1      41.683  19.237  19.144  0.00  0.00    -0.014 A 
ATOM     10  C   UNL     1      40.584  19.618  18.436  0.00  0.00    +0.059 A 
ATOM     11  C   UNL     1      40.399  20.944  18.058  0.00  0.00    -0.027 A 
ATOM     12  C   UNL     1      41.325  21.907  18.394  0.00  0.00    +0.154 A 
ATOM     15  C   UNL     1      43.804  19.817  20.235  0.00  0.00    -0.107 A 
BRANCH   4   5
ATOM      5  O   UNL     1      43.282  23.796  19.129  0.00  0.00    -0.291 OA
ATOM      6  C   UNL     1      44.458  24.512  18.743  0.00  0.00    +0.248 C 
ENDBRANCH   4   5
BRANCH  12  13
ATOM     13  O   UNL     1      41.136  23.199  18.020  0.00  0.00    -0.480 OA
ATOM     14  H   UNL     1      41.491  23.413  17.147  0.00  0.00    +0.397 HD
ENDBRANCH  12  13
ENDBRANCH  16  15
BRANCH  17  18
ATOM     18  O   UNL     1      42.553  18.700  22.505  0.00  0.00    -0.480 OA
ATOM     19  H   UNL     1      42.877  19.605  22.607  0.00  0.00    +0.401 HD
ENDBRANCH  17  18
BRANCH  21  22
ATOM     22  O   UNL     1      44.594  14.478  21.750  0.00  0.00    -0.489 OA
ATOM     23  H   UNL     1      43.833  13.905  21.584  0.00  0.00    +0.401 HD
ENDBRANCH  21  22
TORSDOF 5
ENDMDL
MODEL 2
REMARK VINA RESULT:      -6.7      2.095      6.857
REMARK  Name = ZINC95486164
REMARK  10 active torsions:
REMARK  status: ('A' for Active; 'I' for Inactive)
REMARK    1  A    between atoms: C1_1  and  C2_2
REMARK    2  A    between atoms: C4_4  and  O4_30
REMARK    3  A    between atoms: C7_7  and  C8_8
REMARK    4  A    between atoms: C9_9  and  O2_24
REMARK    5  A    between atoms: C11_11  and  O1_23
REMARK    6  A    between atoms: C15_15  and  C19_22
REMARK    7  A    between atoms: N1_17  and  C18_21
REMARK    8  A    between atoms: C16_18  and  C17_20
REMARK    9  A    between atoms: C23_28  and  O3_29
REMARK   10  A    between atoms: O4_30  and  C24_31
REMARK                            x       y       z     vdW  Elec       q    Type
REMARK                         _______ _______ _______ _____ _____    ______ ____
ROOT
ATOM     16  C   UNL     1      44.924  19.670  20.449  0.00  0.00    -0.045 A 
ATOM     17  C   UNL     1      45.960  20.368  21.079  0.00  0.00    +0.168 A 
ATOM     20  C   UNL     1      45.887  21.745  21.190  0.00  0.00    -0.016 A 
ATOM     21  C   UNL     1      44.793  22.423  20.678  0.00  0.00    +0.158 A 
ATOM     24  C   UNL     1      43.759  21.732  20.051  0.00  0.00    -0.163 A 
ATOM     25  C   UNL     1      42.590  22.517  19.517  0.00  0.00    +0.239 C 
ATOM     26  C   UNL     1      43.103  23.797  18.854  0.00  0.00    +0.092 C 
ATOM     27  N   UNL     1      41.854  21.730  18.518  0.00  0.00    -0.383 N 
ATOM     28  H   UNL     1      42.435  21.569  17.710  0.00  0.00    +0.423 HD
ATOM     29  C   UNL     1      40.642  22.457  18.119  0.00  0.00    +0.324 C 
ATOM     30  C   UNL     1      41.480  20.440  19.119  0.00  0.00    +0.169 C 
ATOM     31  C   UNL     1      40.458  19.731  18.228  0.00  0.00    +0.094 C 
ATOM     32  C   UNL     1      42.737  19.578  19.245  0.00  0.00    +0.133 C 
ATOM     33  C   UNL     1      43.827  20.362  19.929  0.00  0.00    -0.045 A 
ENDROOT
BRANCH  16  15
ATOM      1  C   UNL     1      43.781  18.019  22.505  0.00  0.00    +0.093 C 
ATOM      2  C   UNL     1      44.447  17.389  21.309  0.00  0.00    -0.009 A 
ATOM      3  C   UNL     1      44.501  16.005  21.202  0.00  0.00    -0.102 A 
ATOM      4  C   UNL     1      45.103  15.401  20.120  0.00  0.00    +0.181 A 
ATOM      7  C   UNL     1      45.674  16.192  19.104  0.00  0.00    -0.106 A 
ATOM      8  C   UNL     1      45.624  17.603  19.206  0.00  0.00    +0.027 A 
ATOM      9  C   UNL     1      46.192  18.390  18.193  0.00  0.00    -0.014 A 
ATOM     10  C   UNL     1      46.787  17.795  17.122  0.00  0.00    +0.059 A 
ATOM     11  C   UNL     1      46.843  16.410  17.011  0.00  0.00    -0.027 A 
ATOM     12  C   UNL     1      46.296  15.603  17.986  0.00  0.00    +0.154 A 
ATOM     15  C   UNL     1      44.994  18.196  20.326  0.00  0.00    -0.107 A 
BRANCH   4   5
ATOM      5  O   UNL     1      45.147  14.046  20.033  0.00  0.00    -0.291 OA
ATOM      6  C   UNL     1      45.392  13.327  21.244  0.00  0.00    +0.248 C 
ENDBRANCH   4   5
BRANCH  12  13
ATOM     13  O   UNL     1      46.356  14.251  17.868  0.00  0.00    -0.480 OA
ATOM     14  H   UNL     1      45.921  13.774  18.588  0.00  0.00    +0.397 HD
ENDBRANCH  12  13
ENDBRANCH  16  15
BRANCH  17  18
ATOM     18  O   UNL     1      47.029  19.697  21.580  0.00  0.00    -0.480 OA
ATOM     19  H   UNL     1      47.806  19.709  21.005  0.00  0.00    +0.401 HD
ENDBRANCH  17  18
BRANCH  21  22
ATOM     22  O   UNL     1      44.727  23.776  20.791  0.00  0.00    -0.489 OA
ATOM     23  H   UNL     1      44.242  24.207  20.074  0.00  0.00    +0.401 HD
ENDBRANCH  21  22
TORSDOF 5
ENDMDL
MODEL 3
REMARK VINA RESULT:      -6.2      3.966      6.355
REMARK  Name = ZINC95486164
REMARK  10 active torsions:
REMARK  status: ('A' for Active; 'I' for Inactive)
REMARK    1  A    between atoms: C1_1  and  C2_2
REMARK    2  A    between atoms: C4_4  and  O4_30
REMARK    3  A    between atoms: C7_7  and  C8_8
REMARK    4  A    between atoms: C9_9  and  O2_24
REMARK    5  A    between atoms: C11_11  and  O1_23
REMARK    6  A    between atoms: C15_15  and  C19_22
REMARK    7  A    between atoms: N1_17  and  C18_21
REMARK    8  A    between atoms: C16_18  and  C17_20
REMARK    9  A    between atoms: C23_28  and  O3_29
REMARK   10  A    between atoms: O4_30  and  C24_31
REMARK                            x       y       z     vdW  Elec       q    Type
REMARK                         _______ _______ _______ _____ _____    ______ ____
ROOT
ATOM     16  C   UNL     1      48.402  18.300  18.953  0.00  0.00    -0.045 A 
ATOM     17  C   UNL     1      48.399  17.560  17.766  0.00  0.00    +0.168 A 
ATOM     20  C   UNL     1      49.494  17.618  16.922  0.00  0.00    -0.016 A 
ATOM     21  C   UNL     1      50.584  18.405  17.256  0.00  0.00    +0.158 A 
ATOM     24  C   UNL     1      50.591  19.143  18.438  0.00  0.00    -0.163 A 
ATOM     25  C   UNL     1      51.803  19.978  18.755  0.00  0.00    +0.239 C 
ATOM     26  C   UNL     1      52.291  20.665  17.479  0.00  0.00    +0.092 C 
ATOM     27  N   UNL     1      51.472  21.009  19.749  0.00  0.00    -0.383 N 
ATOM     28  H   UNL     1      50.814  21.666  19.358  0.00  0.00    +0.423 HD
ATOM     29  C   UNL     1      52.697  21.715  20.147  0.00  0.00    +0.324 C 
ATOM     30  C   UNL     1      50.876  20.355  20.924  0.00  0.00    +0.169 C 
ATOM     31  C   UNL     1      50.807  21.345  22.088  0.00  0.00    +0.094 C 
ATOM     32  C   UNL     1      49.465  19.891  20.560  0.00  0.00    +0.133 C 
ATOM     33  C   UNL     1      49.503  19.097  19.280  0.00  0.00    -0.045 A 
ENDROOT
BRANCH  16  15
ATOM      1  C   UNL     1      48.196  16.168  20.869  0.00  0.00    +0.093 C 
ATOM      2  C   UNL     1      47.123  17.223  20.790  0.00  0.00    -0.009 A 
ATOM      3  C   UNL     1      46.036  17.163  21.652  0.00  0.00    -0.102 A 
ATOM      4  C   UNL     1      45.039  18.113  21.603  0.00  0.00    +0.181 A 
ATOM      7  C   UNL     1      45.118  19.163  20.666  0.00  0.00    -0.106 A 
ATOM      8  C   UNL     1      46.223  19.231  19.785  0.00  0.00    +0.027 A 
ATOM      9  C   UNL     1      46.301  20.277  18.854  0.00  0.00    -0.014 A 
ATOM     10  C   UNL     1      45.318  21.219  18.804  0.00  0.00    +0.059 A 
ATOM     11  C   UNL     1      44.227  21.162  19.665  0.00  0.00    -0.027 A 
ATOM     12  C   UNL     1      44.115  20.149  20.593  0.00  0.00    +0.154 A 
ATOM     15  C   UNL     1      47.235  18.244  19.862  0.00  0.00    -0.107 A 
BRANCH   4   5
ATOM      5  O   UNL     1      43.983  18.037  22.453  0.00  0.00    -0.291 OA
ATOM      6  C   UNL     1      43.270  16.799  22.492  0.00  0.00    +0.248 C 
ENDBRANCH   4   5
BRANCH  12  13
ATOM     13  O   UNL     1      43.046  20.103  21.430  0.00  0.00    -0.480 OA
ATOM     14  H   UNL     1      42.194  20.216  20.986  0.00  0.00    +0.397 HD
ENDBRANCH  12  13
ENDBRANCH  16  15
BRANCH  17  18
ATOM     18  O   UNL     1      47.329  16.789  17.445  0.00  0.00    -0.480 OA
ATOM     19  H   UNL     1      46.492  17.103  17.816  0.00  0.00    +0.401 HD
ENDBRANCH  17  18
BRANCH  21  22
ATOM     22  O   UNL     1      51.657  18.457  16.423  0.00  0.00    -0.489 OA
ATOM     23  H   UNL     1      52.021  19.346  16.307  0.00  0.00    +0.401 HD
ENDBRANCH  21  22
TORSDOF 5
ENDMDL
MODEL 4
REMARK VINA RESULT:      -6.1      2.360      6.940
REMARK  Name = ZINC95486164
REMARK  10 active torsions:
REMARK  status: ('A' for Active; 'I' for Inactive)
REMARK    1  A    between atoms: C1_1  and  C2_2
REMARK    2  A    between atoms: C4_4  and  O4_30
REMARK    3  A    between atoms: C7_7  and  C8_8
REMARK    4  A    between atoms: C9_9  and  O2_24
REMARK    5  A    between atoms: C11_11  and  O1_23
REMARK    6  A    between atoms: C15_15  and  C19_22
REMARK    7  A    between atoms: N1_17  and  C18_21
REMARK    8  A    between atoms: C16_18  and  C17_20
REMARK    9  A    between atoms: C23_28  and  O3_29
REMARK   10  A    between atoms: O4_30  and  C24_31
REMARK                            x       y       z     vdW  Elec       q    Type
REMARK                         _______ _______ _______ _____ _____    ______ ____
ROOT
ATOM     16  C   UNL     1      45.990  19.187  19.918  0.00  0.00    -0.045 A 
ATOM     17  C   UNL     1      47.130  19.694  20.548  0.00  0.00    +0.168 A 
ATOM     20  C   UNL     1      47.157  21.017  20.952  0.00  0.00    -0.016 A 
ATOM     21  C   UNL     1      46.057  21.830  20.731  0.00  0.00    +0.158 A 
ATOM     24  C   UNL     1      44.919  21.328  20.104  0.00  0.00    -0.163 A 
ATOM     25  C   UNL     1      43.749  22.253  19.892  0.00  0.00    +0.239 C 
ATOM     26  C   UNL     1      44.264  23.625  19.453  0.00  0.00    +0.092 C 
ATOM     27  N   UNL     1      42.858  21.726  18.848  0.00  0.00    -0.383 N 
ATOM     28  H   UNL     1      43.335  21.721  17.959  0.00  0.00    +0.423 HD
ATOM     29  C   UNL     1      41.658  22.567  18.761  0.00  0.00    +0.324 C 
ATOM     30  C   UNL     1      42.474  20.353  19.208  0.00  0.00    +0.169 C 
ATOM     31  C   UNL     1      41.316  19.891  18.321  0.00  0.00    +0.094 C 
ATOM     32  C   UNL     1      43.680  19.438  18.998  0.00  0.00    +0.133 C 
ATOM     33  C   UNL     1      44.886  20.015  19.692  0.00  0.00    -0.045 A 
ENDROOT
BRANCH  16  15
ATOM      1  C   UNL     1      46.834  18.496  17.259  0.00  0.00    +0.093 C 
ATOM      2  C   UNL     1      46.356  17.425  18.206  0.00  0.00    -0.009 A 
ATOM      3  C   UNL     1      46.331  16.100  17.788  0.00  0.00    -0.102 A 
ATOM      4  C   UNL     1      45.899  15.100  18.631  0.00  0.00    +0.181 A 
ATOM      7  C   UNL     1      45.476  15.418  19.937  0.00  0.00    -0.106 A 
ATOM      8  C   UNL     1      45.499  16.766  20.369  0.00  0.00    +0.027 A 
ATOM      9  C   UNL     1      45.077  17.081  21.669  0.00  0.00    -0.014 A 
ATOM     10  C   UNL     1      44.651  16.094  22.505  0.00  0.00    +0.059 A 
ATOM     11  C   UNL     1      44.624  14.766  22.091  0.00  0.00    -0.027 A 
ATOM     12  C   UNL     1      45.030  14.417  20.821  0.00  0.00    +0.154 A 
ATOM     15  C   UNL     1      45.953  17.772  19.483  0.00  0.00    -0.107 A 
BRANCH   4   5
ATOM      5  O   UNL     1      45.881  13.811  18.205  0.00  0.00    -0.291 OA
ATOM      6  C   UNL     1      46.641  13.504  17.033  0.00  0.00    +0.248 C 
ENDBRANCH   4   5
BRANCH  12  13
ATOM     13  O   UNL     1      45.000  13.117  20.426  0.00  0.00    -0.480 OA
ATOM     14  H   UNL     1      44.627  12.983  19.544  0.00  0.00    +0.397 HD
ENDBRANCH  12  13
ENDBRANCH  16  15
BRANCH  17  18
ATOM     18  O   UNL     1      48.205  18.891  20.765  0.00  0.00    -0.480 OA
ATOM     19  H   UNL     1      47.986  17.952  20.839  0.00  0.00    +0.401 HD
ENDBRANCH  17  18
BRANCH  21  22
ATOM     22  O   UNL     1      46.089  23.128  21.131  0.00  0.00    -0.489 OA
ATOM     23  H   UNL     1      46.811  23.641  20.742  0.00  0.00    +0.401 HD
ENDBRANCH  21  22
TORSDOF 5
ENDMDL
MODEL 5
REMARK VINA RESULT:      -6.1      2.740      4.515
REMARK  Name = ZINC95486164
REMARK  10 active torsions:
REMARK  status: ('A' for Active; 'I' for Inactive)
REMARK    1  A    between atoms: C1_1  and  C2_2
REMARK    2  A    between atoms: C4_4  and  O4_30
REMARK    3  A    between atoms: C7_7  and  C8_8
REMARK    4  A    between atoms: C9_9  and  O2_24
REMARK    5  A    between atoms: C11_11  and  O1_23
REMARK    6  A    between atoms: C15_15  and  C19_22
REMARK    7  A    between atoms: N1_17  and  C18_21
REMARK    8  A    between atoms: C16_18  and  C17_20
REMARK    9  A    between atoms: C23_28  and  O3_29
REMARK   10  A    between atoms: O4_30  and  C24_31
REMARK                            x       y       z     vdW  Elec       q    Type
REMARK                         _______ _______ _______ _____ _____    ______ ____
ROOT
ATOM     16  C   UNL     1      46.772  19.917  20.406  0.00  0.00    -0.045 A 
ATOM     17  C   UNL     1      47.416  20.757  21.320  0.00  0.00    +0.168 A 
ATOM     20  C   UNL     1      48.796  20.739  21.410  0.00  0.00    -0.016 A 
ATOM     21  C   UNL     1      49.531  19.891  20.596  0.00  0.00    +0.158 A 
ATOM     24  C   UNL     1      48.893  19.054  19.684  0.00  0.00    -0.163 A 
ATOM     25  C   UNL     1      49.739  18.156  18.820  0.00  0.00    +0.239 C 
ATOM     26  C   UNL     1      50.873  17.568  19.662  0.00  0.00    +0.092 C 
ATOM     27  N   UNL     1      48.932  17.054  18.278  0.00  0.00    -0.383 N 
ATOM     28  H   UNL     1      48.620  16.455  19.027  0.00  0.00    +0.423 HD
ATOM     29  C   UNL     1      49.741  16.277  17.329  0.00  0.00    +0.324 C 
ATOM     30  C   UNL     1      47.767  17.621  17.584  0.00  0.00    +0.169 C 
ATOM     31  C   UNL     1      47.082  16.536  16.751  0.00  0.00    +0.094 C 
ATOM     32  C   UNL     1      46.790  18.160  18.630  0.00  0.00    +0.133 C 
ATOM     33  C   UNL     1      47.519  19.060  19.593  0.00  0.00    -0.045 A 
ENDROOT
BRANCH  16  15
ATOM      1  C   UNL     1      45.481  21.884  18.754  0.00  0.00    +0.093 C 
ATOM      2  C   UNL     1      44.660  20.872  19.511  0.00  0.00    -0.009 A 
ATOM      3  C   UNL     1      43.275  20.892  19.402  0.00  0.00    -0.102 A 
ATOM      4  C   UNL     1      42.499  19.979  20.082  0.00  0.00    +0.181 A 
ATOM      7  C   UNL     1      43.111  19.010  20.901  0.00  0.00    -0.106 A 
ATOM      8  C   UNL     1      44.522  18.984  21.017  0.00  0.00    +0.027 A 
ATOM      9  C   UNL     1      45.130  18.019  21.833  0.00  0.00    -0.014 A 
ATOM     10  C   UNL     1      44.365  17.115  22.505  0.00  0.00    +0.059 A 
ATOM     11  C   UNL     1      42.978  17.131  22.399  0.00  0.00    -0.027 A 
ATOM     12  C   UNL     1      42.343  18.064  21.608  0.00  0.00    +0.154 A 
ATOM     15  C   UNL     1      45.295  19.931  20.303  0.00  0.00    -0.107 A 
BRANCH   4   5
ATOM      5  O   UNL     1      41.146  20.013  19.964  0.00  0.00    -0.291 OA
ATOM      6  C   UNL     1      40.600  20.966  19.048  0.00  0.00    +0.248 C 
ENDBRANCH   4   5
BRANCH  12  13
ATOM     13  O   UNL     1      40.988  18.071  21.511  0.00  0.00    -0.480 OA
ATOM     14  H   UNL     1      40.542  18.474  22.268  0.00  0.00    +0.397 HD
ENDBRANCH  12  13
ENDBRANCH  16  15
BRANCH  17  18
ATOM     18  O   UNL     1      46.690  21.587  22.113  0.00  0.00    -0.480 OA
ATOM     19  H   UNL     1      45.972  22.044  21.652  0.00  0.00    +0.401 HD
ENDBRANCH  17  18
BRANCH  21  22
ATOM     22  O   UNL     1      50.887  19.878  20.688  0.00  0.00    -0.489 OA
ATOM     23  H   UNL     1      51.326  19.428  19.953  0.00  0.00    +0.401 HD
ENDBRANCH  21  22
TORSDOF 5
ENDMDL
MODEL 6
REMARK VINA RESULT:      -6.1      5.710      7.650
REMARK  Name = ZINC95486164
REMARK  10 active torsions:
REMARK  status: ('A' for Active; 'I' for Inactive)
REMARK    1  A    between atoms: C1_1  and  C2_2
REMARK    2  A    between atoms: C4_4  and  O4_30
REMARK    3  A    between atoms: C7_7  and  C8_8
REMARK    4  A    between atoms: C9_9  and  O2_24
REMARK    5  A    between atoms: C11_11  and  O1_23
REMARK    6  A    between atoms: C15_15  and  C19_22
REMARK    7  A    between atoms: N1_17  and  C18_21
REMARK    8  A    between atoms: C16_18  and  C17_20
REMARK    9  A    between atoms: C23_28  and  O3_29
REMARK   10  A    between atoms: O4_30  and  C24_31
REMARK                            x       y       z     vdW  Elec       q    Type
REMARK                         _______ _______ _______ _____ _____    ______ ____
ROOT
ATOM     16  C   UNL     1      48.851  16.576  17.898  0.00  0.00    -0.045 A 
ATOM     17  C   UNL     1      47.576  16.927  17.445  0.00  0.00    +0.168 A 
ATOM     20  C   UNL     1      46.814  15.997  16.761  0.00  0.00    -0.016 A 
ATOM     21  C   UNL     1      47.317  14.726  16.530  0.00  0.00    +0.158 A 
ATOM     24  C   UNL     1      48.586  14.373  16.981  0.00  0.00    -0.163 A 
ATOM     25  C   UNL     1      49.082  12.977  16.707  0.00  0.00    +0.239 C 
ATOM     26  C   UNL     1      48.687  12.571  15.286  0.00  0.00    +0.092 C 
ATOM     27  N   UNL     1      50.546  12.919  16.825  0.00  0.00    -0.383 N 
ATOM     28  H   UNL     1      50.973  13.480  16.103  0.00  0.00    +0.423 HD
ATOM     29  C   UNL     1      50.991  11.525  16.695  0.00  0.00    +0.324 C 
ATOM     30  C   UNL     1      50.932  13.439  18.145  0.00  0.00    +0.169 C 
ATOM     31  C   UNL     1      52.400  13.109  18.423  0.00  0.00    +0.094 C 
ATOM     32  C   UNL     1      50.738  14.956  18.147  0.00  0.00    +0.133 C 
ATOM     33  C   UNL     1      49.354  15.294  17.655  0.00  0.00    -0.045 A 
ENDROOT
BRANCH  16  15
ATOM      1  C   UNL     1      48.634  16.762  20.758  0.00  0.00    +0.093 C 
ATOM      2  C   UNL     1      49.579  17.665  20.009  0.00  0.00    -0.009 A 
ATOM      3  C   UNL     1      50.349  18.585  20.709  0.00  0.00    -0.102 A 
ATOM      4  C   UNL     1      51.222  19.424  20.051  0.00  0.00    +0.181 A 
ATOM      7  C   UNL     1      51.340  19.353  18.649  0.00  0.00    -0.106 A 
ATOM      8  C   UNL     1      50.558  18.418  17.929  0.00  0.00    +0.027 A 
ATOM      9  C   UNL     1      50.677  18.347  16.533  0.00  0.00    -0.014 A 
ATOM     10  C   UNL     1      51.540  19.174  15.880  0.00  0.00    +0.059 A 
ATOM     11  C   UNL     1      52.313  20.097  16.577  0.00  0.00    -0.027 A 
ATOM     12  C   UNL     1      52.224  20.197  17.949  0.00  0.00    +0.154 A 
ATOM     15  C   UNL     1      49.674  17.565  18.632  0.00  0.00    -0.107 A 
BRANCH   4   5
ATOM      5  O   UNL     1      51.967  20.318  20.751  0.00  0.00    -0.291 OA
ATOM      6  C   UNL     1      52.586  19.847  21.951  0.00  0.00    +0.248 C 
ENDBRANCH   4   5
BRANCH  12  13
ATOM     13  O   UNL     1      52.984  21.101  18.620  0.00  0.00    -0.480 OA
ATOM     14  H   UNL     1      53.895  20.816  18.770  0.00  0.00    +0.397 HD
ENDBRANCH  12  13
ENDBRANCH  16  15
BRANCH  17  18
ATOM     18  O   UNL     1      47.088  18.173  17.677  0.00  0.00    -0.480 OA
ATOM     19  H   UNL     1      46.247  18.184  18.154  0.00  0.00    +0.401 HD
ENDBRANCH  17  18
BRANCH  21  22
ATOM     22  O   UNL     1      46.563  13.816  15.858  0.00  0.00    -0.489 OA
ATOM     23  H   UNL     1      45.878  13.398  16.397  0.00  0.00    +0.401 HD
ENDBRANCH  21  22
TORSDOF 5
ENDMDL
MODEL 7
REMARK VINA RESULT:      -5.9      3.953      6.721
REMARK  Name = ZINC95486164
REMARK  10 active torsions:
REMARK  status: ('A' for Active; 'I' for Inactive)
REMARK    1  A    between atoms: C1_1  and  C2_2
REMARK    2  A    between atoms: C4_4  and  O4_30
REMARK    3  A    between atoms: C7_7  and  C8_8
REMARK    4  A    between atoms: C9_9  and  O2_24
REMARK    5  A    between atoms: C11_11  and  O1_23
REMARK    6  A    between atoms: C15_15  and  C19_22
REMARK    7  A    between atoms: N1_17  and  C18_21
REMARK    8  A    between atoms: C16_18  and  C17_20
REMARK    9  A    between atoms: C23_28  and  O3_29
REMARK   10  A    between atoms: O4_30  and  C24_31
REMARK                            x       y       z     vdW  Elec       q    Type
REMARK                         _______ _______ _______ _____ _____    ______ ____
ROOT
ATOM     16  C   UNL     1      48.024  17.103  20.020  0.00  0.00    -0.045 A 
ATOM     17  C   UNL     1      48.451  15.950  20.685  0.00  0.00    +0.168 A 
ATOM     20  C   UNL     1      47.545  15.213  21.426  0.00  0.00    -0.016 A 
ATOM     21  C   UNL     1      46.222  15.619  21.504  0.00  0.00    +0.158 A 
ATOM     24  C   UNL     1      45.793  16.767  20.842  0.00  0.00    -0.163 A 
ATOM     25  C   UNL     1      44.344  17.161  20.956  0.00  0.00    +0.239 C 
ATOM     26  C   UNL     1      43.874  16.945  22.396  0.00  0.00    +0.092 C 
ATOM     27  N   UNL     1      44.167  18.578  20.609  0.00  0.00    -0.383 N 
ATOM     28  H   UNL     1      44.636  19.160  21.286  0.00  0.00    +0.423 HD
ATOM     29  C   UNL     1      42.734  18.901  20.589  0.00  0.00    +0.324 C 
ATOM     30  C   UNL     1      44.744  18.811  19.276  0.00  0.00    +0.169 C 
ATOM     31  C   UNL     1      44.307  20.182  18.756  0.00  0.00    +0.094 C 
ATOM     32  C   UNL     1      46.268  18.766  19.390  0.00  0.00    +0.133 C 
ATOM     33  C   UNL     1      46.690  17.511  20.109  0.00  0.00    -0.045 A 
ENDROOT
BRANCH  16  15
ATOM      1  C   UNL     1      48.463  16.450  17.255  0.00  0.00    +0.093 C 
ATOM      2  C   UNL     1      49.208  17.595  17.892  0.00  0.00    -0.009 A 
ATOM      3  C   UNL     1      50.105  18.336  17.134  0.00  0.00    -0.102 A 
ATOM      4  C   UNL     1      50.801  19.389  17.689  0.00  0.00    +0.181 A 
ATOM      7  C   UNL     1      50.604  19.722  19.044  0.00  0.00    -0.106 A 
ATOM      8  C   UNL     1      49.692  18.970  19.823  0.00  0.00    +0.027 A 
ATOM      9  C   UNL     1      49.496  19.303  21.171  0.00  0.00    -0.014 A 
ATOM     10  C   UNL     1      50.182  20.344  21.722  0.00  0.00    +0.059 A 
ATOM     11  C   UNL     1      51.081  21.089  20.966  0.00  0.00    -0.027 A 
ATOM     12  C   UNL     1      51.300  20.792  19.638  0.00  0.00    +0.154 A 
ATOM     15  C   UNL     1      48.987  17.898  19.224  0.00  0.00    -0.107 A 
BRANCH   4   5
ATOM      5  O   UNL     1      51.674  20.102  16.933  0.00  0.00    -0.291 OA
ATOM      6  C   UNL     1      52.180  19.468  15.756  0.00  0.00    +0.248 C 
ENDBRANCH   4   5
BRANCH  12  13
ATOM     13  O   UNL     1      52.181  21.526  18.909  0.00  0.00    -0.480 OA
ATOM     14  H   UNL     1      52.903  21.904  19.429  0.00  0.00    +0.397 HD
ENDBRANCH  12  13
ENDBRANCH  16  15
BRANCH  17  18
ATOM     18  O   UNL     1      49.748  15.555  20.603  0.00  0.00    -0.480 OA
ATOM     19  H   UNL     1      50.002  15.217  19.733  0.00  0.00    +0.401 HD
ENDBRANCH  17  18
BRANCH  21  22
ATOM     22  O   UNL     1      45.337  14.890  22.233  0.00  0.00    -0.489 OA
ATOM     23  H   UNL     1      45.742  14.178  22.747  0.00  0.00    +0.401 HD
ENDBRANCH  21  22
TORSDOF 5
ENDMDL
MODEL 8
REMARK VINA RESULT:      -5.7      4.429      6.667
REMARK  Name = ZINC95486164
REMARK  10 active torsions:
REMARK  status: ('A' for Active; 'I' for Inactive)
REMARK    1  A    between atoms: C1_1  and  C2_2
REMARK    2  A    between atoms: C4_4  and  O4_30
REMARK    3  A    between atoms: C7_7  and  C8_8
REMARK    4  A    between atoms: C9_9  and  O2_24
REMARK    5  A    between atoms: C11_11  and  O1_23
REMARK    6  A    between atoms: C15_15  and  C19_22
REMARK    7  A    between atoms: N1_17  and  C18_21
REMARK    8  A    between atoms: C16_18  and  C17_20
REMARK    9  A    between atoms: C23_28  and  O3_29
REMARK   10  A    between atoms: O4_30  and  C24_31
REMARK                            x       y       z     vdW  Elec       q    Type
REMARK                         _______ _______ _______ _____ _____    ______ ____
ROOT
ATOM     16  C   UNL     1      48.014  17.644  19.208  0.00  0.00    -0.045 A 
ATOM     17  C   UNL     1      46.767  17.863  18.615  0.00  0.00    +0.168 A 
ATOM     20  C   UNL     1      45.839  16.838  18.577  0.00  0.00    -0.016 A 
ATOM     21  C   UNL     1      46.147  15.604  19.127  0.00  0.00    +0.158 A 
ATOM     24  C   UNL     1      47.388  15.383  19.720  0.00  0.00    -0.163 A 
ATOM     25  C   UNL     1      47.671  14.025  20.307  0.00  0.00    +0.239 C 
ATOM     26  C   UNL     1      47.120  12.946  19.373  0.00  0.00    +0.092 C 
ATOM     27  N   UNL     1      49.119  13.822  20.461  0.00  0.00    -0.383 N 
ATOM     28  H   UNL     1      49.561  13.798  19.555  0.00  0.00    +0.423 HD
ATOM     29  C   UNL     1      49.362  12.555  21.164  0.00  0.00    +0.324 C 
ATOM     30  C   UNL     1      49.668  14.936  21.248  0.00  0.00    +0.169 C 
ATOM     31  C   UNL     1      51.095  14.604  21.690  0.00  0.00    +0.094 C 
ATOM     32  C   UNL     1      49.680  16.191  20.374  0.00  0.00    +0.133 C 
ATOM     33  C   UNL     1      48.321  16.394  19.755  0.00  0.00    -0.045 A 
ENDROOT
BRANCH  16  15
ATOM      1  C   UNL     1      48.016  19.478  21.421  0.00  0.00    +0.093 C 
ATOM      2  C   UNL     1      49.026  19.625  20.312  0.00  0.00    -0.009 A 
ATOM      3  C   UNL     1      49.962  20.650  20.368  0.00  0.00    -0.102 A 
ATOM      4  C   UNL     1      50.898  20.809  19.370  0.00  0.00    +0.181 A 
ATOM      7  C   UNL     1      50.911  19.924  18.274  0.00  0.00    -0.106 A 
ATOM      8  C   UNL     1      49.960  18.878  18.210  0.00  0.00    +0.027 A 
ATOM      9  C   UNL     1      49.974  17.997  17.119  0.00  0.00    -0.014 A 
ATOM     10  C   UNL     1      50.899  18.151  16.131  0.00  0.00    +0.059 A 
ATOM     11  C   UNL     1      51.839  19.176  16.183  0.00  0.00    -0.027 A 
ATOM     12  C   UNL     1      51.856  20.062  17.238  0.00  0.00    +0.154 A 
ATOM     15  C   UNL     1      49.013  18.735  19.253  0.00  0.00    -0.107 A 
BRANCH   4   5
ATOM      5  O   UNL     1      51.805  21.817  19.441  0.00  0.00    -0.291 OA
ATOM      6  C   UNL     1      52.588  21.901  20.634  0.00  0.00    +0.248 C 
ENDBRANCH   4   5
BRANCH  12  13
ATOM     13  O   UNL     1      52.778  21.059  17.280  0.00  0.00    -0.480 OA
ATOM     14  H   UNL     1      52.568  21.762  17.909  0.00  0.00    +0.397 HD
ENDBRANCH  12  13
ENDBRANCH  16  15
BRANCH  17  18
ATOM     18  O   UNL     1      46.469  19.075  18.079  0.00  0.00    -0.480 OA
ATOM     19  H   UNL     1      47.243  19.628  17.902  0.00  0.00    +0.401 HD
ENDBRANCH  17  18
BRANCH  21  22
ATOM     22  O   UNL     1      45.231  14.601  19.088  0.00  0.00    -0.489 OA
ATOM     23  H   UNL     1      45.563  13.780  18.699  0.00  0.00    +0.401 HD
ENDBRANCH  21  22
TORSDOF 5
ENDMDL
MODEL 9
REMARK VINA RESULT:      -5.4      5.867      8.046
REMARK  Name = ZINC95486164
REMARK  10 active torsions:
REMARK  status: ('A' for Active; 'I' for Inactive)
REMARK    1  A    between atoms: C1_1  and  C2_2
REMARK    2  A    between atoms: C4_4  and  O4_30
REMARK    3  A    between atoms: C7_7  and  C8_8
REMARK    4  A    between atoms: C9_9  and  O2_24
REMARK    5  A    between atoms: C11_11  and  O1_23
REMARK    6  A    between atoms: C15_15  and  C19_22
REMARK    7  A    between atoms: N1_17  and  C18_21
REMARK    8  A    between atoms: C16_18  and  C17_20
REMARK    9  A    between atoms: C23_28  and  O3_29
REMARK   10  A    between atoms: O4_30  and  C24_31
REMARK                            x       y       z     vdW  Elec       q    Type
REMARK                         _______ _______ _______ _____ _____    ______ ____
ROOT
ATOM     16  C   UNL     1      51.139  15.642  18.865  0.00  0.00    -0.045 A 
ATOM     17  C   UNL     1      52.261  14.816  18.982  0.00  0.00    +0.168 A 
ATOM     20  C   UNL     1      52.125  13.450  18.811  0.00  0.00    -0.016 A 
ATOM     21  C   UNL     1      50.881  12.910  18.525  0.00  0.00    +0.158 A 
ATOM     24  C   UNL     1      49.762  13.730  18.407  0.00  0.00    -0.163 A 
ATOM     25  C   UNL     1      48.435  13.091  18.091  0.00  0.00    +0.239 C 
ATOM     26  C   UNL     1      48.294  11.796  18.892  0.00  0.00    +0.092 C 
ATOM     27  N   UNL     1      47.331  13.992  18.452  0.00  0.00    -0.383 N 
ATOM     28  H   UNL     1      47.309  14.127  19.451  0.00  0.00    +0.423 HD
ATOM     29  C   UNL     1      46.059  13.410  18.004  0.00  0.00    +0.324 C 
ATOM     30  C   UNL     1      47.543  15.286  17.785  0.00  0.00    +0.169 C 
ATOM     31  C   UNL     1      46.273  16.133  17.883  0.00  0.00    +0.094 C 
ATOM     32  C   UNL     1      48.698  16.009  18.479  0.00  0.00    +0.133 C 
ATOM     33  C   UNL     1      49.887  15.089  18.584  0.00  0.00    -0.045 A 
ENDROOT
BRANCH  16  15
ATOM      1  C   UNL     1      50.870  16.779  21.491  0.00  0.00    +0.093 C 
ATOM      2  C   UNL     1      51.149  17.666  20.305  0.00  0.00    -0.009 A 
ATOM      3  C   UNL     1      51.281  19.037  20.489  0.00  0.00    -0.102 A 
ATOM      4  C   UNL     1      51.536  19.873  19.424  0.00  0.00    +0.181 A 
ATOM      7  C   UNL     1      51.666  19.336  18.128  0.00  0.00    -0.106 A 
ATOM      8  C   UNL     1      51.533  17.941  17.933  0.00  0.00    +0.027 A 
ATOM      9  C   UNL     1      51.663  17.408  16.642  0.00  0.00    -0.014 A 
ATOM     10  C   UNL     1      51.917  18.232  15.587  0.00  0.00    +0.059 A 
ATOM     11  C   UNL     1      52.050  19.605  15.767  0.00  0.00    -0.027 A 
ATOM     12  C   UNL     1      51.928  20.166  17.020  0.00  0.00    +0.154 A 
ATOM     15  C   UNL     1      51.276  17.105  19.047  0.00  0.00    -0.107 A 
BRANCH   4   5
ATOM      5  O   UNL     1      51.662  21.210  19.622  0.00  0.00    -0.291 OA
ATOM      6  C   UNL     1      52.560  21.632  20.652  0.00  0.00    +0.248 C 
ENDBRANCH   4   5
BRANCH  12  13
ATOM     13  O   UNL     1      52.059  21.508  17.184  0.00  0.00    -0.480 OA
ATOM     14  H   UNL     1      52.219  21.991  16.362  0.00  0.00    +0.397 HD
ENDBRANCH  12  13
ENDBRANCH  16  15
BRANCH  17  18
ATOM     18  O   UNL     1      53.478  15.352  19.260  0.00  0.00    -0.480 OA
ATOM     19  H   UNL     1      53.706  15.345  20.200  0.00  0.00    +0.401 HD
ENDBRANCH  17  18
BRANCH  21  22
ATOM     22  O   UNL     1      50.754  11.567  18.357  0.00  0.00    -0.489 OA
ATOM     23  H   UNL     1      50.101  11.315  17.689  0.00  0.00    +0.401 HD
ENDBRANCH  21  22
TORSDOF 5
ENDMDL
