MODEL 1
REMARK VINA RESULT:      -6.1      0.000      0.000
REMARK  Name = ZINC95486146
REMARK  8 active torsions:
REMARK  status: ('A' for Active; 'I' for Inactive)
REMARK    1  A    between atoms: C1_1  and  C2_2
REMARK    2  A    between atoms: C5_5  and  O6_31
REMARK    3  A    between atoms: C6_7  and  C19_29
REMARK    4  A    between atoms: C6_7  and  C20_30
REMARK    5  A    between atoms: C8_10  and  O5_28
REMARK    6  A    between atoms: C11_14  and  C12_16
REMARK    7  A    between atoms: C12_16  and  C13_17
REMARK    8  A    between atoms: C15_19  and  O3_25
REMARK                            x       y       z     vdW  Elec       q    Type
REMARK                         _______ _______ _______ _____ _____    ______ ____
ROOT
ATOM      1  C   UNL     1      49.938  17.476  19.771  0.00  0.00    +0.033 C 
ATOM      2  C   UNL     1      49.238  18.390  18.751  0.00  0.00    -0.032 C 
ATOM      3  C   UNL     1      48.933  17.567  17.500  0.00  0.00    +0.034 C 
ATOM      4  C   UNL     1      50.247  17.104  16.868  0.00  0.00    -0.012 C 
ATOM      5  C   UNL     1      51.026  18.331  16.411  0.00  0.00    +0.164 C 
ATOM      8  C   UNL     1      51.308  19.306  17.553  0.00  0.00    -0.033 C 
ATOM      9  C   UNL     1      51.755  20.617  16.859  0.00  0.00    +0.030 C 
ATOM     10  C   UNL     1      52.496  18.800  18.373  0.00  0.00    +0.035 C 
ATOM     11  C   UNL     1      47.914  18.836  19.389  0.00  0.00    +0.036 C 
ATOM     22  C   UNL     1      48.200  19.731  20.596  0.00  0.00    +0.025 C 
ATOM     23  C   UNL     1      48.136  19.115  21.991  0.00  0.00    +0.184 C 
ATOM     24  O   UNL     1      47.111  19.978  21.493  0.00  0.00    -0.334 OA
ATOM     25  C   UNL     1      49.173  20.882  20.354  0.00  0.00    +0.022 C 
ATOM     26  C   UNL     1      50.457  20.353  19.697  0.00  0.00    +0.189 C 
ATOM     29  C   UNL     1      50.095  19.602  18.415  0.00  0.00    +0.026 C 
ENDROOT
BRANCH   5   6
ATOM      6  O   UNL     1      52.271  17.915  15.836  0.00  0.00    -0.563 OA
ATOM      7  H   UNL     1      52.439  16.965  15.906  0.00  0.00    +0.374 HD
ENDBRANCH   5   6
BRANCH  26  27
ATOM     27  O   UNL     1      51.293  21.483  19.428  0.00  0.00    -0.554 OA
ATOM     28  H   UNL     1      51.165  21.866  18.550  0.00  0.00    +0.375 HD
ENDBRANCH  26  27
BRANCH  11  12
ATOM     12  C   UNL     1      47.029  19.581  18.395  0.00  0.00    +0.078 C 
BRANCH  12  13
ATOM     13  C   UNL     1      45.610  19.086  18.517  0.00  0.00    +0.150 C 
ATOM     14  C   UNL     1      44.638  19.931  18.857  0.00  0.00    -0.241 C 
ATOM     15  C   UNL     1      43.161  19.617  19.034  0.00  0.00    +0.200 C 
ATOM     18  C   UNL     1      42.560  20.978  19.444  0.00  0.00    +0.231 C 
ATOM     19  O   UNL     1      43.690  21.761  19.868  0.00  0.00    -0.336 OA
ATOM     20  C   UNL     1      44.763  21.372  19.150  0.00  0.00    +0.518 C 
ATOM     21  O   UNL     1      45.679  22.091  18.799  0.00  0.00    -0.443 OA
BRANCH  15  16
ATOM     16  O   UNL     1      42.971  18.646  20.065  0.00  0.00    -0.540 OA
ATOM     17  H   UNL     1      42.103  18.686  20.488  0.00  0.00    +0.382 HD
ENDBRANCH  15  16
ENDBRANCH  12  13
ENDBRANCH  11  12
TORSDOF 5
ENDMDL
MODEL 2
REMARK VINA RESULT:      -5.7      1.873      6.527
REMARK  Name = ZINC95486146
REMARK  8 active torsions:
REMARK  status: ('A' for Active; 'I' for Inactive)
REMARK    1  A    between atoms: C1_1  and  C2_2
REMARK    2  A    between atoms: C5_5  and  O6_31
REMARK    3  A    between atoms: C6_7  and  C19_29
REMARK    4  A    between atoms: C6_7  and  C20_30
REMARK    5  A    between atoms: C8_10  and  O5_28
REMARK    6  A    between atoms: C11_14  and  C12_16
REMARK    7  A    between atoms: C12_16  and  C13_17
REMARK    8  A    between atoms: C15_19  and  O3_25
REMARK                            x       y       z     vdW  Elec       q    Type
REMARK                         _______ _______ _______ _____ _____    ______ ____
ROOT
ATOM      1  C   UNL     1      46.119  18.842  21.744  0.00  0.00    +0.033 C 
ATOM      2  C   UNL     1      46.831  19.556  20.582  0.00  0.00    -0.032 C 
ATOM      3  C   UNL     1      48.133  20.155  21.114  0.00  0.00    +0.034 C 
ATOM      4  C   UNL     1      47.806  21.215  22.168  0.00  0.00    -0.012 C 
ATOM      5  C   UNL     1      47.039  22.348  21.497  0.00  0.00    +0.164 C 
ATOM      8  C   UNL     1      45.756  21.868  20.821  0.00  0.00    -0.033 C 
ATOM      9  C   UNL     1      45.324  23.041  19.905  0.00  0.00    +0.030 C 
ATOM     10  C   UNL     1      44.662  21.689  21.875  0.00  0.00    +0.035 C 
ATOM     11  C   UNL     1      47.168  18.480  19.538  0.00  0.00    +0.036 C 
ATOM     22  C   UNL     1      45.876  17.928  18.935  0.00  0.00    +0.025 C 
ATOM     23  C   UNL     1      45.337  16.599  19.458  0.00  0.00    +0.184 C 
ATOM     24  O   UNL     1      45.979  16.711  18.186  0.00  0.00    -0.334 OA
ATOM     25  C   UNL     1      44.879  18.969  18.431  0.00  0.00    +0.022 C 
ATOM     26  C   UNL     1      44.615  20.013  19.527  0.00  0.00    +0.189 C 
ATOM     29  C   UNL     1      45.945  20.629  19.966  0.00  0.00    +0.026 C 
ENDROOT
BRANCH   5   6
ATOM      6  O   UNL     1      46.707  23.340  22.477  0.00  0.00    -0.563 OA
ATOM      7  H   UNL     1      46.971  24.238  22.232  0.00  0.00    +0.374 HD
ENDBRANCH   5   6
BRANCH  26  27
ATOM     27  O   UNL     1      43.737  20.997  18.971  0.00  0.00    -0.554 OA
ATOM     28  H   UNL     1      43.261  20.699  18.184  0.00  0.00    +0.375 HD
ENDBRANCH  26  27
BRANCH  11  12
ATOM     12  C   UNL     1      48.061  19.028  18.430  0.00  0.00    +0.078 C 
BRANCH  12  13
ATOM     13  C   UNL     1      49.365  18.271  18.415  0.00  0.00    +0.150 C 
ATOM     14  C   UNL     1      50.514  18.929  18.282  0.00  0.00    -0.241 C 
ATOM     15  C   UNL     1      51.916  18.340  18.239  0.00  0.00    +0.200 C 
ATOM     18  C   UNL     1      52.812  19.583  18.050  0.00  0.00    +0.231 C 
ATOM     19  O   UNL     1      51.917  20.610  17.591  0.00  0.00    -0.336 OA
ATOM     20  C   UNL     1      50.704  20.385  18.136  0.00  0.00    +0.518 C 
ATOM     21  O   UNL     1      49.902  21.241  18.458  0.00  0.00    -0.443 OA
BRANCH  15  16
ATOM     16  O   UNL     1      52.053  17.443  17.135  0.00  0.00    -0.540 OA
ATOM     17  H   UNL     1      51.345  17.513  16.480  0.00  0.00    +0.382 HD
ENDBRANCH  15  16
ENDBRANCH  12  13
ENDBRANCH  11  12
TORSDOF 5
ENDMDL
MODEL 3
REMARK VINA RESULT:      -5.6      2.959      6.167
REMARK  Name = ZINC95486146
REMARK  8 active torsions:
REMARK  status: ('A' for Active; 'I' for Inactive)
REMARK    1  A    between atoms: C1_1  and  C2_2
REMARK    2  A    between atoms: C5_5  and  O6_31
REMARK    3  A    between atoms: C6_7  and  C19_29
REMARK    4  A    between atoms: C6_7  and  C20_30
REMARK    5  A    between atoms: C8_10  and  O5_28
REMARK    6  A    between atoms: C11_14  and  C12_16
REMARK    7  A    between atoms: C12_16  and  C13_17
REMARK    8  A    between atoms: C15_19  and  O3_25
REMARK                            x       y       z     vdW  Elec       q    Type
REMARK                         _______ _______ _______ _____ _____    ______ ____
ROOT
ATOM      1  C   UNL     1      45.592  17.171  19.035  0.00  0.00    +0.033 C 
ATOM      2  C   UNL     1      47.091  16.944  18.776  0.00  0.00    -0.032 C 
ATOM      3  C   UNL     1      47.353  17.131  17.281  0.00  0.00    +0.034 C 
ATOM      4  C   UNL     1      46.589  16.061  16.498  0.00  0.00    -0.012 C 
ATOM      5  C   UNL     1      47.141  14.693  16.877  0.00  0.00    +0.164 C 
ATOM      8  C   UNL     1      47.044  14.415  18.376  0.00  0.00    -0.033 C 
ATOM      9  C   UNL     1      47.963  13.190  18.616  0.00  0.00    +0.030 C 
ATOM     10  C   UNL     1      45.617  13.985  18.722  0.00  0.00    +0.035 C 
ATOM     11  C   UNL     1      47.847  18.032  19.553  0.00  0.00    +0.036 C 
ATOM     22  C   UNL     1      47.663  17.811  21.056  0.00  0.00    +0.025 C 
ATOM     23  C   UNL     1      46.623  18.649  21.794  0.00  0.00    +0.184 C 
ATOM     24  O   UNL     1      48.026  18.895  21.920  0.00  0.00    -0.334 OA
ATOM     25  C   UNL     1      47.948  16.398  21.559  0.00  0.00    +0.022 C 
ATOM     26  C   UNL     1      47.171  15.375  20.716  0.00  0.00    +0.189 C 
ATOM     29  C   UNL     1      47.529  15.563  19.241  0.00  0.00    +0.026 C 
ENDROOT
BRANCH   5   6
ATOM      6  O   UNL     1      46.421  13.677  16.167  0.00  0.00    -0.563 OA
ATOM      7  H   UNL     1      46.982  13.098  15.632  0.00  0.00    +0.374 HD
ENDBRANCH   5   6
BRANCH  26  27
ATOM     27  O   UNL     1      47.537  14.074  21.186  0.00  0.00    -0.554 OA
ATOM     28  H   UNL     1      48.403  13.774  20.879  0.00  0.00    +0.375 HD
ENDBRANCH  26  27
BRANCH  11  12
ATOM     12  C   UNL     1      49.333  18.042  19.212  0.00  0.00    +0.078 C 
BRANCH  12  13
ATOM     13  C   UNL     1      49.788  19.462  18.991  0.00  0.00    +0.150 C 
ATOM     14  C   UNL     1      50.601  19.749  17.976  0.00  0.00    -0.241 C 
ATOM     15  C   UNL     1      51.165  21.110  17.601  0.00  0.00    +0.200 C 
ATOM     18  C   UNL     1      52.041  20.800  16.368  0.00  0.00    +0.231 C 
ATOM     19  O   UNL     1      52.245  19.377  16.418  0.00  0.00    -0.336 OA
ATOM     20  C   UNL     1      51.154  18.815  16.977  0.00  0.00    +0.518 C 
ATOM     21  O   UNL     1      50.700  17.721  16.699  0.00  0.00    -0.443 OA
BRANCH  15  16
ATOM     16  O   UNL     1      51.957  21.640  18.666  0.00  0.00    -0.540 OA
ATOM     17  H   UNL     1      52.910  21.554  18.528  0.00  0.00    +0.382 HD
ENDBRANCH  15  16
ENDBRANCH  12  13
ENDBRANCH  11  12
TORSDOF 5
ENDMDL
MODEL 4
REMARK VINA RESULT:      -5.5      3.508      4.752
REMARK  Name = ZINC95486146
REMARK  8 active torsions:
REMARK  status: ('A' for Active; 'I' for Inactive)
REMARK    1  A    between atoms: C1_1  and  C2_2
REMARK    2  A    between atoms: C5_5  and  O6_31
REMARK    3  A    between atoms: C6_7  and  C19_29
REMARK    4  A    between atoms: C6_7  and  C20_30
REMARK    5  A    between atoms: C8_10  and  O5_28
REMARK    6  A    between atoms: C11_14  and  C12_16
REMARK    7  A    between atoms: C12_16  and  C13_17
REMARK    8  A    between atoms: C15_19  and  O3_25
REMARK                            x       y       z     vdW  Elec       q    Type
REMARK                         _______ _______ _______ _____ _____    ______ ____
ROOT
ATOM      1  C   UNL     1      52.491  17.263  18.436  0.00  0.00    +0.033 C 
ATOM      2  C   UNL     1      51.100  17.569  17.854  0.00  0.00    -0.032 C 
ATOM      3  C   UNL     1      51.226  17.658  16.334  0.00  0.00    +0.034 C 
ATOM      4  C   UNL     1      52.137  18.833  15.972  0.00  0.00    -0.012 C 
ATOM      5  C   UNL     1      51.477  20.124  16.438  0.00  0.00    +0.164 C 
ATOM      8  C   UNL     1      51.189  20.126  17.939  0.00  0.00    -0.033 C 
ATOM      9  C   UNL     1      50.212  21.310  18.156  0.00  0.00    +0.030 C 
ATOM     10  C   UNL     1      52.473  20.453  18.703  0.00  0.00    +0.035 C 
ATOM     11  C   UNL     1      50.198  16.377  18.210  0.00  0.00    +0.036 C 
ATOM     22  C   UNL     1      49.994  16.321  19.725  0.00  0.00    +0.025 C 
ATOM     23  C   UNL     1      50.834  15.340  20.538  0.00  0.00    +0.184 C 
ATOM     24  O   UNL     1      49.450  15.109  20.262  0.00  0.00    -0.334 OA
ATOM     25  C   UNL     1      49.560  17.628  20.385  0.00  0.00    +0.022 C 
ATOM     26  C   UNL     1      50.501  18.766  19.961  0.00  0.00    +0.189 C 
ATOM     29  C   UNL     1      50.529  18.854  18.435  0.00  0.00    +0.026 C 
ENDROOT
BRANCH   5   6
ATOM      6  O   UNL     1      52.330  21.233  16.125  0.00  0.00    -0.563 OA
ATOM      7  H   UNL     1      53.137  20.987  15.652  0.00  0.00    +0.374 HD
ENDBRANCH   5   6
BRANCH  26  27
ATOM     27  O   UNL     1      50.000  19.970  20.550  0.00  0.00    -0.554 OA
ATOM     28  H   UNL     1      50.639  20.430  21.111  0.00  0.00    +0.375 HD
ENDBRANCH  26  27
BRANCH  11  12
ATOM     12  C   UNL     1      48.845  16.463  17.511  0.00  0.00    +0.078 C 
BRANCH  12  13
ATOM     13  C   UNL     1      48.478  15.109  16.959  0.00  0.00    +0.150 C 
ATOM     14  C   UNL     1      47.373  14.497  17.380  0.00  0.00    -0.241 C 
ATOM     15  C   UNL     1      46.848  13.138  16.946  0.00  0.00    +0.200 C 
ATOM     18  C   UNL     1      45.565  12.972  17.788  0.00  0.00    +0.231 C 
ATOM     19  O   UNL     1      45.699  13.935  18.847  0.00  0.00    -0.336 OA
ATOM     20  C   UNL     1      46.398  14.987  18.373  0.00  0.00    +0.518 C 
ATOM     21  O   UNL     1      46.245  16.147  18.706  0.00  0.00    -0.443 OA
BRANCH  15  16
ATOM     16  O   UNL     1      47.793  12.110  17.252  0.00  0.00    -0.540 OA
ATOM     17  H   UNL     1      48.631  12.192  16.778  0.00  0.00    +0.382 HD
ENDBRANCH  15  16
ENDBRANCH  12  13
ENDBRANCH  11  12
TORSDOF 5
ENDMDL
MODEL 5
REMARK VINA RESULT:      -5.5      3.705      7.231
REMARK  Name = ZINC95486146
REMARK  8 active torsions:
REMARK  status: ('A' for Active; 'I' for Inactive)
REMARK    1  A    between atoms: C1_1  and  C2_2
REMARK    2  A    between atoms: C5_5  and  O6_31
REMARK    3  A    between atoms: C6_7  and  C19_29
REMARK    4  A    between atoms: C6_7  and  C20_30
REMARK    5  A    between atoms: C8_10  and  O5_28
REMARK    6  A    between atoms: C11_14  and  C12_16
REMARK    7  A    between atoms: C12_16  and  C13_17
REMARK    8  A    between atoms: C15_19  and  O3_25
REMARK                            x       y       z     vdW  Elec       q    Type
REMARK                         _______ _______ _______ _____ _____    ______ ____
ROOT
ATOM      1  C   UNL     1      46.761  18.820  20.938  0.00  0.00    +0.033 C 
ATOM      2  C   UNL     1      45.921  18.172  19.824  0.00  0.00    -0.032 C 
ATOM      3  C   UNL     1      46.152  18.955  18.532  0.00  0.00    +0.034 C 
ATOM      4  C   UNL     1      45.641  20.386  18.712  0.00  0.00    -0.012 C 
ATOM      5  C   UNL     1      44.135  20.340  18.939  0.00  0.00    +0.164 C 
ATOM      8  C   UNL     1      43.749  19.490  20.148  0.00  0.00    -0.033 C 
ATOM      9  C   UNL     1      42.224  19.257  20.002  0.00  0.00    +0.030 C 
ATOM     10  C   UNL     1      43.964  20.299  21.428  0.00  0.00    +0.035 C 
ATOM     11  C   UNL     1      46.452  16.742  19.641  0.00  0.00    +0.036 C 
ATOM     22  C   UNL     1      46.154  15.919  20.896  0.00  0.00    +0.025 C 
ATOM     23  C   UNL     1      47.272  15.714  21.915  0.00  0.00    +0.184 C 
ATOM     24  O   UNL     1      46.847  14.672  21.033  0.00  0.00    -0.334 OA
ATOM     25  C   UNL     1      44.714  15.970  21.398  0.00  0.00    +0.022 C 
ATOM     26  C   UNL     1      44.258  17.431  21.532  0.00  0.00    +0.189 C 
ATOM     29  C   UNL     1      44.444  18.142  20.191  0.00  0.00    +0.026 C 
ENDROOT
BRANCH   5   6
ATOM      6  O   UNL     1      43.644  21.673  19.130  0.00  0.00    -0.563 OA
ATOM      7  H   UNL     1      44.339  22.332  19.273  0.00  0.00    +0.374 HD
ENDBRANCH   5   6
BRANCH  26  27
ATOM     27  O   UNL     1      42.884  17.410  21.932  0.00  0.00    -0.554 OA
ATOM     28  H   UNL     1      42.528  18.279  22.162  0.00  0.00    +0.375 HD
ENDBRANCH  26  27
BRANCH  11  12
ATOM     12  C   UNL     1      45.838  16.062  18.422  0.00  0.00    +0.078 C 
BRANCH  12  13
ATOM     13  C   UNL     1      46.937  15.529  17.538  0.00  0.00    +0.150 C 
ATOM     14  C   UNL     1      47.066  14.216  17.355  0.00  0.00    -0.241 C 
ATOM     15  C   UNL     1      48.108  13.499  16.512  0.00  0.00    +0.200 C 
ATOM     18  C   UNL     1      47.758  12.010  16.713  0.00  0.00    +0.231 C 
ATOM     19  O   UNL     1      46.928  11.987  17.887  0.00  0.00    -0.336 OA
ATOM     20  C   UNL     1      46.235  13.143  17.934  0.00  0.00    +0.518 C 
ATOM     21  O   UNL     1      45.109  13.277  18.375  0.00  0.00    -0.443 OA
BRANCH  15  16
ATOM     16  O   UNL     1      49.425  13.780  16.989  0.00  0.00    -0.540 OA
ATOM     17  H   UNL     1      49.749  14.661  16.757  0.00  0.00    +0.382 HD
ENDBRANCH  15  16
ENDBRANCH  12  13
ENDBRANCH  11  12
TORSDOF 5
ENDMDL
MODEL 6
REMARK VINA RESULT:      -5.4      1.909      3.145
REMARK  Name = ZINC95486146
REMARK  8 active torsions:
REMARK  status: ('A' for Active; 'I' for Inactive)
REMARK    1  A    between atoms: C1_1  and  C2_2
REMARK    2  A    between atoms: C5_5  and  O6_31
REMARK    3  A    between atoms: C6_7  and  C19_29
REMARK    4  A    between atoms: C6_7  and  C20_30
REMARK    5  A    between atoms: C8_10  and  O5_28
REMARK    6  A    between atoms: C11_14  and  C12_16
REMARK    7  A    between atoms: C12_16  and  C13_17
REMARK    8  A    between atoms: C15_19  and  O3_25
REMARK                            x       y       z     vdW  Elec       q    Type
REMARK                         _______ _______ _______ _____ _____    ______ ____
ROOT
ATOM      1  C   UNL     1      50.031  18.534  17.416  0.00  0.00    +0.033 C 
ATOM      2  C   UNL     1      49.564  19.316  18.656  0.00  0.00    -0.032 C 
ATOM      3  C   UNL     1      49.618  20.808  18.330  0.00  0.00    +0.034 C 
ATOM      4  C   UNL     1      51.069  21.212  18.059  0.00  0.00    -0.012 C 
ATOM      5  C   UNL     1      51.878  21.008  19.333  0.00  0.00    +0.164 C 
ATOM      8  C   UNL     1      51.821  19.568  19.839  0.00  0.00    -0.033 C 
ATOM      9  C   UNL     1      52.364  19.632  21.290  0.00  0.00    +0.030 C 
ATOM     10  C   UNL     1      52.791  18.705  19.031  0.00  0.00    +0.035 C 
ATOM     11  C   UNL     1      48.103  18.915  18.910  0.00  0.00    +0.036 C 
ATOM     22  C   UNL     1      48.038  17.442  19.318  0.00  0.00    +0.025 C 
ATOM     23  C   UNL     1      47.659  16.409  18.262  0.00  0.00    +0.184 C 
ATOM     24  O   UNL     1      46.750  16.817  19.286  0.00  0.00    -0.334 OA
ATOM     25  C   UNL     1      48.985  17.021  20.440  0.00  0.00    +0.022 C 
ATOM     26  C   UNL     1      50.416  17.478  20.115  0.00  0.00    +0.189 C 
ATOM     29  C   UNL     1      50.419  18.988  19.871  0.00  0.00    +0.026 C 
ENDROOT
BRANCH   5   6
ATOM      6  O   UNL     1      53.245  21.362  19.089  0.00  0.00    -0.563 OA
ATOM      7  H   UNL     1      53.806  20.615  18.834  0.00  0.00    +0.374 HD
ENDBRANCH   5   6
BRANCH  26  27
ATOM     27  O   UNL     1      51.237  17.123  21.232  0.00  0.00    -0.554 OA
ATOM     28  H   UNL     1      51.454  16.182  21.277  0.00  0.00    +0.375 HD
ENDBRANCH  26  27
BRANCH  11  12
ATOM     12  C   UNL     1      47.458  19.778  19.990  0.00  0.00    +0.078 C 
BRANCH  12  13
ATOM     13  C   UNL     1      46.162  20.347  19.471  0.00  0.00    +0.150 C 
ATOM     14  C   UNL     1      45.004  19.941  19.988  0.00  0.00    -0.241 C 
ATOM     15  C   UNL     1      43.608  20.393  19.592  0.00  0.00    +0.200 C 
ATOM     18  C   UNL     1      42.694  19.564  20.520  0.00  0.00    +0.231 C 
ATOM     19  O   UNL     1      43.532  18.494  20.991  0.00  0.00    -0.336 OA
ATOM     20  C   UNL     1      44.798  18.951  21.063  0.00  0.00    +0.518 C 
ATOM     21  O   UNL     1      45.630  18.608  21.881  0.00  0.00    -0.443 OA
BRANCH  15  16
ATOM     16  O   UNL     1      43.348  20.090  18.221  0.00  0.00    -0.540 OA
ATOM     17  H   UNL     1      42.427  20.223  17.956  0.00  0.00    +0.382 HD
ENDBRANCH  15  16
ENDBRANCH  12  13
ENDBRANCH  11  12
TORSDOF 5
ENDMDL
MODEL 7
REMARK VINA RESULT:      -5.3      1.940      2.864
REMARK  Name = ZINC95486146
REMARK  8 active torsions:
REMARK  status: ('A' for Active; 'I' for Inactive)
REMARK    1  A    between atoms: C1_1  and  C2_2
REMARK    2  A    between atoms: C5_5  and  O6_31
REMARK    3  A    between atoms: C6_7  and  C19_29
REMARK    4  A    between atoms: C6_7  and  C20_30
REMARK    5  A    between atoms: C8_10  and  O5_28
REMARK    6  A    between atoms: C11_14  and  C12_16
REMARK    7  A    between atoms: C12_16  and  C13_17
REMARK    8  A    between atoms: C15_19  and  O3_25
REMARK                            x       y       z     vdW  Elec       q    Type
REMARK                         _______ _______ _______ _____ _____    ______ ____
ROOT
ATOM      1  C   UNL     1      50.847  17.753  20.983  0.00  0.00    +0.033 C 
ATOM      2  C   UNL     1      50.035  18.670  20.052  0.00  0.00    -0.032 C 
ATOM      3  C   UNL     1      48.694  17.995  19.765  0.00  0.00    +0.034 C 
ATOM      4  C   UNL     1      48.939  16.686  19.013  0.00  0.00    -0.012 C 
ATOM      5  C   UNL     1      49.569  17.009  17.664  0.00  0.00    +0.164 C 
ATOM      8  C   UNL     1      50.875  17.789  17.799  0.00  0.00    -0.033 C 
ATOM      9  C   UNL     1      51.161  18.339  16.378  0.00  0.00    +0.030 C 
ATOM     10  C   UNL     1      52.010  16.825  18.148  0.00  0.00    +0.035 C 
ATOM     11  C   UNL     1      49.781  19.974  20.822  0.00  0.00    +0.036 C 
ATOM     22  C   UNL     1      51.106  20.705  21.045  0.00  0.00    +0.025 C 
ATOM     23  C   UNL     1      51.791  20.574  22.403  0.00  0.00    +0.184 C 
ATOM     24  O   UNL     1      51.107  21.766  22.009  0.00  0.00    -0.334 OA
ATOM     25  C   UNL     1      51.978  20.894  19.807  0.00  0.00    +0.022 C 
ATOM     26  C   UNL     1      52.164  19.549  19.088  0.00  0.00    +0.189 C 
ATOM     29  C   UNL     1      50.791  18.958  18.762  0.00  0.00    +0.026 C 
ENDROOT
BRANCH   5   6
ATOM      6  O   UNL     1      49.825  15.790  16.955  0.00  0.00    -0.563 OA
ATOM      7  H   UNL     1      50.068  15.918  16.027  0.00  0.00    +0.374 HD
ENDBRANCH   5   6
BRANCH  26  27
ATOM     27  O   UNL     1      52.922  19.804  17.901  0.00  0.00    -0.554 OA
ATOM     28  H   UNL     1      53.618  19.154  17.732  0.00  0.00    +0.375 HD
ENDBRANCH  26  27
BRANCH  11  12
ATOM     12  C   UNL     1      48.807  20.887  20.084  0.00  0.00    +0.078 C 
BRANCH  12  13
ATOM     13  C   UNL     1      47.772  21.405  21.051  0.00  0.00    +0.150 C 
ATOM     14  C   UNL     1      46.513  21.570  20.651  0.00  0.00    -0.241 C 
ATOM     15  C   UNL     1      45.343  22.083  21.475  0.00  0.00    +0.200 C 
ATOM     18  C   UNL     1      44.173  22.069  20.468  0.00  0.00    +0.231 C 
ATOM     19  O   UNL     1      44.804  21.996  19.178  0.00  0.00    -0.336 OA
ATOM     20  C   UNL     1      45.954  21.303  19.312  0.00  0.00    +0.518 C 
ATOM     21  O   UNL     1      46.444  20.575  18.469  0.00  0.00    -0.443 OA
BRANCH  15  16
ATOM     16  O   UNL     1      45.596  23.409  21.941  0.00  0.00    -0.540 OA
ATOM     17  H   UNL     1      46.526  23.669  21.903  0.00  0.00    +0.382 HD
ENDBRANCH  15  16
ENDBRANCH  12  13
ENDBRANCH  11  12
TORSDOF 5
ENDMDL
MODEL 8
REMARK VINA RESULT:      -5.3      2.551      6.569
REMARK  Name = ZINC95486146
REMARK  8 active torsions:
REMARK  status: ('A' for Active; 'I' for Inactive)
REMARK    1  A    between atoms: C1_1  and  C2_2
REMARK    2  A    between atoms: C5_5  and  O6_31
REMARK    3  A    between atoms: C6_7  and  C19_29
REMARK    4  A    between atoms: C6_7  and  C20_30
REMARK    5  A    between atoms: C8_10  and  O5_28
REMARK    6  A    between atoms: C11_14  and  C12_16
REMARK    7  A    between atoms: C12_16  and  C13_17
REMARK    8  A    between atoms: C15_19  and  O3_25
REMARK                            x       y       z     vdW  Elec       q    Type
REMARK                         _______ _______ _______ _____ _____    ______ ____
ROOT
ATOM      1  C   UNL     1      45.562  20.074  22.165  0.00  0.00    +0.033 C 
ATOM      2  C   UNL     1      46.206  20.434  20.815  0.00  0.00    -0.032 C 
ATOM      3  C   UNL     1      47.565  21.078  21.089  0.00  0.00    +0.034 C 
ATOM      4  C   UNL     1      47.357  22.386  21.856  0.00  0.00    -0.012 C 
ATOM      5  C   UNL     1      46.579  23.351  20.971  0.00  0.00    +0.164 C 
ATOM      8  C   UNL     1      45.232  22.784  20.526  0.00  0.00    -0.033 C 
ATOM      9  C   UNL     1      44.771  23.709  19.371  0.00  0.00    +0.030 C 
ATOM     10  C   UNL     1      44.217  22.935  21.660  0.00  0.00    +0.035 C 
ATOM     11  C   UNL     1      46.424  19.113  20.060  0.00  0.00    +0.036 C 
ATOM     22  C   UNL     1      45.071  18.495  19.705  0.00  0.00    +0.025 C 
ATOM     23  C   UNL     1      44.529  17.372  20.584  0.00  0.00    +0.184 C 
ATOM     24  O   UNL     1      45.075  17.125  19.286  0.00  0.00    -0.334 OA
ATOM     25  C   UNL     1      44.075  19.427  19.019  0.00  0.00    +0.022 C 
ATOM     26  C   UNL     1      43.932  20.726  19.826  0.00  0.00    +0.189 C 
ATOM     29  C   UNL     1      45.312  21.362  20.005  0.00  0.00    +0.026 C 
ENDROOT
BRANCH   5   6
ATOM      6  O   UNL     1      46.357  24.575  21.684  0.00  0.00    -0.563 OA
ATOM      7  H   UNL     1      45.467  24.659  22.052  0.00  0.00    +0.374 HD
ENDBRANCH   5   6
BRANCH  26  27
ATOM     27  O   UNL     1      43.048  21.583  19.097  0.00  0.00    -0.554 OA
ATOM     28  H   UNL     1      42.598  22.241  19.644  0.00  0.00    +0.375 HD
ENDBRANCH  26  27
BRANCH  11  12
ATOM     12  C   UNL     1      47.247  19.316  18.792  0.00  0.00    +0.078 C 
BRANCH  12  13
ATOM     13  C   UNL     1      48.566  18.597  18.929  0.00  0.00    +0.150 C 
ATOM     14  C   UNL     1      48.819  17.525  18.182  0.00  0.00    -0.241 C 
ATOM     15  C   UNL     1      50.079  16.673  18.186  0.00  0.00    +0.200 C 
ATOM     18  C   UNL     1      49.768  15.583  17.138  0.00  0.00    +0.231 C 
ATOM     19  O   UNL     1      48.340  15.629  16.979  0.00  0.00    -0.336 OA
ATOM     20  C   UNL     1      47.936  16.900  17.179  0.00  0.00    +0.518 C 
ATOM     21  O   UNL     1      47.001  17.442  16.620  0.00  0.00    -0.443 OA
BRANCH  15  16
ATOM     16  O   UNL     1      50.293  16.093  19.474  0.00  0.00    -0.540 OA
ATOM     17  H   UNL     1      50.313  15.127  19.472  0.00  0.00    +0.382 HD
ENDBRANCH  15  16
ENDBRANCH  12  13
ENDBRANCH  11  12
TORSDOF 5
ENDMDL
MODEL 9
REMARK VINA RESULT:      -5.2      2.019      3.690
REMARK  Name = ZINC95486146
REMARK  8 active torsions:
REMARK  status: ('A' for Active; 'I' for Inactive)
REMARK    1  A    between atoms: C1_1  and  C2_2
REMARK    2  A    between atoms: C5_5  and  O6_31
REMARK    3  A    between atoms: C6_7  and  C19_29
REMARK    4  A    between atoms: C6_7  and  C20_30
REMARK    5  A    between atoms: C8_10  and  O5_28
REMARK    6  A    between atoms: C11_14  and  C12_16
REMARK    7  A    between atoms: C12_16  and  C13_17
REMARK    8  A    between atoms: C15_19  and  O3_25
REMARK                            x       y       z     vdW  Elec       q    Type
REMARK                         _______ _______ _______ _____ _____    ______ ____
ROOT
ATOM      1  C   UNL     1      51.483  18.197  20.371  0.00  0.00    +0.033 C 
ATOM      2  C   UNL     1      50.232  17.998  19.499  0.00  0.00    -0.032 C 
ATOM      3  C   UNL     1      49.164  17.305  20.344  0.00  0.00    +0.034 C 
ATOM      4  C   UNL     1      49.663  15.915  20.745  0.00  0.00    -0.012 C 
ATOM      5  C   UNL     1      49.843  15.079  19.485  0.00  0.00    +0.164 C 
ATOM      8  C   UNL     1      50.812  15.717  18.491  0.00  0.00    -0.033 C 
ATOM      9  C   UNL     1      50.585  14.950  17.163  0.00  0.00    +0.030 C 
ATOM     10  C   UNL     1      52.250  15.442  18.933  0.00  0.00    +0.035 C 
ATOM     11  C   UNL     1      49.731  19.399  19.115  0.00  0.00    +0.036 C 
ATOM     22  C   UNL     1      50.752  20.077  18.200  0.00  0.00    +0.025 C 
ATOM     23  C   UNL     1      51.717  21.090  18.809  0.00  0.00    +0.184 C 
ATOM     24  O   UNL     1      50.608  21.488  18.001  0.00  0.00    -0.334 OA
ATOM     25  C   UNL     1      51.223  19.253  17.004  0.00  0.00    +0.022 C 
ATOM     26  C   UNL     1      51.686  17.866  17.474  0.00  0.00    +0.189 C 
ATOM     29  C   UNL     1      50.553  17.192  18.249  0.00  0.00    +0.026 C 
ENDROOT
BRANCH   5   6
ATOM      6  O   UNL     1      50.332  13.780  19.843  0.00  0.00    -0.563 OA
ATOM      7  H   UNL     1      51.290  13.742  19.975  0.00  0.00    +0.374 HD
ENDBRANCH   5   6
BRANCH  26  27
ATOM     27  O   UNL     1      52.042  17.120  16.305  0.00  0.00    -0.554 OA
ATOM     28  H   UNL     1      52.017  17.635  15.487  0.00  0.00    +0.375 HD
ENDBRANCH  26  27
BRANCH  11  12
ATOM     12  C   UNL     1      48.374  19.343  18.420  0.00  0.00    +0.078 C 
BRANCH  12  13
ATOM     13  C   UNL     1      47.481  20.424  18.974  0.00  0.00    +0.150 C 
ATOM     14  C   UNL     1      46.160  20.265  18.963  0.00  0.00    -0.241 C 
ATOM     15  C   UNL     1      45.108  21.241  19.467  0.00  0.00    +0.200 C 
ATOM     18  C   UNL     1      43.781  20.512  19.167  0.00  0.00    +0.231 C 
ATOM     19  O   UNL     1      44.131  19.501  18.206  0.00  0.00    -0.336 OA
ATOM     20  C   UNL     1      45.398  19.109  18.451  0.00  0.00    +0.518 C 
ATOM     21  O   UNL     1      45.838  17.988  18.283  0.00  0.00    -0.443 OA
BRANCH  15  16
ATOM     16  O   UNL     1      45.182  22.477  18.755  0.00  0.00    -0.540 OA
ATOM     17  H   UNL     1      46.001  22.968  18.903  0.00  0.00    +0.382 HD
ENDBRANCH  15  16
ENDBRANCH  12  13
ENDBRANCH  11  12
TORSDOF 5
ENDMDL
