MODEL 1
REMARK VINA RESULT:      -6.9      0.000      0.000
REMARK  Name = ZINC95486206
REMARK  5 active torsions:
REMARK  status: ('A' for Active; 'I' for Inactive)
REMARK    1  A    between atoms: C1_1  and  C2_2
REMARK    2  A    between atoms: C4_5  and  O3_26
REMARK    3  A    between atoms: C7_8  and  C11_13
REMARK    4  A    between atoms: C14_16  and  O2_24
REMARK    5  A    between atoms: O2_24  and  C21_25
REMARK                            x       y       z     vdW  Elec       q    Type
REMARK                         _______ _______ _______ _____ _____    ______ ____
ROOT
ATOM      1  C   UNL     1      45.303  23.712  20.577  0.00  0.00    +0.053 C 
ATOM      2  C   UNL     1      45.294  22.195  20.386  0.00  0.00    +0.175 C 
ATOM      3  C   UNL     1      46.676  21.654  20.638  0.00  0.00    -0.098 A 
ATOM      4  C   UNL     1      47.398  22.159  21.717  0.00  0.00    +0.115 A 
ATOM      7  C   UNL     1      48.674  21.691  21.993  0.00  0.00    -0.015 A 
ATOM      8  C   UNL     1      49.236  20.715  21.195  0.00  0.00    +0.040 A 
ATOM      9  C   UNL     1      48.519  20.209  20.115  0.00  0.00    -0.052 A 
ATOM     23  C   UNL     1      47.235  20.685  19.837  0.00  0.00    -0.037 A 
ATOM     24  C   UNL     1      46.498  20.117  18.651  0.00  0.00    +0.088 C 
ATOM     25  C   UNL     1      45.008  20.441  18.757  0.00  0.00    +0.170 C 
ATOM     26  N   UNL     1      44.862  21.882  19.019  0.00  0.00    -0.681 NA
ATOM     27  H   UNL     1      43.912  22.183  18.863  0.00  0.00    +0.348 HD
ENDROOT
BRANCH   9  10
ATOM     10  C   UNL     1      49.121  19.160  19.255  0.00  0.00    -0.101 A 
ATOM     11  C   UNL     1      48.806  17.817  19.472  0.00  0.00    +0.105 A 
ATOM     12  C   UNL     1      49.358  16.832  18.682  0.00  0.00    -0.089 A 
ATOM     13  C   UNL     1      50.235  17.172  17.661  0.00  0.00    +0.189 A 
ATOM     16  C   UNL     1      50.560  18.519  17.438  0.00  0.00    -0.205 A 
ATOM     17  C   UNL     1      51.501  18.874  16.363  0.00  0.00    +0.398 C 
ATOM     18  O   UNL     1      52.160  18.026  15.800  0.00  0.00    -0.437 OA
ATOM     19  C   UNL     1      51.605  20.337  15.973  0.00  0.00    +0.032 C 
ATOM     20  C   UNL     1      51.630  21.150  17.275  0.00  0.00    +0.038 C 
ATOM     21  C   UNL     1      50.304  20.973  18.009  0.00  0.00    +0.088 C 
ATOM     22  C   UNL     1      49.995  19.518  18.232  0.00  0.00    +0.022 A 
BRANCH  13  14
ATOM     14  O   UNL     1      50.778  16.203  16.883  0.00  0.00    -0.288 OA
ATOM     15  C   UNL     1      50.212  14.895  16.986  0.00  0.00    +0.243 C 
ENDBRANCH  13  14
ENDBRANCH   9  10
BRANCH   4   5
ATOM      5  O   UNL     1      46.848  23.120  22.505  0.00  0.00    -0.490 OA
ATOM      6  H   UNL     1      46.266  22.775  23.196  0.00  0.00    +0.387 HD
ENDBRANCH   4   5
TORSDOF 3
ENDMDL
MODEL 2
REMARK VINA RESULT:      -6.8      3.610      5.125
REMARK  Name = ZINC95486206
REMARK  5 active torsions:
REMARK  status: ('A' for Active; 'I' for Inactive)
REMARK    1  A    between atoms: C1_1  and  C2_2
REMARK    2  A    between atoms: C4_5  and  O3_26
REMARK    3  A    between atoms: C7_8  and  C11_13
REMARK    4  A    between atoms: C14_16  and  O2_24
REMARK    5  A    between atoms: O2_24  and  C21_25
REMARK                            x       y       z     vdW  Elec       q    Type
REMARK                         _______ _______ _______ _____ _____    ______ ____
ROOT
ATOM      1  C   UNL     1      43.118  24.152  19.050  0.00  0.00    +0.053 C 
ATOM      2  C   UNL     1      42.817  22.724  19.507  0.00  0.00    +0.175 C 
ATOM      3  C   UNL     1      44.112  21.985  19.717  0.00  0.00    -0.098 A 
ATOM      4  C   UNL     1      45.160  22.652  20.347  0.00  0.00    +0.115 A 
ATOM      7  C   UNL     1      46.371  22.014  20.566  0.00  0.00    -0.015 A 
ATOM      8  C   UNL     1      46.543  20.707  20.159  0.00  0.00    +0.040 A 
ATOM      9  C   UNL     1      45.500  20.037  19.527  0.00  0.00    -0.052 A 
ATOM     23  C   UNL     1      44.281  20.684  19.305  0.00  0.00    -0.037 A 
ATOM     24  C   UNL     1      43.181  19.925  18.607  0.00  0.00    +0.088 C 
ATOM     25  C   UNL     1      41.841  20.627  18.826  0.00  0.00    +0.170 C 
ATOM     26  N   UNL     1      42.001  22.051  18.490  0.00  0.00    -0.681 NA
ATOM     27  H   UNL     1      41.104  22.502  18.391  0.00  0.00    +0.348 HD
ENDROOT
BRANCH   9  10
ATOM     10  C   UNL     1      45.683  18.631  19.088  0.00  0.00    -0.101 A 
ATOM     11  C   UNL     1      46.211  18.361  17.824  0.00  0.00    +0.105 A 
ATOM     12  C   UNL     1      46.386  17.060  17.403  0.00  0.00    -0.089 A 
ATOM     13  C   UNL     1      46.035  16.008  18.237  0.00  0.00    +0.189 A 
ATOM     16  C   UNL     1      45.500  16.271  19.508  0.00  0.00    -0.205 A 
ATOM     17  C   UNL     1      45.115  15.152  20.384  0.00  0.00    +0.398 C 
ATOM     18  O   UNL     1      45.057  14.016  19.963  0.00  0.00    -0.437 OA
ATOM     19  C   UNL     1      44.813  15.468  21.837  0.00  0.00    +0.032 C 
ATOM     20  C   UNL     1      43.960  16.744  21.853  0.00  0.00    +0.038 C 
ATOM     21  C   UNL     1      44.779  17.908  21.301  0.00  0.00    +0.088 C 
ATOM     22  C   UNL     1      45.330  17.588  19.939  0.00  0.00    +0.022 A 
BRANCH  13  14
ATOM     14  O   UNL     1      46.208  14.728  17.824  0.00  0.00    -0.288 OA
ATOM     15  C   UNL     1      47.327  14.465  16.976  0.00  0.00    +0.243 C 
ENDBRANCH  13  14
ENDBRANCH   9  10
BRANCH   4   5
ATOM      5  O   UNL     1      44.994  23.939  20.750  0.00  0.00    -0.490 OA
ATOM      6  H   UNL     1      45.688  24.257  21.344  0.00  0.00    +0.387 HD
ENDBRANCH   4   5
TORSDOF 3
ENDMDL
MODEL 3
REMARK VINA RESULT:      -6.6      3.425      4.678
REMARK  Name = ZINC95486206
REMARK  5 active torsions:
REMARK  status: ('A' for Active; 'I' for Inactive)
REMARK    1  A    between atoms: C1_1  and  C2_2
REMARK    2  A    between atoms: C4_5  and  O3_26
REMARK    3  A    between atoms: C7_8  and  C11_13
REMARK    4  A    between atoms: C14_16  and  O2_24
REMARK    5  A    between atoms: O2_24  and  C21_25
REMARK                            x       y       z     vdW  Elec       q    Type
REMARK                         _______ _______ _______ _____ _____    ______ ____
ROOT
ATOM      1  C   UNL     1      43.397  24.145  18.723  0.00  0.00    +0.053 C 
ATOM      2  C   UNL     1      42.843  22.930  19.471  0.00  0.00    +0.175 C 
ATOM      3  C   UNL     1      43.987  22.107  19.998  0.00  0.00    -0.098 A 
ATOM      4  C   UNL     1      45.073  22.769  20.568  0.00  0.00    +0.115 A 
ATOM      7  C   UNL     1      46.149  22.055  21.070  0.00  0.00    -0.015 A 
ATOM      8  C   UNL     1      46.149  20.677  21.010  0.00  0.00    +0.040 A 
ATOM      9  C   UNL     1      45.069  20.011  20.440  0.00  0.00    -0.052 A 
ATOM     23  C   UNL     1      43.986  20.733  19.931  0.00  0.00    -0.037 A 
ATOM     24  C   UNL     1      42.841  19.972  19.312  0.00  0.00    +0.088 C 
ATOM     25  C   UNL     1      41.612  20.876  19.202  0.00  0.00    +0.170 C 
ATOM     26  N   UNL     1      42.016  22.135  18.557  0.00  0.00    -0.681 NA
ATOM     27  H   UNL     1      41.211  22.659  18.250  0.00  0.00    +0.348 HD
ENDROOT
BRANCH   9  10
ATOM     10  C   UNL     1      45.066  18.528  20.373  0.00  0.00    -0.101 A 
ATOM     11  C   UNL     1      44.505  17.786  21.414  0.00  0.00    +0.105 A 
ATOM     12  C   UNL     1      44.495  16.409  21.366  0.00  0.00    -0.089 A 
ATOM     13  C   UNL     1      45.049  15.749  20.277  0.00  0.00    +0.189 A 
ATOM     16  C   UNL     1      45.618  16.487  19.228  0.00  0.00    -0.205 A 
ATOM     17  C   UNL     1      46.216  15.784  18.081  0.00  0.00    +0.398 C 
ATOM     18  O   UNL     1      46.413  14.587  18.112  0.00  0.00    -0.437 OA
ATOM     19  C   UNL     1      46.560  16.605  16.853  0.00  0.00    +0.032 C 
ATOM     20  C   UNL     1      47.216  17.902  17.346  0.00  0.00    +0.038 C 
ATOM     21  C   UNL     1      46.203  18.706  18.156  0.00  0.00    +0.088 C 
ATOM     22  C   UNL     1      45.620  17.883  19.271  0.00  0.00    +0.022 A 
BRANCH  13  14
ATOM     14  O   UNL     1      45.039  14.394  20.228  0.00  0.00    -0.288 OA
ATOM     15  C   UNL     1      45.402  13.699  21.423  0.00  0.00    +0.243 C 
ENDBRANCH  13  14
ENDBRANCH   9  10
BRANCH   4   5
ATOM      5  O   UNL     1      45.077  24.127  20.630  0.00  0.00    -0.490 OA
ATOM      6  H   UNL     1      45.435  24.555  19.841  0.00  0.00    +0.387 HD
ENDBRANCH   4   5
TORSDOF 3
ENDMDL
MODEL 4
REMARK VINA RESULT:      -6.2      3.103      4.300
REMARK  Name = ZINC95486206
REMARK  5 active torsions:
REMARK  status: ('A' for Active; 'I' for Inactive)
REMARK    1  A    between atoms: C1_1  and  C2_2
REMARK    2  A    between atoms: C4_5  and  O3_26
REMARK    3  A    between atoms: C7_8  and  C11_13
REMARK    4  A    between atoms: C14_16  and  O2_24
REMARK    5  A    between atoms: O2_24  and  C21_25
REMARK                            x       y       z     vdW  Elec       q    Type
REMARK                         _______ _______ _______ _____ _____    ______ ____
ROOT
ATOM      1  C   UNL     1      40.948  18.114  21.583  0.00  0.00    +0.053 C 
ATOM      2  C   UNL     1      42.449  18.266  21.835  0.00  0.00    +0.175 C 
ATOM      3  C   UNL     1      43.112  18.792  20.590  0.00  0.00    -0.098 A 
ATOM      4  C   UNL     1      42.476  19.808  19.879  0.00  0.00    +0.115 A 
ATOM      7  C   UNL     1      43.048  20.327  18.729  0.00  0.00    -0.015 A 
ATOM      8  C   UNL     1      44.258  19.838  18.280  0.00  0.00    +0.040 A 
ATOM      9  C   UNL     1      44.896  18.822  18.985  0.00  0.00    -0.052 A 
ATOM     23  C   UNL     1      44.316  18.298  20.144  0.00  0.00    -0.037 A 
ATOM     24  C   UNL     1      45.035  17.191  20.871  0.00  0.00    +0.088 C 
ATOM     25  C   UNL     1      44.479  17.048  22.288  0.00  0.00    +0.170 C 
ATOM     26  N   UNL     1      43.012  16.964  22.206  0.00  0.00    -0.681 NA
ATOM     27  H   UNL     1      42.620  16.635  23.075  0.00  0.00    +0.348 HD
ENDROOT
BRANCH   9  10
ATOM     10  C   UNL     1      46.197  18.294  18.506  0.00  0.00    -0.101 A 
ATOM     11  C   UNL     1      46.241  17.091  17.798  0.00  0.00    +0.105 A 
ATOM     12  C   UNL     1      47.442  16.589  17.346  0.00  0.00    -0.089 A 
ATOM     13  C   UNL     1      48.621  17.279  17.596  0.00  0.00    +0.189 A 
ATOM     16  C   UNL     1      48.586  18.487  18.310  0.00  0.00    -0.205 A 
ATOM     17  C   UNL     1      49.839  19.210  18.584  0.00  0.00    +0.398 C 
ATOM     18  O   UNL     1      50.918  18.690  18.390  0.00  0.00    -0.437 OA
ATOM     19  C   UNL     1      49.733  20.632  19.100  0.00  0.00    +0.032 C 
ATOM     20  C   UNL     1      48.627  20.645  20.164  0.00  0.00    +0.038 C 
ATOM     21  C   UNL     1      47.291  20.303  19.509  0.00  0.00    +0.088 C 
ATOM     22  C   UNL     1      47.369  19.002  18.759  0.00  0.00    +0.022 A 
BRANCH  13  14
ATOM     14  O   UNL     1      49.803  16.786  17.151  0.00  0.00    -0.288 OA
ATOM     15  C   UNL     1      49.966  15.367  17.179  0.00  0.00    +0.243 C 
ENDBRANCH  13  14
ENDBRANCH   9  10
BRANCH   4   5
ATOM      5  O   UNL     1      41.284  20.292  20.318  0.00  0.00    -0.490 OA
ATOM      6  H   UNL     1      41.365  21.010  20.961  0.00  0.00    +0.387 HD
ENDBRANCH   4   5
TORSDOF 3
ENDMDL
MODEL 5
REMARK VINA RESULT:      -6.1      3.640      5.370
REMARK  Name = ZINC95486206
REMARK  5 active torsions:
REMARK  status: ('A' for Active; 'I' for Inactive)
REMARK    1  A    between atoms: C1_1  and  C2_2
REMARK    2  A    between atoms: C4_5  and  O3_26
REMARK    3  A    between atoms: C7_8  and  C11_13
REMARK    4  A    between atoms: C14_16  and  O2_24
REMARK    5  A    between atoms: O2_24  and  C21_25
REMARK                            x       y       z     vdW  Elec       q    Type
REMARK                         _______ _______ _______ _____ _____    ______ ____
ROOT
ATOM      1  C   UNL     1      45.120  23.720  21.083  0.00  0.00    +0.053 C 
ATOM      2  C   UNL     1      45.873  22.539  20.467  0.00  0.00    +0.175 C 
ATOM      3  C   UNL     1      44.897  21.438  20.149  0.00  0.00    -0.098 A 
ATOM      4  C   UNL     1      43.672  21.783  19.582  0.00  0.00    +0.115 A 
ATOM      7  C   UNL     1      42.741  20.804  19.269  0.00  0.00    -0.015 A 
ATOM      8  C   UNL     1      43.027  19.477  19.516  0.00  0.00    +0.040 A 
ATOM      9  C   UNL     1      44.249  19.129  20.084  0.00  0.00    -0.052 A 
ATOM     23  C   UNL     1      45.184  20.117  20.402  0.00  0.00    -0.037 A 
ATOM     24  C   UNL     1      46.491  19.697  21.026  0.00  0.00    +0.088 C 
ATOM     25  C   UNL     1      47.512  20.829  20.914  0.00  0.00    +0.170 C 
ATOM     26  N   UNL     1      46.891  22.067  21.412  0.00  0.00    -0.681 NA
ATOM     27  H   UNL     1      47.586  22.778  21.580  0.00  0.00    +0.348 HD
ENDROOT
BRANCH   9  10
ATOM     10  C   UNL     1      44.559  17.702  20.352  0.00  0.00    -0.101 A 
ATOM     11  C   UNL     1      44.130  17.109  21.540  0.00  0.00    +0.105 A 
ATOM     12  C   UNL     1      44.410  15.785  21.802  0.00  0.00    -0.089 A 
ATOM     13  C   UNL     1      45.127  15.033  20.882  0.00  0.00    +0.189 A 
ATOM     16  C   UNL     1      45.566  15.623  19.686  0.00  0.00    -0.205 A 
ATOM     17  C   UNL     1      46.337  14.825  18.718  0.00  0.00    +0.398 C 
ATOM     18  O   UNL     1      46.780  13.735  19.015  0.00  0.00    -0.437 OA
ATOM     19  C   UNL     1      46.544  15.407  17.333  0.00  0.00    +0.032 C 
ATOM     20  C   UNL     1      46.897  16.890  17.514  0.00  0.00    +0.038 C 
ATOM     21  C   UNL     1      45.710  17.621  18.136  0.00  0.00    +0.088 C 
ATOM     22  C   UNL     1      45.274  16.961  19.415  0.00  0.00    +0.022 A 
BRANCH  13  14
ATOM     14  O   UNL     1      45.403  13.730  21.139  0.00  0.00    -0.288 OA
ATOM     15  C   UNL     1      45.085  13.244  22.444  0.00  0.00    +0.243 C 
ENDBRANCH  13  14
ENDBRANCH   9  10
BRANCH   4   5
ATOM      5  O   UNL     1      43.386  23.088  19.336  0.00  0.00    -0.490 OA
ATOM      6  H   UNL     1      43.015  23.250  18.458  0.00  0.00    +0.387 HD
ENDBRANCH   4   5
TORSDOF 3
ENDMDL
MODEL 6
REMARK VINA RESULT:      -6.1      3.575      5.640
REMARK  Name = ZINC95486206
REMARK  5 active torsions:
REMARK  status: ('A' for Active; 'I' for Inactive)
REMARK    1  A    between atoms: C1_1  and  C2_2
REMARK    2  A    between atoms: C4_5  and  O3_26
REMARK    3  A    between atoms: C7_8  and  C11_13
REMARK    4  A    between atoms: C14_16  and  O2_24
REMARK    5  A    between atoms: O2_24  and  C21_25
REMARK                            x       y       z     vdW  Elec       q    Type
REMARK                         _______ _______ _______ _____ _____    ______ ____
ROOT
ATOM      1  C   UNL     1      45.296  23.485  21.710  0.00  0.00    +0.053 C 
ATOM      2  C   UNL     1      46.065  22.635  20.697  0.00  0.00    +0.175 C 
ATOM      3  C   UNL     1      45.157  21.565  20.153  0.00  0.00    -0.098 A 
ATOM      4  C   UNL     1      43.844  21.909  19.836  0.00  0.00    +0.115 A 
ATOM      7  C   UNL     1      42.970  20.960  19.329  0.00  0.00    -0.015 A 
ATOM      8  C   UNL     1      43.399  19.663  19.135  0.00  0.00    +0.040 A 
ATOM      9  C   UNL     1      44.708  19.314  19.453  0.00  0.00    -0.052 A 
ATOM     23  C   UNL     1      45.587  20.272  19.967  0.00  0.00    -0.037 A 
ATOM     24  C   UNL     1      46.993  19.849  20.308  0.00  0.00    +0.088 C 
ATOM     25  C   UNL     1      47.889  21.079  20.449  0.00  0.00    +0.170 C 
ATOM     26  N   UNL     1      47.231  22.034  21.354  0.00  0.00    -0.681 NA
ATOM     27  H   UNL     1      47.877  22.744  21.663  0.00  0.00    +0.348 HD
ENDROOT
BRANCH   9  10
ATOM     10  C   UNL     1      45.173  17.919  19.246  0.00  0.00    -0.101 A 
ATOM     11  C   UNL     1      45.792  17.564  18.047  0.00  0.00    +0.105 A 
ATOM     12  C   UNL     1      46.228  16.273  17.840  0.00  0.00    -0.089 A 
ATOM     13  C   UNL     1      46.051  15.315  18.829  0.00  0.00    +0.189 A 
ATOM     16  C   UNL     1      45.426  15.663  20.036  0.00  0.00    -0.205 A 
ATOM     17  C   UNL     1      45.228  14.640  21.077  0.00  0.00    +0.398 C 
ATOM     18  O   UNL     1      45.404  13.463  20.842  0.00  0.00    -0.437 OA
ATOM     19  C   UNL     1      44.814  15.113  22.458  0.00  0.00    +0.032 C 
ATOM     20  C   UNL     1      43.734  16.185  22.263  0.00  0.00    +0.038 C 
ATOM     21  C   UNL     1      44.337  17.386  21.539  0.00  0.00    +0.088 C 
ATOM     22  C   UNL     1      44.992  16.972  20.250  0.00  0.00    +0.022 A 
BRANCH  13  14
ATOM     14  O   UNL     1      46.480  14.044  18.626  0.00  0.00    -0.288 OA
ATOM     15  C   UNL     1      47.844  13.875  18.236  0.00  0.00    +0.243 C 
ENDBRANCH  13  14
ENDBRANCH   9  10
BRANCH   4   5
ATOM      5  O   UNL     1      43.418  23.185  20.025  0.00  0.00    -0.490 OA
ATOM      6  H   UNL     1      43.771  23.816  19.383  0.00  0.00    +0.387 HD
ENDBRANCH   4   5
TORSDOF 3
ENDMDL
MODEL 7
REMARK VINA RESULT:      -6.1      3.189      7.004
REMARK  Name = ZINC95486206
REMARK  5 active torsions:
REMARK  status: ('A' for Active; 'I' for Inactive)
REMARK    1  A    between atoms: C1_1  and  C2_2
REMARK    2  A    between atoms: C4_5  and  O3_26
REMARK    3  A    between atoms: C7_8  and  C11_13
REMARK    4  A    between atoms: C14_16  and  O2_24
REMARK    5  A    between atoms: O2_24  and  C21_25
REMARK                            x       y       z     vdW  Elec       q    Type
REMARK                         _______ _______ _______ _____ _____    ______ ____
ROOT
ATOM      1  C   UNL     1      51.808  20.091  17.497  0.00  0.00    +0.053 C 
ATOM      2  C   UNL     1      50.959  19.754  18.724  0.00  0.00    +0.175 C 
ATOM      3  C   UNL     1      49.794  18.900  18.303  0.00  0.00    -0.098 A 
ATOM      4  C   UNL     1      50.019  17.880  17.381  0.00  0.00    +0.115 A 
ATOM      7  C   UNL     1      48.979  17.064  16.964  0.00  0.00    -0.015 A 
ATOM      8  C   UNL     1      47.708  17.259  17.466  0.00  0.00    +0.040 A 
ATOM      9  C   UNL     1      47.478  18.278  18.386  0.00  0.00    -0.052 A 
ATOM     23  C   UNL     1      48.527  19.101  18.802  0.00  0.00    -0.037 A 
ATOM     24  C   UNL     1      48.232  20.199  19.791  0.00  0.00    +0.088 C 
ATOM     25  C   UNL     1      49.532  20.699  20.421  0.00  0.00    +0.170 C 
ATOM     26  N   UNL     1      50.487  20.998  19.342  0.00  0.00    -0.681 NA
ATOM     27  H   UNL     1      51.261  21.546  19.687  0.00  0.00    +0.348 HD
ENDROOT
BRANCH   9  10
ATOM     10  C   UNL     1      46.112  18.490  18.927  0.00  0.00    -0.101 A 
ATOM     11  C   UNL     1      45.291  19.474  18.375  0.00  0.00    +0.105 A 
ATOM     12  C   UNL     1      44.020  19.682  18.867  0.00  0.00    -0.089 A 
ATOM     13  C   UNL     1      43.550  18.911  19.921  0.00  0.00    +0.189 A 
ATOM     16  C   UNL     1      44.370  17.921  20.484  0.00  0.00    -0.205 A 
ATOM     17  C   UNL     1      43.873  17.114  21.610  0.00  0.00    +0.398 C 
ATOM     18  O   UNL     1      42.855  17.416  22.197  0.00  0.00    -0.437 OA
ATOM     19  C   UNL     1      44.668  15.881  21.998  0.00  0.00    +0.032 C 
ATOM     20  C   UNL     1      46.151  16.275  21.971  0.00  0.00    +0.038 C 
ATOM     21  C   UNL     1      46.553  16.638  20.545  0.00  0.00    +0.088 C 
ATOM     22  C   UNL     1      45.654  17.703  19.980  0.00  0.00    +0.022 A 
BRANCH  13  14
ATOM     14  O   UNL     1      42.300  19.114  20.405  0.00  0.00    -0.288 OA
ATOM     15  C   UNL     1      41.321  19.610  19.489  0.00  0.00    +0.243 C 
ENDBRANCH  13  14
ENDBRANCH   9  10
BRANCH   4   5
ATOM      5  O   UNL     1      51.269  17.685  16.884  0.00  0.00    -0.490 OA
ATOM      6  H   UNL     1      51.658  18.472  16.480  0.00  0.00    +0.387 HD
ENDBRANCH   4   5
TORSDOF 3
ENDMDL
MODEL 8
REMARK VINA RESULT:      -5.8      1.573      3.057
REMARK  Name = ZINC95486206
REMARK  5 active torsions:
REMARK  status: ('A' for Active; 'I' for Inactive)
REMARK    1  A    between atoms: C1_1  and  C2_2
REMARK    2  A    between atoms: C4_5  and  O3_26
REMARK    3  A    between atoms: C7_8  and  C11_13
REMARK    4  A    between atoms: C14_16  and  O2_24
REMARK    5  A    between atoms: O2_24  and  C21_25
REMARK                            x       y       z     vdW  Elec       q    Type
REMARK                         _______ _______ _______ _____ _____    ______ ____
ROOT
ATOM      1  C   UNL     1      43.033  22.234  19.887  0.00  0.00    +0.053 C 
ATOM      2  C   UNL     1      43.856  20.946  19.848  0.00  0.00    +0.175 C 
ATOM      3  C   UNL     1      45.256  21.235  20.318  0.00  0.00    -0.098 A 
ATOM      4  C   UNL     1      45.426  22.070  21.420  0.00  0.00    +0.115 A 
ATOM      7  C   UNL     1      46.695  22.365  21.893  0.00  0.00    -0.015 A 
ATOM      8  C   UNL     1      47.803  21.827  21.270  0.00  0.00    +0.040 A 
ATOM      9  C   UNL     1      47.639  20.994  20.167  0.00  0.00    -0.052 A 
ATOM     23  C   UNL     1      46.358  20.702  19.691  0.00  0.00    -0.037 A 
ATOM     24  C   UNL     1      46.226  19.804  18.487  0.00  0.00    +0.088 C 
ATOM     25  C   UNL     1      44.794  19.280  18.380  0.00  0.00    +0.170 C 
ATOM     26  N   UNL     1      43.872  20.422  18.478  0.00  0.00    -0.681 NA
ATOM     27  H   UNL     1      42.943  20.164  18.180  0.00  0.00    +0.348 HD
ENDROOT
BRANCH   9  10
ATOM     10  C   UNL     1      48.829  20.415  19.495  0.00  0.00    -0.101 A 
ATOM     11  C   UNL     1      49.504  21.152  18.520  0.00  0.00    +0.105 A 
ATOM     12  C   UNL     1      50.610  20.626  17.888  0.00  0.00    -0.089 A 
ATOM     13  C   UNL     1      51.059  19.355  18.217  0.00  0.00    +0.189 A 
ATOM     16  C   UNL     1      50.384  18.606  19.193  0.00  0.00    -0.205 A 
ATOM     17  C   UNL     1      50.855  17.252  19.531  0.00  0.00    +0.398 C 
ATOM     18  O   UNL     1      51.683  16.687  18.847  0.00  0.00    -0.437 OA
ATOM     19  C   UNL     1      50.282  16.597  20.773  0.00  0.00    +0.032 C 
ATOM     20  C   UNL     1      48.772  16.874  20.774  0.00  0.00    +0.038 C 
ATOM     21  C   UNL     1      48.533  18.376  20.906  0.00  0.00    +0.088 C 
ATOM     22  C   UNL     1      49.269  19.140  19.841  0.00  0.00    +0.022 A 
BRANCH  13  14
ATOM     14  O   UNL     1      52.148  18.838  17.596  0.00  0.00    -0.288 OA
ATOM     15  C   UNL     1      52.214  18.980  16.176  0.00  0.00    +0.243 C 
ENDBRANCH  13  14
ENDBRANCH   9  10
BRANCH   4   5
ATOM      5  O   UNL     1      44.338  22.601  22.037  0.00  0.00    -0.490 OA
ATOM      6  H   UNL     1      43.513  22.130  21.854  0.00  0.00    +0.387 HD
ENDBRANCH   4   5
TORSDOF 3
ENDMDL
MODEL 9
REMARK VINA RESULT:      -5.7      3.614      5.272
REMARK  Name = ZINC95486206
REMARK  5 active torsions:
REMARK  status: ('A' for Active; 'I' for Inactive)
REMARK    1  A    between atoms: C1_1  and  C2_2
REMARK    2  A    between atoms: C4_5  and  O3_26
REMARK    3  A    between atoms: C7_8  and  C11_13
REMARK    4  A    between atoms: C14_16  and  O2_24
REMARK    5  A    between atoms: O2_24  and  C21_25
REMARK                            x       y       z     vdW  Elec       q    Type
REMARK                         _______ _______ _______ _____ _____    ______ ____
ROOT
ATOM      1  C   UNL     1      52.013  21.500  21.938  0.00  0.00    +0.053 C 
ATOM      2  C   UNL     1      52.474  20.135  21.425  0.00  0.00    +0.175 C 
ATOM      3  C   UNL     1      51.999  19.950  20.008  0.00  0.00    -0.098 A 
ATOM      4  C   UNL     1      52.095  21.029  19.132  0.00  0.00    +0.115 A 
ATOM      7  C   UNL     1      51.675  20.908  17.817  0.00  0.00    -0.015 A 
ATOM      8  C   UNL     1      51.158  19.710  17.367  0.00  0.00    +0.040 A 
ATOM      9  C   UNL     1      51.058  18.631  18.239  0.00  0.00    -0.052 A 
ATOM     23  C   UNL     1      51.480  18.756  19.565  0.00  0.00    -0.037 A 
ATOM     24  C   UNL     1      51.344  17.565  20.479  0.00  0.00    +0.088 C 
ATOM     25  C   UNL     1      52.214  17.757  21.721  0.00  0.00    +0.170 C 
ATOM     26  N   UNL     1      51.928  19.083  22.290  0.00  0.00    -0.681 NA
ATOM     27  H   UNL     1      52.293  19.161  23.227  0.00  0.00    +0.348 HD
ENDROOT
BRANCH   9  10
ATOM     10  C   UNL     1      50.502  17.341  17.758  0.00  0.00    -0.101 A 
ATOM     11  C   UNL     1      51.362  16.346  17.289  0.00  0.00    +0.105 A 
ATOM     12  C   UNL     1      50.860  15.144  16.839  0.00  0.00    -0.089 A 
ATOM     13  C   UNL     1      49.490  14.917  16.848  0.00  0.00    +0.189 A 
ATOM     16  C   UNL     1      48.619  15.913  17.315  0.00  0.00    -0.205 A 
ATOM     17  C   UNL     1      47.167  15.674  17.310  0.00  0.00    +0.398 C 
ATOM     18  O   UNL     1      46.689  14.723  16.727  0.00  0.00    -0.437 OA
ATOM     19  C   UNL     1      46.291  16.648  18.076  0.00  0.00    +0.032 C 
ATOM     20  C   UNL     1      46.806  18.059  17.764  0.00  0.00    +0.038 C 
ATOM     21  C   UNL     1      48.226  18.211  18.305  0.00  0.00    +0.088 C 
ATOM     22  C   UNL     1      49.127  17.128  17.779  0.00  0.00    +0.022 A 
BRANCH  13  14
ATOM     14  O   UNL     1      48.996  13.733  16.407  0.00  0.00    -0.288 OA
ATOM     15  C   UNL     1      49.690  13.102  15.329  0.00  0.00    +0.243 C 
ENDBRANCH  13  14
ENDBRANCH   9  10
BRANCH   4   5
ATOM      5  O   UNL     1      52.604  22.210  19.571  0.00  0.00    -0.490 OA
ATOM      6  H   UNL     1      52.230  22.987  19.132  0.00  0.00    +0.387 HD
ENDBRANCH   4   5
TORSDOF 3
ENDMDL
