MODEL 1
REMARK VINA RESULT:      -5.4      0.000      0.000
REMARK  Name = ZINC95485950
REMARK  7 active torsions:
REMARK  status: ('A' for Active; 'I' for Inactive)
REMARK    1  A    between atoms: C1_1  and  C2_2
REMARK    2  A    between atoms: C2_2  and  C3_4
REMARK    3  A    between atoms: C3_4  and  C4_5
REMARK    4  A    between atoms: C4_5  and  C5_6
REMARK    5  A    between atoms: C7_8  and  O5_20
REMARK    6  A    between atoms: C11_13  and  C14_18
REMARK    7  A    between atoms: C14_18  and  O4_19
REMARK                            x       y       z     vdW  Elec       q    Type
REMARK                         _______ _______ _______ _____ _____    ______ ____
ROOT
ATOM      5  C   UNL     1      46.156  20.292  19.547  0.00  0.00    +0.004 A 
ATOM      6  C   UNL     1      46.062  19.637  20.762  0.00  0.00    -0.051 A 
ATOM      7  C   UNL     1      44.820  19.272  21.260  0.00  0.00    +0.207 A 
ATOM     10  C   UNL     1      43.666  19.575  20.523  0.00  0.00    -0.289 A 
ATOM     11  C   UNL     1      43.770  20.234  19.287  0.00  0.00    +0.200 A 
ATOM     12  O   UNL     1      42.665  20.517  18.558  0.00  0.00    -0.295 OA
ATOM     13  C   UNL     1      41.406  20.597  19.226  0.00  0.00    +0.188 C 
ATOM     17  C   UNL     1      41.183  19.319  20.046  0.00  0.00    +0.034 C 
ATOM     18  C   UNL     1      42.335  19.211  21.030  0.00  0.00    +0.404 C 
ATOM     19  O   UNL     1      42.166  18.843  22.173  0.00  0.00    -0.432 OA
ATOM     20  C   UNL     1      45.023  20.595  18.815  0.00  0.00    -0.027 A 
ENDROOT
BRANCH   7   8
ATOM      8  O   UNL     1      44.723  18.628  22.449  0.00  0.00    -0.482 OA
ATOM      9  H   UNL     1      43.859  18.224  22.609  0.00  0.00    +0.401 HD
ENDBRANCH   7   8
BRANCH   5   4
ATOM      4  C   UNL     1      47.510  20.686  19.018  0.00  0.00    +0.095 C 
BRANCH   4   3
ATOM      3  C   UNL     1      48.504  20.780  20.179  0.00  0.00    +0.038 C 
BRANCH   3   2
ATOM      1  C   UNL     1      50.389  20.975  18.384  0.00  0.00    +0.062 C 
ATOM      2  C   UNL     1      49.883  20.419  19.691  0.00  0.00    +0.353 C 
ATOM     21  O   UNL     1      50.583  19.684  20.346  0.00  0.00    -0.456 OA
ENDBRANCH   3   2
ENDBRANCH   4   3
ENDBRANCH   5   4
BRANCH  13  14
ATOM     14  C   UNL     1      40.288  20.742  18.190  0.00  0.00    +0.222 C 
BRANCH  14  15
ATOM     15  O   UNL     1      39.532  21.922  18.467  0.00  0.00    -0.565 OA
ATOM     16  H   UNL     1      39.574  22.209  19.390  0.00  0.00    +0.387 HD
ENDBRANCH  14  15
ENDBRANCH  13  14
TORSDOF 6
ENDMDL
MODEL 2
REMARK VINA RESULT:      -5.4      2.659      3.628
REMARK  Name = ZINC95485950
REMARK  7 active torsions:
REMARK  status: ('A' for Active; 'I' for Inactive)
REMARK    1  A    between atoms: C1_1  and  C2_2
REMARK    2  A    between atoms: C2_2  and  C3_4
REMARK    3  A    between atoms: C3_4  and  C4_5
REMARK    4  A    between atoms: C4_5  and  C5_6
REMARK    5  A    between atoms: C7_8  and  O5_20
REMARK    6  A    between atoms: C11_13  and  C14_18
REMARK    7  A    between atoms: C14_18  and  O4_19
REMARK                            x       y       z     vdW  Elec       q    Type
REMARK                         _______ _______ _______ _____ _____    ______ ____
ROOT
ATOM      5  C   UNL     1      49.205  20.242  19.011  0.00  0.00    +0.004 A 
ATOM      6  C   UNL     1      48.994  18.883  18.854  0.00  0.00    -0.051 A 
ATOM      7  C   UNL     1      47.703  18.379  18.825  0.00  0.00    +0.207 A 
ATOM     10  C   UNL     1      46.618  19.257  18.958  0.00  0.00    -0.289 A 
ATOM     11  C   UNL     1      46.839  20.636  19.110  0.00  0.00    +0.200 A 
ATOM     12  O   UNL     1      45.800  21.496  19.223  0.00  0.00    -0.295 OA
ATOM     13  C   UNL     1      44.540  20.995  19.669  0.00  0.00    +0.188 C 
ATOM     17  C   UNL     1      44.137  19.791  18.806  0.00  0.00    +0.034 C 
ATOM     18  C   UNL     1      45.237  18.753  18.944  0.00  0.00    +0.404 C 
ATOM     19  O   UNL     1      44.989  17.569  19.034  0.00  0.00    -0.432 OA
ATOM     20  C   UNL     1      48.141  21.113  19.144  0.00  0.00    -0.027 A 
ENDROOT
BRANCH   7   8
ATOM      8  O   UNL     1      47.491  17.049  18.670  0.00  0.00    -0.482 OA
ATOM      9  H   UNL     1      48.261  16.502  18.876  0.00  0.00    +0.401 HD
ENDBRANCH   7   8
BRANCH   5   4
ATOM      4  C   UNL     1      50.613  20.776  19.045  0.00  0.00    +0.095 C 
BRANCH   4   3
ATOM      3  C   UNL     1      51.080  21.075  17.618  0.00  0.00    +0.038 C 
BRANCH   3   2
ATOM      1  C   UNL     1      52.108  19.594  15.730  0.00  0.00    +0.062 C 
ATOM      2  C   UNL     1      52.056  20.015  17.176  0.00  0.00    +0.353 C 
ATOM     21  O   UNL     1      52.797  19.503  17.981  0.00  0.00    -0.456 OA
ENDBRANCH   3   2
ENDBRANCH   4   3
ENDBRANCH   5   4
BRANCH  13  14
ATOM     14  C   UNL     1      43.481  22.092  19.544  0.00  0.00    +0.222 C 
BRANCH  14  15
ATOM     15  O   UNL     1      43.617  23.012  20.628  0.00  0.00    -0.565 OA
ATOM     16  H   UNL     1      44.436  23.526  20.608  0.00  0.00    +0.387 HD
ENDBRANCH  14  15
ENDBRANCH  13  14
TORSDOF 6
ENDMDL
MODEL 3
REMARK VINA RESULT:      -5.2     20.975     22.117
REMARK  Name = ZINC95485950
REMARK  7 active torsions:
REMARK  status: ('A' for Active; 'I' for Inactive)
REMARK    1  A    between atoms: C1_1  and  C2_2
REMARK    2  A    between atoms: C2_2  and  C3_4
REMARK    3  A    between atoms: C3_4  and  C4_5
REMARK    4  A    between atoms: C4_5  and  C5_6
REMARK    5  A    between atoms: C7_8  and  O5_20
REMARK    6  A    between atoms: C11_13  and  C14_18
REMARK    7  A    between atoms: C14_18  and  O4_19
REMARK                            x       y       z     vdW  Elec       q    Type
REMARK                         _______ _______ _______ _____ _____    ______ ____
ROOT
ATOM      5  C   UNL     1      56.003  32.391   3.896  0.00  0.00    +0.004 A 
ATOM      6  C   UNL     1      56.211  32.885   5.171  0.00  0.00    -0.051 A 
ATOM      7  C   UNL     1      55.140  33.342   5.924  0.00  0.00    +0.207 A 
ATOM     10  C   UNL     1      53.849  33.300   5.379  0.00  0.00    -0.289 A 
ATOM     11  C   UNL     1      53.643  32.791   4.087  0.00  0.00    +0.200 A 
ATOM     12  O   UNL     1      52.399  32.729   3.556  0.00  0.00    -0.295 OA
ATOM     13  C   UNL     1      51.390  33.596   4.073  0.00  0.00    +0.188 C 
ATOM     17  C   UNL     1      51.320  33.443   5.599  0.00  0.00    +0.034 C 
ATOM     18  C   UNL     1      52.694  33.788   6.147  0.00  0.00    +0.404 C 
ATOM     19  O   UNL     1      52.831  34.432   7.167  0.00  0.00    -0.432 OA
ATOM     20  C   UNL     1      54.732  32.347   3.352  0.00  0.00    -0.027 A 
ENDROOT
BRANCH   7   8
ATOM      8  O   UNL     1      55.340  33.826   7.175  0.00  0.00    -0.482 OA
ATOM      9  H   UNL     1      56.194  34.263   7.295  0.00  0.00    +0.401 HD
ENDBRANCH   7   8
BRANCH   5   4
ATOM      4  C   UNL     1      57.175  31.901   3.087  0.00  0.00    +0.095 C 
BRANCH   4   3
ATOM      3  C   UNL     1      58.333  31.553   4.027  0.00  0.00    +0.038 C 
BRANCH   3   2
ATOM      1  C   UNL     1      58.273  29.357   2.617  0.00  0.00    +0.062 C 
ATOM      2  C   UNL     1      58.698  30.100   3.857  0.00  0.00    +0.353 C 
ATOM     21  O   UNL     1      59.330  29.532   4.715  0.00  0.00    -0.456 OA
ENDBRANCH   3   2
ENDBRANCH   4   3
ENDBRANCH   5   4
BRANCH  13  14
ATOM     14  C   UNL     1      50.037  33.228   3.460  0.00  0.00    +0.222 C 
BRANCH  14  15
ATOM     15  O   UNL     1      49.043  34.151   3.908  0.00  0.00    -0.565 OA
ATOM     16  H   UNL     1      49.310  35.078   3.844  0.00  0.00    +0.387 HD
ENDBRANCH  14  15
ENDBRANCH  13  14
TORSDOF 6
ENDMDL
MODEL 4
REMARK VINA RESULT:      -5.2      2.209      7.130
REMARK  Name = ZINC95485950
REMARK  7 active torsions:
REMARK  status: ('A' for Active; 'I' for Inactive)
REMARK    1  A    between atoms: C1_1  and  C2_2
REMARK    2  A    between atoms: C2_2  and  C3_4
REMARK    3  A    between atoms: C3_4  and  C4_5
REMARK    4  A    between atoms: C4_5  and  C5_6
REMARK    5  A    between atoms: C7_8  and  O5_20
REMARK    6  A    between atoms: C11_13  and  C14_18
REMARK    7  A    between atoms: C14_18  and  O4_19
REMARK                            x       y       z     vdW  Elec       q    Type
REMARK                         _______ _______ _______ _____ _____    ______ ____
ROOT
ATOM      5  C   UNL     1      45.200  20.545  19.073  0.00  0.00    +0.004 A 
ATOM      6  C   UNL     1      45.014  19.351  18.399  0.00  0.00    -0.051 A 
ATOM      7  C   UNL     1      46.106  18.564  18.064  0.00  0.00    +0.207 A 
ATOM     10  C   UNL     1      47.395  18.991  18.413  0.00  0.00    -0.289 A 
ATOM     11  C   UNL     1      47.576  20.200  19.104  0.00  0.00    +0.200 A 
ATOM     12  O   UNL     1      48.814  20.616  19.461  0.00  0.00    -0.295 OA
ATOM     13  C   UNL     1      49.940  20.110  18.743  0.00  0.00    +0.188 C 
ATOM     17  C   UNL     1      49.884  18.577  18.723  0.00  0.00    +0.034 C 
ATOM     18  C   UNL     1      48.573  18.185  18.062  0.00  0.00    +0.404 C 
ATOM     19  O   UNL     1      48.503  17.254  17.287  0.00  0.00    -0.432 OA
ATOM     20  C   UNL     1      46.468  20.972  19.419  0.00  0.00    -0.027 A 
ENDROOT
BRANCH   7   8
ATOM      8  O   UNL     1      45.928  17.393  17.405  0.00  0.00    -0.482 OA
ATOM      9  H   UNL     1      45.037  17.273  17.049  0.00  0.00    +0.401 HD
ENDBRANCH   7   8
BRANCH   5   4
ATOM      4  C   UNL     1      44.006  21.392  19.427  0.00  0.00    +0.095 C 
BRANCH   4   3
ATOM      3  C   UNL     1      42.788  20.491  19.647  0.00  0.00    +0.038 C 
BRANCH   3   2
ATOM      1  C   UNL     1      40.761  20.035  18.067  0.00  0.00    +0.062 C 
ATOM      2  C   UNL     1      41.631  21.002  18.828  0.00  0.00    +0.353 C 
ATOM     21  O   UNL     1      41.401  22.187  18.782  0.00  0.00    -0.456 OA
ENDBRANCH   3   2
ENDBRANCH   4   3
ENDBRANCH   5   4
BRANCH  13  14
ATOM     14  C   UNL     1      51.230  20.566  19.430  0.00  0.00    +0.222 C 
BRANCH  14  15
ATOM     15  O   UNL     1      51.887  21.537  18.615  0.00  0.00    -0.565 OA
ATOM     16  H   UNL     1      51.736  21.422  17.666  0.00  0.00    +0.387 HD
ENDBRANCH  14  15
ENDBRANCH  13  14
TORSDOF 6
ENDMDL
MODEL 5
REMARK VINA RESULT:      -5.1      3.755      6.526
REMARK  Name = ZINC95485950
REMARK  7 active torsions:
REMARK  status: ('A' for Active; 'I' for Inactive)
REMARK    1  A    between atoms: C1_1  and  C2_2
REMARK    2  A    between atoms: C2_2  and  C3_4
REMARK    3  A    between atoms: C3_4  and  C4_5
REMARK    4  A    between atoms: C4_5  and  C5_6
REMARK    5  A    between atoms: C7_8  and  O5_20
REMARK    6  A    between atoms: C11_13  and  C14_18
REMARK    7  A    between atoms: C14_18  and  O4_19
REMARK                            x       y       z     vdW  Elec       q    Type
REMARK                         _______ _______ _______ _____ _____    ______ ____
ROOT
ATOM      5  C   UNL     1      43.786  18.559  20.428  0.00  0.00    +0.004 A 
ATOM      6  C   UNL     1      43.601  17.680  21.480  0.00  0.00    -0.051 A 
ATOM      7  C   UNL     1      44.234  16.445  21.475  0.00  0.00    +0.207 A 
ATOM     10  C   UNL     1      45.058  16.100  20.395  0.00  0.00    -0.289 A 
ATOM     11  C   UNL     1      45.248  17.000  19.333  0.00  0.00    +0.200 A 
ATOM     12  O   UNL     1      46.054  16.685  18.293  0.00  0.00    -0.295 OA
ATOM     13  C   UNL     1      46.317  15.308  18.022  0.00  0.00    +0.188 C 
ATOM     17  C   UNL     1      46.817  14.624  19.303  0.00  0.00    +0.034 C 
ATOM     18  C   UNL     1      45.734  14.794  20.354  0.00  0.00    +0.404 C 
ATOM     19  O   UNL     1      45.442  13.900  21.120  0.00  0.00    -0.432 OA
ATOM     20  C   UNL     1      44.597  18.224  19.360  0.00  0.00    -0.027 A 
ENDROOT
BRANCH   7   8
ATOM      8  O   UNL     1      44.056  15.582  22.505  0.00  0.00    -0.482 OA
ATOM      9  H   UNL     1      44.855  15.421  23.025  0.00  0.00    +0.401 HD
ENDBRANCH   7   8
BRANCH   5   4
ATOM      4  C   UNL     1      43.090  19.894  20.445  0.00  0.00    +0.095 C 
BRANCH   4   3
ATOM      3  C   UNL     1      41.590  19.691  20.220  0.00  0.00    +0.038 C 
BRANCH   3   2
ATOM      1  C   UNL     1      39.927  21.212  18.902  0.00  0.00    +0.062 C 
ATOM      2  C   UNL     1      41.177  20.370  18.940  0.00  0.00    +0.353 C 
ATOM     21  O   UNL     1      41.848  20.240  17.943  0.00  0.00    -0.456 OA
ENDBRANCH   3   2
ENDBRANCH   4   3
ENDBRANCH   5   4
BRANCH  13  14
ATOM     14  C   UNL     1      47.386  15.197  16.933  0.00  0.00    +0.222 C 
BRANCH  14  15
ATOM     15  O   UNL     1      46.819  14.595  15.768  0.00  0.00    -0.565 OA
ATOM     16  H   UNL     1      47.416  13.991  15.306  0.00  0.00    +0.387 HD
ENDBRANCH  14  15
ENDBRANCH  13  14
TORSDOF 6
ENDMDL
MODEL 6
REMARK VINA RESULT:      -5.0      2.642      2.845
REMARK  Name = ZINC95485950
REMARK  7 active torsions:
REMARK  status: ('A' for Active; 'I' for Inactive)
REMARK    1  A    between atoms: C1_1  and  C2_2
REMARK    2  A    between atoms: C2_2  and  C3_4
REMARK    3  A    between atoms: C3_4  and  C4_5
REMARK    4  A    between atoms: C4_5  and  C5_6
REMARK    5  A    between atoms: C7_8  and  O5_20
REMARK    6  A    between atoms: C11_13  and  C14_18
REMARK    7  A    between atoms: C14_18  and  O4_19
REMARK                            x       y       z     vdW  Elec       q    Type
REMARK                         _______ _______ _______ _____ _____    ______ ____
ROOT
ATOM      5  C   UNL     1      45.620  18.520  18.857  0.00  0.00    +0.004 A 
ATOM      6  C   UNL     1      45.261  17.780  19.970  0.00  0.00    -0.051 A 
ATOM      7  C   UNL     1      44.021  17.969  20.560  0.00  0.00    +0.207 A 
ATOM     10  C   UNL     1      43.139  18.917  20.021  0.00  0.00    -0.289 A 
ATOM     11  C   UNL     1      43.507  19.660  18.887  0.00  0.00    +0.200 A 
ATOM     12  O   UNL     1      42.659  20.566  18.348  0.00  0.00    -0.295 OA
ATOM     13  C   UNL     1      41.629  21.115  19.170  0.00  0.00    +0.188 C 
ATOM     17  C   UNL     1      40.837  19.974  19.822  0.00  0.00    +0.034 C 
ATOM     18  C   UNL     1      41.822  19.150  20.632  0.00  0.00    +0.404 C 
ATOM     19  O   UNL     1      41.537  18.705  21.724  0.00  0.00    -0.432 OA
ATOM     20  C   UNL     1      44.757  19.456  18.321  0.00  0.00    -0.027 A 
ENDROOT
BRANCH   7   8
ATOM      8  O   UNL     1      43.665  17.245  21.650  0.00  0.00    -0.482 OA
ATOM      9  H   UNL     1      43.948  16.321  21.618  0.00  0.00    +0.401 HD
ENDBRANCH   7   8
BRANCH   5   4
ATOM      4  C   UNL     1      46.972  18.307  18.227  0.00  0.00    +0.095 C 
BRANCH   4   3
ATOM      3  C   UNL     1      46.855  17.271  17.107  0.00  0.00    +0.038 C 
BRANCH   3   2
ATOM      1  C   UNL     1      48.416  16.001  18.770  0.00  0.00    +0.062 C 
ATOM      2  C   UNL     1      47.671  16.054  17.461  0.00  0.00    +0.353 C 
ATOM     21  O   UNL     1      47.728  15.121  16.695  0.00  0.00    -0.456 OA
ENDBRANCH   3   2
ENDBRANCH   4   3
ENDBRANCH   5   4
BRANCH  13  14
ATOM     14  C   UNL     1      40.689  21.965  18.310  0.00  0.00    +0.222 C 
BRANCH  14  15
ATOM     15  O   UNL     1      39.549  21.188  17.940  0.00  0.00    -0.565 OA
ATOM     16  H   UNL     1      38.918  21.047  18.660  0.00  0.00    +0.387 HD
ENDBRANCH  14  15
ENDBRANCH  13  14
TORSDOF 6
ENDMDL
MODEL 7
REMARK VINA RESULT:      -5.0      2.637      4.149
REMARK  Name = ZINC95485950
REMARK  7 active torsions:
REMARK  status: ('A' for Active; 'I' for Inactive)
REMARK    1  A    between atoms: C1_1  and  C2_2
REMARK    2  A    between atoms: C2_2  and  C3_4
REMARK    3  A    between atoms: C3_4  and  C4_5
REMARK    4  A    between atoms: C4_5  and  C5_6
REMARK    5  A    between atoms: C7_8  and  O5_20
REMARK    6  A    between atoms: C11_13  and  C14_18
REMARK    7  A    between atoms: C14_18  and  O4_19
REMARK                            x       y       z     vdW  Elec       q    Type
REMARK                         _______ _______ _______ _____ _____    ______ ____
ROOT
ATOM      5  C   UNL     1      45.095  18.396  20.867  0.00  0.00    +0.004 A 
ATOM      6  C   UNL     1      45.824  19.564  20.996  0.00  0.00    -0.051 A 
ATOM      7  C   UNL     1      45.291  20.769  20.561  0.00  0.00    +0.207 A 
ATOM     10  C   UNL     1      44.011  20.788  19.990  0.00  0.00    -0.289 A 
ATOM     11  C   UNL     1      43.273  19.599  19.868  0.00  0.00    +0.200 A 
ATOM     12  O   UNL     1      42.030  19.607  19.333  0.00  0.00    -0.295 OA
ATOM     13  C   UNL     1      41.662  20.683  18.470  0.00  0.00    +0.188 C 
ATOM     17  C   UNL     1      41.941  22.018  19.173  0.00  0.00    +0.034 C 
ATOM     18  C   UNL     1      43.423  22.047  19.508  0.00  0.00    +0.404 C 
ATOM     19  O   UNL     1      44.085  23.055  19.386  0.00  0.00    -0.432 OA
ATOM     20  C   UNL     1      43.832  18.407  20.304  0.00  0.00    -0.027 A 
ENDROOT
BRANCH   7   8
ATOM      8  O   UNL     1      46.002  21.916  20.687  0.00  0.00    -0.482 OA
ATOM      9  H   UNL     1      46.801  21.827  21.223  0.00  0.00    +0.401 HD
ENDBRANCH   7   8
BRANCH   5   4
ATOM      4  C   UNL     1      45.687  17.094  21.340  0.00  0.00    +0.095 C 
BRANCH   4   3
ATOM      3  C   UNL     1      44.631  15.990  21.248  0.00  0.00    +0.038 C 
BRANCH   3   2
ATOM      1  C   UNL     1      45.708  14.860  19.156  0.00  0.00    +0.062 C 
ATOM      2  C   UNL     1      45.228  14.777  20.582  0.00  0.00    +0.353 C 
ATOM     21  O   UNL     1      45.323  13.739  21.192  0.00  0.00    -0.456 OA
ENDBRANCH   3   2
ENDBRANCH   4   3
ENDBRANCH   5   4
BRANCH  13  14
ATOM     14  C   UNL     1      40.171  20.583  18.137  0.00  0.00    +0.222 C 
BRANCH  14  15
ATOM     15  O   UNL     1      39.620  21.896  18.018  0.00  0.00    -0.565 OA
ATOM     16  H   UNL     1      39.450  22.330  18.865  0.00  0.00    +0.387 HD
ENDBRANCH  14  15
ENDBRANCH  13  14
TORSDOF 6
ENDMDL
MODEL 8
REMARK VINA RESULT:      -4.9      3.188      6.527
REMARK  Name = ZINC95485950
REMARK  7 active torsions:
REMARK  status: ('A' for Active; 'I' for Inactive)
REMARK    1  A    between atoms: C1_1  and  C2_2
REMARK    2  A    between atoms: C2_2  and  C3_4
REMARK    3  A    between atoms: C3_4  and  C4_5
REMARK    4  A    between atoms: C4_5  and  C5_6
REMARK    5  A    between atoms: C7_8  and  O5_20
REMARK    6  A    between atoms: C11_13  and  C14_18
REMARK    7  A    between atoms: C14_18  and  O4_19
REMARK                            x       y       z     vdW  Elec       q    Type
REMARK                         _______ _______ _______ _____ _____    ______ ____
ROOT
ATOM      5  C   UNL     1      45.423  20.360  18.945  0.00  0.00    +0.004 A 
ATOM      6  C   UNL     1      46.673  20.789  19.355  0.00  0.00    -0.051 A 
ATOM      7  C   UNL     1      47.789  19.998  19.125  0.00  0.00    +0.207 A 
ATOM     10  C   UNL     1      47.637  18.764  18.478  0.00  0.00    -0.289 A 
ATOM     11  C   UNL     1      46.366  18.338  18.058  0.00  0.00    +0.200 A 
ATOM     12  O   UNL     1      46.208  17.157  17.417  0.00  0.00    -0.295 OA
ATOM     13  C   UNL     1      47.200  16.144  17.591  0.00  0.00    +0.188 C 
ATOM     17  C   UNL     1      48.584  16.731  17.282  0.00  0.00    +0.034 C 
ATOM     18  C   UNL     1      48.799  17.898  18.231  0.00  0.00    +0.404 C 
ATOM     19  O   UNL     1      49.873  18.105  18.755  0.00  0.00    -0.432 OA
ATOM     20  C   UNL     1      45.265  19.144  18.307  0.00  0.00    -0.027 A 
ENDROOT
BRANCH   7   8
ATOM      8  O   UNL     1      49.016  20.415  19.524  0.00  0.00    -0.482 OA
ATOM      9  H   UNL     1      49.020  20.862  20.382  0.00  0.00    +0.401 HD
ENDBRANCH   7   8
BRANCH   5   4
ATOM      4  C   UNL     1      44.218  21.227  19.204  0.00  0.00    +0.095 C 
BRANCH   4   3
ATOM      3  C   UNL     1      43.185  20.437  20.011  0.00  0.00    +0.038 C 
BRANCH   3   2
ATOM      1  C   UNL     1      41.324  21.770  18.756  0.00  0.00    +0.062 C 
ATOM      2  C   UNL     1      41.859  20.468  19.296  0.00  0.00    +0.353 C 
ATOM     21  O   UNL     1      41.224  19.450  19.157  0.00  0.00    -0.456 OA
ENDBRANCH   3   2
ENDBRANCH   4   3
ENDBRANCH   5   4
BRANCH  13  14
ATOM     14  C   UNL     1      46.914  14.980  16.640  0.00  0.00    +0.222 C 
BRANCH  14  15
ATOM     15  O   UNL     1      46.338  15.482  15.433  0.00  0.00    -0.565 OA
ATOM     16  H   UNL     1      45.403  15.716  15.510  0.00  0.00    +0.387 HD
ENDBRANCH  14  15
ENDBRANCH  13  14
TORSDOF 6
ENDMDL
MODEL 9
REMARK VINA RESULT:      -4.8      1.509      2.075
REMARK  Name = ZINC95485950
REMARK  7 active torsions:
REMARK  status: ('A' for Active; 'I' for Inactive)
REMARK    1  A    between atoms: C1_1  and  C2_2
REMARK    2  A    between atoms: C2_2  and  C3_4
REMARK    3  A    between atoms: C3_4  and  C4_5
REMARK    4  A    between atoms: C4_5  and  C5_6
REMARK    5  A    between atoms: C7_8  and  O5_20
REMARK    6  A    between atoms: C11_13  and  C14_18
REMARK    7  A    between atoms: C14_18  and  O4_19
REMARK                            x       y       z     vdW  Elec       q    Type
REMARK                         _______ _______ _______ _____ _____    ______ ____
ROOT
ATOM      5  C   UNL     1      47.864  20.379  19.465  0.00  0.00    +0.004 A 
ATOM      6  C   UNL     1      47.908  19.538  20.562  0.00  0.00    -0.051 A 
ATOM      7  C   UNL     1      46.733  19.033  21.098  0.00  0.00    +0.207 A 
ATOM     10  C   UNL     1      45.506  19.383  20.519  0.00  0.00    -0.289 A 
ATOM     11  C   UNL     1      45.469  20.232  19.400  0.00  0.00    +0.200 A 
ATOM     12  O   UNL     1      44.292  20.565  18.822  0.00  0.00    -0.295 OA
ATOM     13  C   UNL     1      43.096  20.471  19.597  0.00  0.00    +0.188 C 
ATOM     17  C   UNL     1      43.001  19.071  20.218  0.00  0.00    +0.034 C 
ATOM     18  C   UNL     1      44.242  18.874  21.071  0.00  0.00    +0.404 C 
ATOM     19  O   UNL     1      44.193  18.323  22.151  0.00  0.00    -0.432 OA
ATOM     20  C   UNL     1      46.658  20.730  18.889  0.00  0.00    -0.027 A 
ENDROOT
BRANCH   7   8
ATOM      8  O   UNL     1      46.772  18.207  22.173  0.00  0.00    -0.482 OA
ATOM      9  H   UNL     1      46.703  18.663  23.022  0.00  0.00    +0.401 HD
ENDBRANCH   7   8
BRANCH   5   4
ATOM      4  C   UNL     1      49.148  20.925  18.895  0.00  0.00    +0.095 C 
BRANCH   4   3
ATOM      3  C   UNL     1      50.036  19.765  18.437  0.00  0.00    +0.038 C 
BRANCH   3   2
ATOM      1  C   UNL     1      52.631  19.680  18.164  0.00  0.00    +0.062 C 
ATOM      2  C   UNL     1      51.303  20.312  17.832  0.00  0.00    +0.353 C 
ATOM     21  O   UNL     1      51.255  21.257  17.081  0.00  0.00    -0.456 OA
ENDBRANCH   3   2
ENDBRANCH   4   3
ENDBRANCH   5   4
BRANCH  13  14
ATOM     14  C   UNL     1      41.883  20.715  18.695  0.00  0.00    +0.222 C 
BRANCH  14  15
ATOM     15  O   UNL     1      40.783  21.163  19.489  0.00  0.00    -0.565 OA
ATOM     16  H   UNL     1      40.711  22.125  19.554  0.00  0.00    +0.387 HD
ENDBRANCH  14  15
ENDBRANCH  13  14
TORSDOF 6
ENDMDL
