MODEL 1
REMARK VINA RESULT:      -6.1      0.000      0.000
REMARK  Name = ZINC02030112
REMARK  6 active torsions:
REMARK  status: ('A' for Active; 'I' for Inactive)
REMARK    1  A    between atoms: C1_1  and  O1_2
REMARK    2  A    between atoms: O1_2  and  C2_3
REMARK    3  A    between atoms: C5_6  and  C8_9
REMARK    4  A    between atoms: C12_15  and  O5_23
REMARK    5  A    between atoms: C14_17  and  O4_21
REMARK    6  A    between atoms: O4_21  and  C17_22
REMARK                            x       y       z     vdW  Elec       q    Type
REMARK                         _______ _______ _______ _____ _____    ______ ____
ROOT
ATOM      7  C   UNL     1      46.392  19.606  20.055  0.00  0.00    +0.241 C 
ATOM      8  C   UNL     1      46.171  18.288  20.811  0.00  0.00    +0.033 C 
ATOM      9  C   UNL     1      44.768  18.334  21.392  0.00  0.00    +0.406 C 
ATOM     10  C   UNL     1      43.723  18.910  20.538  0.00  0.00    -0.319 A 
ATOM     11  C   UNL     1      42.367  18.770  20.874  0.00  0.00    +0.246 A 
ATOM     14  C   UNL     1      41.401  19.333  20.059  0.00  0.00    -0.138 A 
ATOM     15  C   UNL     1      41.775  20.029  18.915  0.00  0.00    +0.216 A 
ATOM     18  C   UNL     1      43.115  20.165  18.576  0.00  0.00    -0.058 A 
ATOM     19  C   UNL     1      44.097  19.609  19.376  0.00  0.00    +0.235 A 
ATOM     20  O   UNL     1      44.524  17.915  22.505  0.00  0.00    -0.436 OA
ATOM     21  O   UNL     1      45.401  19.738  19.036  0.00  0.00    -0.297 OA
ENDROOT
BRANCH   7   6
ATOM      3  C   UNL     1      50.277  19.595  18.274  0.00  0.00    +0.138 A 
ATOM      4  C   UNL     1      49.555  18.414  18.375  0.00  0.00    -0.014 A 
ATOM      5  C   UNL     1      48.299  18.420  18.950  0.00  0.00    +0.074 A 
ATOM      6  C   UNL     1      47.761  19.602  19.427  0.00  0.00    -0.133 A 
ATOM     22  C   UNL     1      48.476  20.781  19.323  0.00  0.00    +0.084 A 
ATOM     23  C   UNL     1      49.735  20.779  18.753  0.00  0.00    -0.077 A 
BRANCH   3   2
ATOM      1  C   UNL     1      51.837  20.691  16.855  0.00  0.00    +0.243 C 
ATOM      2  O   UNL     1      51.512  19.591  17.708  0.00  0.00    -0.316 OA
ENDBRANCH   3   2
ENDBRANCH   7   6
BRANCH  11  12
ATOM     12  O   UNL     1      42.006  18.088  21.989  0.00  0.00    -0.481 OA
ATOM     13  H   UNL     1      42.752  17.771  22.515  0.00  0.00    +0.404 HD
ENDBRANCH  11  12
BRANCH  15  16
ATOM     16  O   UNL     1      40.822  20.580  18.124  0.00  0.00    -0.304 OA
ATOM     17  C   UNL     1      39.895  21.470  18.748  0.00  0.00    +0.254 C 
ENDBRANCH  15  16
TORSDOF 4
ENDMDL
MODEL 2
REMARK VINA RESULT:      -5.9      3.161      4.632
REMARK  Name = ZINC02030112
REMARK  6 active torsions:
REMARK  status: ('A' for Active; 'I' for Inactive)
REMARK    1  A    between atoms: C1_1  and  O1_2
REMARK    2  A    between atoms: O1_2  and  C2_3
REMARK    3  A    between atoms: C5_6  and  C8_9
REMARK    4  A    between atoms: C12_15  and  O5_23
REMARK    5  A    between atoms: C14_17  and  O4_21
REMARK    6  A    between atoms: O4_21  and  C17_22
REMARK                            x       y       z     vdW  Elec       q    Type
REMARK                         _______ _______ _______ _____ _____    ______ ____
ROOT
ATOM      7  C   UNL     1      45.244  18.698  19.024  0.00  0.00    +0.241 C 
ATOM      8  C   UNL     1      45.887  19.369  20.247  0.00  0.00    +0.033 C 
ATOM      9  C   UNL     1      45.598  20.856  20.147  0.00  0.00    +0.406 C 
ATOM     10  C   UNL     1      44.258  21.234  19.685  0.00  0.00    -0.319 A 
ATOM     11  C   UNL     1      43.809  22.560  19.797  0.00  0.00    +0.246 A 
ATOM     14  C   UNL     1      42.546  22.893  19.343  0.00  0.00    -0.138 A 
ATOM     15  C   UNL     1      41.729  21.919  18.781  0.00  0.00    +0.216 A 
ATOM     18  C   UNL     1      42.166  20.605  18.672  0.00  0.00    -0.058 A 
ATOM     19  C   UNL     1      43.425  20.249  19.123  0.00  0.00    +0.235 A 
ATOM     20  O   UNL     1      46.433  21.689  20.436  0.00  0.00    -0.436 OA
ATOM     21  O   UNL     1      43.843  18.966  19.021  0.00  0.00    -0.297 OA
ENDROOT
BRANCH   7   6
ATOM      3  C   UNL     1      45.892  14.478  19.208  0.00  0.00    +0.138 A 
ATOM      4  C   UNL     1      46.370  15.208  18.128  0.00  0.00    -0.014 A 
ATOM      5  C   UNL     1      46.160  16.573  18.072  0.00  0.00    +0.074 A 
ATOM      6  C   UNL     1      45.473  17.211  19.088  0.00  0.00    -0.133 A 
ATOM     22  C   UNL     1      45.001  16.486  20.167  0.00  0.00    +0.084 A 
ATOM     23  C   UNL     1      45.204  15.120  20.226  0.00  0.00    -0.077 A 
BRANCH   3   2
ATOM      1  C   UNL     1      46.199  12.441  18.021  0.00  0.00    +0.243 C 
ATOM      2  O   UNL     1      46.098  13.136  19.266  0.00  0.00    -0.316 OA
ENDBRANCH   3   2
ENDBRANCH   7   6
BRANCH  11  12
ATOM     12  O   UNL     1      44.608  23.507  20.348  0.00  0.00    -0.481 OA
ATOM     13  H   UNL     1      45.340  23.150  20.869  0.00  0.00    +0.404 HD
ENDBRANCH  11  12
BRANCH  15  16
ATOM     16  O   UNL     1      40.493  22.255  18.335  0.00  0.00    -0.304 OA
ATOM     17  C   UNL     1      39.428  21.349  18.630  0.00  0.00    +0.254 C 
ENDBRANCH  15  16
TORSDOF 4
ENDMDL
MODEL 3
REMARK VINA RESULT:      -5.8      2.339      7.798
REMARK  Name = ZINC02030112
REMARK  6 active torsions:
REMARK  status: ('A' for Active; 'I' for Inactive)
REMARK    1  A    between atoms: C1_1  and  O1_2
REMARK    2  A    between atoms: O1_2  and  C2_3
REMARK    3  A    between atoms: C5_6  and  C8_9
REMARK    4  A    between atoms: C12_15  and  O5_23
REMARK    5  A    between atoms: C14_17  and  O4_21
REMARK    6  A    between atoms: O4_21  and  C17_22
REMARK                            x       y       z     vdW  Elec       q    Type
REMARK                         _______ _______ _______ _____ _____    ______ ____
ROOT
ATOM      7  C   UNL     1      47.600  20.397  20.018  0.00  0.00    +0.241 C 
ATOM      8  C   UNL     1      48.081  21.167  21.256  0.00  0.00    +0.033 C 
ATOM      9  C   UNL     1      49.563  20.880  21.415  0.00  0.00    +0.406 C 
ATOM     10  C   UNL     1      50.360  20.840  20.183  0.00  0.00    -0.319 A 
ATOM     11  C   UNL     1      51.763  20.835  20.237  0.00  0.00    +0.246 A 
ATOM     14  C   UNL     1      52.490  20.785  19.062  0.00  0.00    -0.138 A 
ATOM     15  C   UNL     1      51.833  20.741  17.838  0.00  0.00    +0.216 A 
ATOM     18  C   UNL     1      50.445  20.751  17.778  0.00  0.00    -0.058 A 
ATOM     19  C   UNL     1      49.698  20.804  18.942  0.00  0.00    +0.235 A 
ATOM     20  O   UNL     1      50.065  20.694  22.505  0.00  0.00    -0.436 OA
ATOM     21  O   UNL     1      48.346  20.821  18.878  0.00  0.00    -0.297 OA
ENDROOT
BRANCH   7   6
ATOM      3  C   UNL     1      43.447  21.176  19.376  0.00  0.00    +0.138 A 
ATOM      4  C   UNL     1      44.197  22.022  20.181  0.00  0.00    -0.014 A 
ATOM      5  C   UNL     1      45.540  21.769  20.386  0.00  0.00    +0.074 A 
ATOM      6  C   UNL     1      46.136  20.672  19.792  0.00  0.00    -0.133 A 
ATOM     22  C   UNL     1      45.392  19.830  18.985  0.00  0.00    +0.084 A 
ATOM     23  C   UNL     1      44.048  20.076  18.781  0.00  0.00    -0.077 A 
BRANCH   3   2
ATOM      1  C   UNL     1      41.391  20.449  18.431  0.00  0.00    +0.243 C 
ATOM      2  O   UNL     1      42.126  21.424  19.172  0.00  0.00    -0.316 OA
ENDBRANCH   3   2
ENDBRANCH   7   6
BRANCH  11  12
ATOM     12  O   UNL     1      52.400  20.880  21.433  0.00  0.00    -0.481 OA
ATOM     13  H   UNL     1      52.625  20.011  21.791  0.00  0.00    +0.404 HD
ENDBRANCH  11  12
BRANCH  15  16
ATOM     16  O   UNL     1      52.553  20.688  16.690  0.00  0.00    -0.304 OA
ATOM     17  C   UNL     1      52.212  19.662  15.757  0.00  0.00    +0.254 C 
ENDBRANCH  15  16
TORSDOF 4
ENDMDL
MODEL 4
REMARK VINA RESULT:      -5.7      2.188      3.118
REMARK  Name = ZINC02030112
REMARK  6 active torsions:
REMARK  status: ('A' for Active; 'I' for Inactive)
REMARK    1  A    between atoms: C1_1  and  O1_2
REMARK    2  A    between atoms: O1_2  and  C2_3
REMARK    3  A    between atoms: C5_6  and  C8_9
REMARK    4  A    between atoms: C12_15  and  O5_23
REMARK    5  A    between atoms: C14_17  and  O4_21
REMARK    6  A    between atoms: O4_21  and  C17_22
REMARK                            x       y       z     vdW  Elec       q    Type
REMARK                         _______ _______ _______ _____ _____    ______ ____
ROOT
ATOM      7  C   UNL     1      48.157  20.958  19.357  0.00  0.00    +0.241 C 
ATOM      8  C   UNL     1      48.069  21.400  20.824  0.00  0.00    +0.033 C 
ATOM      9  C   UNL     1      46.754  22.141  20.992  0.00  0.00    +0.406 C 
ATOM     10  C   UNL     1      45.592  21.582  20.291  0.00  0.00    -0.319 A 
ATOM     11  C   UNL     1      44.296  22.037  20.579  0.00  0.00    +0.246 A 
ATOM     14  C   UNL     1      43.218  21.503  19.896  0.00  0.00    -0.138 A 
ATOM     15  C   UNL     1      43.422  20.521  18.934  0.00  0.00    +0.216 A 
ATOM     18  C   UNL     1      44.702  20.063  18.649  0.00  0.00    -0.058 A 
ATOM     19  C   UNL     1      45.794  20.583  19.322  0.00  0.00    +0.235 A 
ATOM     20  O   UNL     1      46.669  23.144  21.671  0.00  0.00    -0.436 OA
ATOM     21  O   UNL     1      47.038  20.128  19.045  0.00  0.00    -0.297 OA
ENDROOT
BRANCH   7   6
ATOM      3  C   UNL     1      51.774  18.766  18.742  0.00  0.00    +0.138 A 
ATOM      4  C   UNL     1      51.716  20.116  18.422  0.00  0.00    -0.014 A 
ATOM      5  C   UNL     1      50.545  20.822  18.622  0.00  0.00    +0.074 A 
ATOM      6  C   UNL     1      49.432  20.186  19.140  0.00  0.00    -0.133 A 
ATOM     22  C   UNL     1      49.490  18.843  19.465  0.00  0.00    +0.084 A 
ATOM     23  C   UNL     1      50.656  18.130  19.262  0.00  0.00    -0.077 A 
BRANCH   3   2
ATOM      1  C   UNL     1      53.076  16.850  19.276  0.00  0.00    +0.243 C 
ATOM      2  O   UNL     1      52.925  18.070  18.547  0.00  0.00    -0.316 OA
ENDBRANCH   3   2
ENDBRANCH   7   6
BRANCH  11  12
ATOM     12  O   UNL     1      44.101  22.994  21.520  0.00  0.00    -0.481 OA
ATOM     13  H   UNL     1      44.660  23.774  21.410  0.00  0.00    +0.404 HD
ENDBRANCH  11  12
BRANCH  15  16
ATOM     16  O   UNL     1      42.361  20.005  18.266  0.00  0.00    -0.304 OA
ATOM     17  C   UNL     1      41.103  20.661  18.440  0.00  0.00    +0.254 C 
ENDBRANCH  15  16
TORSDOF 4
ENDMDL
MODEL 5
REMARK VINA RESULT:      -5.5      3.583      5.934
REMARK  Name = ZINC02030112
REMARK  6 active torsions:
REMARK  status: ('A' for Active; 'I' for Inactive)
REMARK    1  A    between atoms: C1_1  and  O1_2
REMARK    2  A    between atoms: O1_2  and  C2_3
REMARK    3  A    between atoms: C5_6  and  C8_9
REMARK    4  A    between atoms: C12_15  and  O5_23
REMARK    5  A    between atoms: C14_17  and  O4_21
REMARK    6  A    between atoms: O4_21  and  C17_22
REMARK                            x       y       z     vdW  Elec       q    Type
REMARK                         _______ _______ _______ _____ _____    ______ ____
ROOT
ATOM      7  C   UNL     1      43.970  19.028  20.880  0.00  0.00    +0.241 C 
ATOM      8  C   UNL     1      43.301  19.281  19.521  0.00  0.00    +0.033 C 
ATOM      9  C   UNL     1      42.976  20.762  19.450  0.00  0.00    +0.406 C 
ATOM     10  C   UNL     1      43.985  21.682  19.988  0.00  0.00    -0.319 A 
ATOM     11  C   UNL     1      43.898  23.062  19.745  0.00  0.00    +0.246 A 
ATOM     14  C   UNL     1      44.855  23.909  20.274  0.00  0.00    -0.138 A 
ATOM     15  C   UNL     1      45.894  23.394  21.039  0.00  0.00    +0.216 A 
ATOM     18  C   UNL     1      45.988  22.029  21.278  0.00  0.00    -0.058 A 
ATOM     19  C   UNL     1      45.043  21.163  20.757  0.00  0.00    +0.235 A 
ATOM     20  O   UNL     1      41.936  21.165  18.971  0.00  0.00    -0.436 OA
ATOM     21  O   UNL     1      45.143  19.833  20.987  0.00  0.00    -0.297 OA
ENDROOT
BRANCH   7   6
ATOM      3  C   UNL     1      45.036  14.902  21.201  0.00  0.00    +0.138 A 
ATOM      4  C   UNL     1      45.328  15.607  20.042  0.00  0.00    -0.014 A 
ATOM      5  C   UNL     1      44.983  16.941  19.941  0.00  0.00    +0.074 A 
ATOM      6  C   UNL     1      44.345  17.574  20.993  0.00  0.00    -0.133 A 
ATOM     22  C   UNL     1      44.059  16.874  22.151  0.00  0.00    +0.084 A 
ATOM     23  C   UNL     1      44.397  15.538  22.255  0.00  0.00    -0.077 A 
BRANCH   3   2
ATOM      1  C   UNL     1      46.734  13.295  21.630  0.00  0.00    +0.243 C 
ATOM      2  O   UNL     1      45.375  13.590  21.303  0.00  0.00    -0.316 OA
ENDBRANCH   3   2
ENDBRANCH   7   6
BRANCH  11  12
ATOM     12  O   UNL     1      42.884  23.561  18.996  0.00  0.00    -0.481 OA
ATOM     13  H   UNL     1      42.888  24.525  18.919  0.00  0.00    +0.404 HD
ENDBRANCH  11  12
BRANCH  15  16
ATOM     16  O   UNL     1      46.826  24.232  21.557  0.00  0.00    -0.304 OA
ATOM     17  C   UNL     1      46.614  25.633  21.370  0.00  0.00    +0.254 C 
ENDBRANCH  15  16
TORSDOF 4
ENDMDL
MODEL 6
REMARK VINA RESULT:      -5.4      2.327      7.709
REMARK  Name = ZINC02030112
REMARK  6 active torsions:
REMARK  status: ('A' for Active; 'I' for Inactive)
REMARK    1  A    between atoms: C1_1  and  O1_2
REMARK    2  A    between atoms: O1_2  and  C2_3
REMARK    3  A    between atoms: C5_6  and  C8_9
REMARK    4  A    between atoms: C12_15  and  O5_23
REMARK    5  A    between atoms: C14_17  and  O4_21
REMARK    6  A    between atoms: O4_21  and  C17_22
REMARK                            x       y       z     vdW  Elec       q    Type
REMARK                         _______ _______ _______ _____ _____    ______ ____
ROOT
ATOM      7  C   UNL     1      48.126  19.608  19.261  0.00  0.00    +0.241 C 
ATOM      8  C   UNL     1      49.107  20.700  18.811  0.00  0.00    +0.033 C 
ATOM      9  C   UNL     1      50.485  20.064  18.743  0.00  0.00    +0.406 C 
ATOM     10  C   UNL     1      50.554  18.704  18.199  0.00  0.00    -0.319 A 
ATOM     11  C   UNL     1      51.790  18.130  17.860  0.00  0.00    +0.246 A 
ATOM     14  C   UNL     1      51.828  16.841  17.360  0.00  0.00    -0.138 A 
ATOM     15  C   UNL     1      50.650  16.124  17.193  0.00  0.00    +0.216 A 
ATOM     18  C   UNL     1      49.424  16.688  17.521  0.00  0.00    -0.058 A 
ATOM     19  C   UNL     1      49.362  17.977  18.021  0.00  0.00    +0.235 A 
ATOM     20  O   UNL     1      51.478  20.653  19.119  0.00  0.00    -0.436 OA
ATOM     21  O   UNL     1      48.164  18.526  18.331  0.00  0.00    -0.297 OA
ENDROOT
BRANCH   7   6
ATOM      3  C   UNL     1      44.171  21.220  19.414  0.00  0.00    +0.138 A 
ATOM      4  C   UNL     1      44.423  20.063  18.689  0.00  0.00    -0.014 A 
ATOM      5  C   UNL     1      45.702  19.544  18.641  0.00  0.00    +0.074 A 
ATOM      6  C   UNL     1      46.732  20.176  19.314  0.00  0.00    -0.133 A 
ATOM     22  C   UNL     1      46.482  21.325  20.042  0.00  0.00    +0.084 A 
ATOM     23  C   UNL     1      45.205  21.852  20.088  0.00  0.00    -0.077 A 
BRANCH   3   2
ATOM      1  C   UNL     1      41.871  20.947  18.880  0.00  0.00    +0.243 C 
ATOM      2  O   UNL     1      42.913  21.732  19.462  0.00  0.00    -0.316 OA
ENDBRANCH   3   2
ENDBRANCH   7   6
BRANCH  11  12
ATOM     12  O   UNL     1      52.937  18.834  18.023  0.00  0.00    -0.481 OA
ATOM     13  H   UNL     1      53.140  19.430  17.290  0.00  0.00    +0.404 HD
ENDBRANCH  11  12
BRANCH  15  16
ATOM     16  O   UNL     1      50.697  14.859  16.706  0.00  0.00    -0.304 OA
ATOM     17  C   UNL     1      49.454  14.164  16.581  0.00  0.00    +0.254 C 
ENDBRANCH  15  16
TORSDOF 4
ENDMDL
MODEL 7
REMARK VINA RESULT:      -5.3      4.217      5.804
REMARK  Name = ZINC02030112
REMARK  6 active torsions:
REMARK  status: ('A' for Active; 'I' for Inactive)
REMARK    1  A    between atoms: C1_1  and  O1_2
REMARK    2  A    between atoms: O1_2  and  C2_3
REMARK    3  A    between atoms: C5_6  and  C8_9
REMARK    4  A    between atoms: C12_15  and  O5_23
REMARK    5  A    between atoms: C14_17  and  O4_21
REMARK    6  A    between atoms: O4_21  and  C17_22
REMARK                            x       y       z     vdW  Elec       q    Type
REMARK                         _______ _______ _______ _____ _____    ______ ____
ROOT
ATOM      7  C   UNL     1      47.545  17.345  18.156  0.00  0.00    +0.241 C 
ATOM      8  C   UNL     1      47.039  16.927  19.545  0.00  0.00    +0.033 C 
ATOM      9  C   UNL     1      46.040  15.801  19.337  0.00  0.00    +0.406 C 
ATOM     10  C   UNL     1      46.377  14.805  18.315  0.00  0.00    -0.319 A 
ATOM     11  C   UNL     1      45.658  13.603  18.222  0.00  0.00    +0.246 A 
ATOM     14  C   UNL     1      45.987  12.685  17.241  0.00  0.00    -0.138 A 
ATOM     15  C   UNL     1      47.026  12.954  16.357  0.00  0.00    +0.216 A 
ATOM     18  C   UNL     1      47.745  14.139  16.448  0.00  0.00    -0.058 A 
ATOM     19  C   UNL     1      47.433  15.070  17.423  0.00  0.00    +0.235 A 
ATOM     20  O   UNL     1      45.016  15.730  19.985  0.00  0.00    -0.436 OA
ATOM     21  O   UNL     1      48.141  16.220  17.512  0.00  0.00    -0.297 OA
ENDROOT
BRANCH   7   6
ATOM      3  C   UNL     1      50.446  20.455  18.575  0.00  0.00    +0.138 A 
ATOM      4  C   UNL     1      50.770  19.289  17.896  0.00  0.00    -0.014 A 
ATOM      5  C   UNL     1      49.830  18.285  17.761  0.00  0.00    +0.074 A 
ATOM      6  C   UNL     1      48.568  18.441  18.304  0.00  0.00    -0.133 A 
ATOM     22  C   UNL     1      48.241  19.604  18.976  0.00  0.00    +0.084 A 
ATOM     23  C   UNL     1      49.179  20.609  19.118  0.00  0.00    -0.077 A 
BRANCH   3   2
ATOM      1  C   UNL     1      52.409  21.236  19.665  0.00  0.00    +0.243 C 
ATOM      2  O   UNL     1      51.369  21.444  18.707  0.00  0.00    -0.316 OA
ENDBRANCH   3   2
ENDBRANCH   7   6
BRANCH  11  12
ATOM     12  O   UNL     1      44.647  13.343  19.087  0.00  0.00    -0.481 OA
ATOM     13  H   UNL     1      43.781  13.254  18.666  0.00  0.00    +0.404 HD
ENDBRANCH  11  12
BRANCH  15  16
ATOM     16  O   UNL     1      47.340  12.050  15.396  0.00  0.00    -0.304 OA
ATOM     17  C   UNL     1      48.049  12.537  14.254  0.00  0.00    +0.254 C 
ENDBRANCH  15  16
TORSDOF 4
ENDMDL
MODEL 8
REMARK VINA RESULT:      -5.3      2.008      7.895
REMARK  Name = ZINC02030112
REMARK  6 active torsions:
REMARK  status: ('A' for Active; 'I' for Inactive)
REMARK    1  A    between atoms: C1_1  and  O1_2
REMARK    2  A    between atoms: O1_2  and  C2_3
REMARK    3  A    between atoms: C5_6  and  C8_9
REMARK    4  A    between atoms: C12_15  and  O5_23
REMARK    5  A    between atoms: C14_17  and  O4_21
REMARK    6  A    between atoms: O4_21  and  C17_22
REMARK                            x       y       z     vdW  Elec       q    Type
REMARK                         _______ _______ _______ _____ _____    ______ ____
ROOT
ATOM      7  C   UNL     1      47.599  18.713  18.238  0.00  0.00    +0.241 C 
ATOM      8  C   UNL     1      47.984  17.229  18.311  0.00  0.00    +0.033 C 
ATOM      9  C   UNL     1      49.393  17.104  17.759  0.00  0.00    +0.406 C 
ATOM     10  C   UNL     1      50.341  18.159  18.136  0.00  0.00    -0.319 A 
ATOM     11  C   UNL     1      51.716  18.006  17.893  0.00  0.00    +0.246 A 
ATOM     14  C   UNL     1      52.587  19.021  18.246  0.00  0.00    -0.138 A 
ATOM     15  C   UNL     1      52.101  20.180  18.839  0.00  0.00    +0.216 A 
ATOM     18  C   UNL     1      50.743  20.333  19.088  0.00  0.00    -0.058 A 
ATOM     19  C   UNL     1      49.854  19.330  18.744  0.00  0.00    +0.235 A 
ATOM     20  O   UNL     1      49.719  16.178  17.045  0.00  0.00    -0.436 OA
ATOM     21  O   UNL     1      48.533  19.482  18.995  0.00  0.00    -0.297 OA
ENDROOT
BRANCH   7   6
ATOM      3  C   UNL     1      43.675  19.250  19.847  0.00  0.00    +0.138 A 
ATOM      4  C   UNL     1      44.322  18.030  19.984  0.00  0.00    -0.014 A 
ATOM      5  C   UNL     1      45.591  17.859  19.464  0.00  0.00    +0.074 A 
ATOM      6  C   UNL     1      46.216  18.902  18.805  0.00  0.00    -0.133 A 
ATOM     22  C   UNL     1      45.575  20.121  18.672  0.00  0.00    +0.084 A 
ATOM     23  C   UNL     1      44.304  20.295  19.185  0.00  0.00    -0.077 A 
BRANCH   3   2
ATOM      1  C   UNL     1      41.351  19.508  19.424  0.00  0.00    +0.243 C 
ATOM      2  O   UNL     1      42.428  19.421  20.358  0.00  0.00    -0.316 OA
ENDBRANCH   3   2
ENDBRANCH   7   6
BRANCH  11  12
ATOM     12  O   UNL     1      52.186  16.873  17.315  0.00  0.00    -0.481 OA
ATOM     13  H   UNL     1      52.316  16.141  17.934  0.00  0.00    +0.404 HD
ENDBRANCH  11  12
BRANCH  15  16
ATOM     16  O   UNL     1      52.962  21.171  19.179  0.00  0.00    -0.304 OA
ATOM     17  C   UNL     1      52.633  21.950  20.332  0.00  0.00    +0.254 C 
ENDBRANCH  15  16
TORSDOF 4
ENDMDL
MODEL 9
REMARK VINA RESULT:      -5.2      5.217      8.172
REMARK  Name = ZINC02030112
REMARK  6 active torsions:
REMARK  status: ('A' for Active; 'I' for Inactive)
REMARK    1  A    between atoms: C1_1  and  O1_2
REMARK    2  A    between atoms: O1_2  and  C2_3
REMARK    3  A    between atoms: C5_6  and  C8_9
REMARK    4  A    between atoms: C12_15  and  O5_23
REMARK    5  A    between atoms: C14_17  and  O4_21
REMARK    6  A    between atoms: O4_21  and  C17_22
REMARK                            x       y       z     vdW  Elec       q    Type
REMARK                         _______ _______ _______ _____ _____    ______ ____
ROOT
ATOM      7  C   UNL     1      46.275  15.296  19.138  0.00  0.00    +0.241 C 
ATOM      8  C   UNL     1      47.018  16.191  18.135  0.00  0.00    +0.033 C 
ATOM      9  C   UNL     1      47.930  15.291  17.320  0.00  0.00    +0.406 C 
ATOM     10  C   UNL     1      47.383  13.989  16.923  0.00  0.00    -0.319 A 
ATOM     11  C   UNL     1      48.041  13.197  15.968  0.00  0.00    +0.246 A 
ATOM     14  C   UNL     1      47.511  11.968  15.620  0.00  0.00    -0.138 A 
ATOM     15  C   UNL     1      46.335  11.525  16.212  0.00  0.00    +0.216 A 
ATOM     18  C   UNL     1      45.677  12.306  17.154  0.00  0.00    -0.058 A 
ATOM     19  C   UNL     1      46.189  13.540  17.515  0.00  0.00    +0.235 A 
ATOM     20  O   UNL     1      49.055  15.632  17.013  0.00  0.00    -0.436 OA
ATOM     21  O   UNL     1      45.540  14.300  18.428  0.00  0.00    -0.297 OA
ENDROOT
BRANCH   7   6
ATOM      3  C   UNL     1      43.586  17.677  21.453  0.00  0.00    +0.138 A 
ATOM      4  C   UNL     1      43.958  16.416  21.899  0.00  0.00    -0.014 A 
ATOM      5  C   UNL     1      44.828  15.648  21.149  0.00  0.00    +0.074 A 
ATOM      6  C   UNL     1      45.327  16.135  19.954  0.00  0.00    -0.133 A 
ATOM     22  C   UNL     1      44.963  17.393  19.511  0.00  0.00    +0.084 A 
ATOM     23  C   UNL     1      44.089  18.163  20.255  0.00  0.00    -0.077 A 
BRANCH   3   2
ATOM      1  C   UNL     1      41.562  18.922  21.528  0.00  0.00    +0.243 C 
ATOM      2  O   UNL     1      42.731  18.434  22.190  0.00  0.00    -0.316 OA
ENDBRANCH   3   2
ENDBRANCH   7   6
BRANCH  11  12
ATOM     12  O   UNL     1      49.187  13.635  15.390  0.00  0.00    -0.481 OA
ATOM     13  H   UNL     1      49.850  13.949  16.020  0.00  0.00    +0.404 HD
ENDBRANCH  11  12
BRANCH  15  16
ATOM     16  O   UNL     1      45.824  10.316  15.868  0.00  0.00    -0.304 OA
ATOM     17  C   UNL     1      44.509  10.304  15.307  0.00  0.00    +0.254 C 
ENDBRANCH  15  16
TORSDOF 4
ENDMDL
