MODEL 1
REMARK VINA RESULT:      -7.4      0.000      0.000
REMARK  Name = ZINC95486242
REMARK  14 active torsions:
REMARK  status: ('A' for Active; 'I' for Inactive)
REMARK    1  A    between atoms: C1_1  and  C2_2
REMARK    2  A    between atoms: C6_7  and  C35_51
REMARK    3  A    between atoms: C11_13  and  C23_28
REMARK    4  A    between atoms: C14_16  and  C22_25
REMARK    5  A    between atoms: C17_20  and  C20_23
REMARK    6  A    between atoms: C17_20  and  C21_24
REMARK    7  A    between atoms: C25_30  and  O8_50
REMARK    8  A    between atoms: C26_32  and  O4_38
REMARK    9  A    between atoms: C27_34  and  C28_35
REMARK   10  A    between atoms: C27_34  and  C29_36
REMARK   11  A    between atoms: C29_36  and  O3_37
REMARK   12  A    between atoms: O4_38  and  C30_39
REMARK   13  A    between atoms: C31_41  and  O7_49
REMARK   14  A    between atoms: C32_43  and  O6_48
REMARK                            x       y       z     vdW  Elec       q    Type
REMARK                         _______ _______ _______ _____ _____    ______ ____
ROOT
ATOM      1  C   UNL     1      48.474  16.457  22.206  0.00  0.00    +0.014 C 
ATOM      2  C   UNL     1      48.676  15.783  20.841  0.00  0.00    -0.026 C 
ATOM      3  C   UNL     1      49.017  14.391  21.169  0.00  0.00    +0.015 C 
ATOM      4  C   UNL     1      48.773  13.404  20.030  0.00  0.00    -0.007 C 
ATOM      5  C   UNL     1      47.372  13.460  19.439  0.00  0.00    +0.038 C 
ATOM      6  C   UNL     1      46.797  14.818  19.235  0.00  0.00    -0.014 C 
ATOM      7  C   UNL     1      45.333  14.763  19.490  0.00  0.00    +0.009 C 
ATOM      8  C   UNL     1      46.963  15.479  17.869  0.00  0.00    +0.008 C 
ATOM      9  C   UNL     1      47.567  14.668  16.704  0.00  0.00    +0.129 C 
ATOM     12  C   UNL     1      48.208  13.314  17.070  0.00  0.00    +0.206 C 
ATOM     24  C   UNL     1      47.379  12.663  18.151  0.00  0.00    -0.053 C 
ATOM     28  C   UNL     1      45.944  12.376  17.615  0.00  0.00    +0.052 C 
ATOM     29  C   UNL     1      49.732  16.447  20.038  0.00  0.00    +0.033 C 
ATOM     30  C   UNL     1      49.982  15.719  18.747  0.00  0.00    +0.014 C 
ATOM     31  C   UNL     1      51.002  16.545  20.786  0.00  0.00    +0.017 C 
ATOM     32  C   UNL     1      52.017  17.516  20.162  0.00  0.00    +0.029 C 
ATOM     33  C   UNL     1      51.455  18.935  20.035  0.00  0.00    -0.129 C 
ATOM     37  C   UNL     1      50.183  18.963  19.205  0.00  0.00    +0.063 C 
ATOM     38  C   UNL     1      50.484  18.726  17.654  0.00  0.00    -0.002 C 
ATOM     39  C   UNL     1      51.492  19.726  17.150  0.00  0.00    -0.056 C 
ATOM     40  C   UNL     1      50.958  21.159  17.247  0.00  0.00    +0.013 C 
ATOM     41  C   UNL     1      51.811  19.432  15.740  0.00  0.00    +0.010 C 
ATOM     42  C   UNL     1      52.734  19.669  17.968  0.00  0.00    -0.015 C 
ATOM     43  C   UNL     1      52.472  19.966  19.474  0.00  0.00    +0.033 C 
ATOM     44  C   UNL     1      49.179  17.835  19.565  0.00  0.00    -0.055 C 
ATOM     45  C   UNL     1      47.911  18.165  19.481  0.00  0.00    -0.088 C 
ATOM     46  C   UNL     1      46.770  17.259  19.885  0.00  0.00    +0.044 C 
ATOM     47  C   UNL     1      47.194  15.809  20.278  0.00  0.00    -0.013 C 
ENDROOT
BRANCH  33  34
ATOM     34  C   UNL     1      51.049  19.535  21.405  0.00  0.00    +0.502 C 
ATOM     35  O   UNL     1      50.048  20.223  21.497  0.00  0.00    -0.684 OA
ATOM     36  O   UNL     1      51.733  19.318  22.391  0.00  0.00    -0.705 OA
ENDBRANCH  33  34
BRANCH   9  10
ATOM     10  O   UNL     1      46.608  14.570  15.631  0.00  0.00    -0.548 OA
ATOM     11  H   UNL     1      46.267  15.423  15.329  0.00  0.00    +0.367 HD
ENDBRANCH   9  10
BRANCH  12  13
ATOM     13  O   UNL     1      48.191  12.563  15.853  0.00  0.00    -0.293 OA
BRANCH  13  14
ATOM     14  C   UNL     1      49.488  12.292  15.317  0.00  0.00    +0.320 C 
ATOM     15  C   UNL     1      49.663  13.050  13.998  0.00  0.00    +0.181 C 
ATOM     18  C   UNL     1      51.076  12.804  13.460  0.00  0.00    +0.136 C 
ATOM     21  C   UNL     1      52.095  13.236  14.518  0.00  0.00    -0.024 C 
ATOM     22  C   UNL     1      51.826  12.473  15.817  0.00  0.00    +0.225 C 
ATOM     23  O   UNL     1      50.486  12.720  16.245  0.00  0.00    -0.385 OA
BRANCH  15  16
ATOM     16  O   UNL     1      48.700  12.584  13.049  0.00  0.00    -0.539 OA
ATOM     17  H   UNL     1      48.875  12.868  12.141  0.00  0.00    +0.380 HD
ENDBRANCH  15  16
BRANCH  18  19
ATOM     19  O   UNL     1      51.272  13.563  12.265  0.00  0.00    -0.563 OA
ATOM     20  H   UNL     1      50.469  13.691  11.745  0.00  0.00    +0.383 HD
ENDBRANCH  18  19
ENDBRANCH  13  14
ENDBRANCH  12  13
BRANCH  24  25
ATOM     25  C   UNL     1      48.037  11.273  18.376  0.00  0.00    +0.148 C 
BRANCH  25  26
ATOM     26  O   UNL     1      47.393  10.301  17.551  0.00  0.00    -0.535 OA
ATOM     27  H   UNL     1      47.887   9.475  17.456  0.00  0.00    +0.365 HD
ENDBRANCH  25  26
ENDBRANCH  24  25
TORSDOF 8
ENDMDL
MODEL 2
REMARK VINA RESULT:      -6.3      3.406      6.950
REMARK  Name = ZINC95486242
REMARK  14 active torsions:
REMARK  status: ('A' for Active; 'I' for Inactive)
REMARK    1  A    between atoms: C1_1  and  C2_2
REMARK    2  A    between atoms: C6_7  and  C35_51
REMARK    3  A    between atoms: C11_13  and  C23_28
REMARK    4  A    between atoms: C14_16  and  C22_25
REMARK    5  A    between atoms: C17_20  and  C20_23
REMARK    6  A    between atoms: C17_20  and  C21_24
REMARK    7  A    between atoms: C25_30  and  O8_50
REMARK    8  A    between atoms: C26_32  and  O4_38
REMARK    9  A    between atoms: C27_34  and  C28_35
REMARK   10  A    between atoms: C27_34  and  C29_36
REMARK   11  A    between atoms: C29_36  and  O3_37
REMARK   12  A    between atoms: O4_38  and  C30_39
REMARK   13  A    between atoms: C31_41  and  O7_49
REMARK   14  A    between atoms: C32_43  and  O6_48
REMARK                            x       y       z     vdW  Elec       q    Type
REMARK                         _______ _______ _______ _____ _____    ______ ____
ROOT
ATOM      1  C   UNL     1      45.362  15.400  19.986  0.00  0.00    +0.014 C 
ATOM      2  C   UNL     1      46.668  16.209  19.981  0.00  0.00    -0.026 C 
ATOM      3  C   UNL     1      47.619  15.369  20.723  0.00  0.00    +0.015 C 
ATOM      4  C   UNL     1      49.086  15.685  20.436  0.00  0.00    -0.007 C 
ATOM      5  C   UNL     1      49.451  15.689  18.960  0.00  0.00    +0.038 C 
ATOM      6  C   UNL     1      48.472  16.331  18.040  0.00  0.00    -0.014 C 
ATOM      7  C   UNL     1      48.464  15.587  16.753  0.00  0.00    +0.009 C 
ATOM      8  C   UNL     1      48.673  17.800  17.678  0.00  0.00    +0.008 C 
ATOM      9  C   UNL     1      49.957  18.524  18.134  0.00  0.00    +0.129 C 
ATOM     12  C   UNL     1      50.838  17.778  19.157  0.00  0.00    +0.206 C 
ATOM     24  C   UNL     1      50.827  16.306  18.823  0.00  0.00    -0.053 C 
ATOM     28  C   UNL     1      51.449  16.080  17.412  0.00  0.00    +0.052 C 
ATOM     29  C   UNL     1      46.499  17.548  20.597  0.00  0.00    +0.033 C 
ATOM     30  C   UNL     1      47.806  18.289  20.670  0.00  0.00    +0.014 C 
ATOM     31  C   UNL     1      45.927  17.454  21.956  0.00  0.00    +0.017 C 
ATOM     32  C   UNL     1      45.407  18.791  22.505  0.00  0.00    +0.029 C 
ATOM     33  C   UNL     1      44.335  19.408  21.603  0.00  0.00    -0.129 C 
ATOM     37  C   UNL     1      44.849  19.631  20.191  0.00  0.00    +0.063 C 
ATOM     38  C   UNL     1      45.889  20.842  20.124  0.00  0.00    -0.002 C 
ATOM     39  C   UNL     1      45.279  22.097  20.691  0.00  0.00    -0.056 C 
ATOM     40  C   UNL     1      44.070  22.554  19.870  0.00  0.00    +0.013 C 
ATOM     41  C   UNL     1      46.287  23.174  20.693  0.00  0.00    +0.010 C 
ATOM     42  C   UNL     1      44.798  21.859  22.079  0.00  0.00    -0.015 C 
ATOM     43  C   UNL     1      43.730  20.727  22.156  0.00  0.00    +0.033 C 
ATOM     44  C   UNL     1      45.645  18.425  19.620  0.00  0.00    -0.055 C 
ATOM     45  C   UNL     1      45.494  18.213  18.333  0.00  0.00    -0.088 C 
ATOM     46  C   UNL     1      46.089  17.037  17.593  0.00  0.00    +0.044 C 
ATOM     47  C   UNL     1      47.048  16.145  18.443  0.00  0.00    -0.013 C 
ENDROOT
BRANCH  33  34
ATOM     34  C   UNL     1      43.101  18.487  21.436  0.00  0.00    +0.502 C 
ATOM     35  O   UNL     1      42.842  17.654  22.288  0.00  0.00    -0.684 OA
ATOM     36  O   UNL     1      42.389  18.595  20.453  0.00  0.00    -0.705 OA
ENDBRANCH  33  34
BRANCH   9  10
ATOM     10  O   UNL     1      50.692  18.984  16.981  0.00  0.00    -0.548 OA
ATOM     11  H   UNL     1      50.608  18.411  16.207  0.00  0.00    +0.367 HD
ENDBRANCH   9  10
BRANCH  12  13
ATOM     13  O   UNL     1      52.139  18.355  19.005  0.00  0.00    -0.293 OA
BRANCH  13  14
ATOM     14  C   UNL     1      52.505  19.250  20.057  0.00  0.00    +0.320 C 
ATOM     15  C   UNL     1      52.419  20.693  19.552  0.00  0.00    +0.181 C 
ATOM     18  C   UNL     1      52.755  21.649  20.701  0.00  0.00    +0.136 C 
ATOM     21  C   UNL     1      51.798  21.383  21.866  0.00  0.00    -0.024 C 
ATOM     22  C   UNL     1      51.907  19.914  22.282  0.00  0.00    +0.225 C 
ATOM     23  O   UNL     1      51.613  19.080  21.160  0.00  0.00    -0.385 OA
BRANCH  15  16
ATOM     16  O   UNL     1      53.351  20.881  18.484  0.00  0.00    -0.539 OA
ATOM     17  H   UNL     1      53.536  20.077  17.978  0.00  0.00    +0.380 HD
ENDBRANCH  15  16
BRANCH  18  19
ATOM     19  O   UNL     1      52.609  23.000  20.258  0.00  0.00    -0.563 OA
ATOM     20  H   UNL     1      53.037  23.184  19.412  0.00  0.00    +0.383 HD
ENDBRANCH  18  19
ENDBRANCH  13  14
ENDBRANCH  12  13
BRANCH  24  25
ATOM     25  C   UNL     1      51.815  15.659  19.834  0.00  0.00    +0.148 C 
BRANCH  25  26
ATOM     26  O   UNL     1      53.136  15.678  19.288  0.00  0.00    -0.535 OA
ATOM     27  H   UNL     1      53.664  14.899  19.509  0.00  0.00    +0.365 HD
ENDBRANCH  25  26
ENDBRANCH  24  25
TORSDOF 8
ENDMDL
MODEL 3
REMARK VINA RESULT:      -5.7      2.878      8.079
REMARK  Name = ZINC95486242
REMARK  14 active torsions:
REMARK  status: ('A' for Active; 'I' for Inactive)
REMARK    1  A    between atoms: C1_1  and  C2_2
REMARK    2  A    between atoms: C6_7  and  C35_51
REMARK    3  A    between atoms: C11_13  and  C23_28
REMARK    4  A    between atoms: C14_16  and  C22_25
REMARK    5  A    between atoms: C17_20  and  C20_23
REMARK    6  A    between atoms: C17_20  and  C21_24
REMARK    7  A    between atoms: C25_30  and  O8_50
REMARK    8  A    between atoms: C26_32  and  O4_38
REMARK    9  A    between atoms: C27_34  and  C28_35
REMARK   10  A    between atoms: C27_34  and  C29_36
REMARK   11  A    between atoms: C29_36  and  O3_37
REMARK   12  A    between atoms: O4_38  and  C30_39
REMARK   13  A    between atoms: C31_41  and  O7_49
REMARK   14  A    between atoms: C32_43  and  O6_48
REMARK                            x       y       z     vdW  Elec       q    Type
REMARK                         _______ _______ _______ _____ _____    ______ ____
ROOT
ATOM      1  C   UNL     1      52.343  15.625  19.266  0.00  0.00    +0.014 C 
ATOM      2  C   UNL     1      50.923  16.133  19.555  0.00  0.00    -0.026 C 
ATOM      3  C   UNL     1      50.996  16.653  20.928  0.00  0.00    +0.015 C 
ATOM      4  C   UNL     1      49.895  17.654  21.275  0.00  0.00    -0.007 C 
ATOM      5  C   UNL     1      49.768  18.813  20.297  0.00  0.00    +0.038 C 
ATOM      6  C   UNL     1      49.882  18.471  18.853  0.00  0.00    -0.014 C 
ATOM      7  C   UNL     1      50.566  19.588  18.148  0.00  0.00    +0.009 C 
ATOM      8  C   UNL     1      48.601  18.197  18.068  0.00  0.00    +0.008 C 
ATOM      9  C   UNL     1      47.235  18.441  18.741  0.00  0.00    +0.129 C 
ATOM     12  C   UNL     1      47.255  18.699  20.262  0.00  0.00    +0.206 C 
ATOM     24  C   UNL     1      48.469  19.532  20.596  0.00  0.00    -0.053 C 
ATOM     28  C   UNL     1      48.372  20.915  19.884  0.00  0.00    +0.052 C 
ATOM     29  C   UNL     1      49.905  15.065  19.410  0.00  0.00    +0.033 C 
ATOM     30  C   UNL     1      48.534  15.555  19.788  0.00  0.00    +0.014 C 
ATOM     31  C   UNL     1      50.234  13.884  20.235  0.00  0.00    +0.017 C 
ATOM     32  C   UNL     1      49.428  12.628  19.871  0.00  0.00    +0.029 C 
ATOM     33  C   UNL     1      49.616  12.225  18.406  0.00  0.00    -0.129 C 
ATOM     37  C   UNL     1      49.221  13.346  17.460  0.00  0.00    +0.063 C 
ATOM     38  C   UNL     1      47.637  13.547  17.411  0.00  0.00    -0.002 C 
ATOM     39  C   UNL     1      46.948  12.256  17.052  0.00  0.00    -0.056 C 
ATOM     40  C   UNL     1      47.342  11.781  15.650  0.00  0.00    +0.013 C 
ATOM     41  C   UNL     1      45.487  12.451  17.095  0.00  0.00    +0.010 C 
ATOM     42  C   UNL     1      47.338  11.178  18.001  0.00  0.00    -0.015 C 
ATOM     43  C   UNL     1      48.874  10.919  18.012  0.00  0.00    +0.033 C 
ATOM     44  C   UNL     1      49.760  14.739  17.884  0.00  0.00    -0.055 C 
ATOM     45  C   UNL     1      50.099  15.534  16.896  0.00  0.00    -0.088 C 
ATOM     46  C   UNL     1      50.742  16.890  17.081  0.00  0.00    +0.044 C 
ATOM     47  C   UNL     1      50.845  17.368  18.563  0.00  0.00    -0.013 C 
ENDROOT
BRANCH  33  34
ATOM     34  C   UNL     1      51.095  11.918  18.063  0.00  0.00    +0.502 C 
ATOM     35  O   UNL     1      51.571  12.308  17.011  0.00  0.00    -0.684 OA
ATOM     36  O   UNL     1      51.784  11.287  18.846  0.00  0.00    -0.705 OA
ENDBRANCH  33  34
BRANCH   9  10
ATOM     10  O   UNL     1      46.502  19.442  18.006  0.00  0.00    -0.548 OA
ATOM     11  H   UNL     1      47.063  20.092  17.560  0.00  0.00    +0.367 HD
ENDBRANCH   9  10
BRANCH  12  13
ATOM     13  O   UNL     1      46.035  19.396  20.529  0.00  0.00    -0.293 OA
BRANCH  13  14
ATOM     14  C   UNL     1      45.201  18.759  21.499  0.00  0.00    +0.320 C 
ATOM     15  C   UNL     1      43.824  19.429  21.506  0.00  0.00    +0.181 C 
ATOM     18  C   UNL     1      42.917  18.703  22.504  0.00  0.00    +0.136 C 
ATOM     21  C   UNL     1      42.840  17.222  22.124  0.00  0.00    -0.024 C 
ATOM     22  C   UNL     1      44.254  16.637  22.091  0.00  0.00    +0.225 C 
ATOM     23  O   UNL     1      45.053  17.377  21.167  0.00  0.00    -0.385 OA
BRANCH  15  16
ATOM     16  O   UNL     1      43.962  20.798  21.892  0.00  0.00    -0.539 OA
ATOM     17  H   UNL     1      44.617  21.288  21.375  0.00  0.00    +0.380 HD
ENDBRANCH  15  16
BRANCH  18  19
ATOM     19  O   UNL     1      41.608  19.277  22.467  0.00  0.00    -0.563 OA
ATOM     20  H   UNL     1      41.301  19.611  23.320  0.00  0.00    +0.383 HD
ENDBRANCH  18  19
ENDBRANCH  13  14
ENDBRANCH  12  13
BRANCH  24  25
ATOM     25  C   UNL     1      48.348  19.825  22.117  0.00  0.00    +0.148 C 
BRANCH  25  26
ATOM     26  O   UNL     1      47.666  21.066  22.310  0.00  0.00    -0.535 OA
ATOM     27  H   UNL     1      48.017  21.795  21.780  0.00  0.00    +0.365 HD
ENDBRANCH  25  26
ENDBRANCH  24  25
TORSDOF 8
ENDMDL
MODEL 4
REMARK VINA RESULT:      -5.7      2.552      3.998
REMARK  Name = ZINC95486242
REMARK  14 active torsions:
REMARK  status: ('A' for Active; 'I' for Inactive)
REMARK    1  A    between atoms: C1_1  and  C2_2
REMARK    2  A    between atoms: C6_7  and  C35_51
REMARK    3  A    between atoms: C11_13  and  C23_28
REMARK    4  A    between atoms: C14_16  and  C22_25
REMARK    5  A    between atoms: C17_20  and  C20_23
REMARK    6  A    between atoms: C17_20  and  C21_24
REMARK    7  A    between atoms: C25_30  and  O8_50
REMARK    8  A    between atoms: C26_32  and  O4_38
REMARK    9  A    between atoms: C27_34  and  C28_35
REMARK   10  A    between atoms: C27_34  and  C29_36
REMARK   11  A    between atoms: C29_36  and  O3_37
REMARK   12  A    between atoms: O4_38  and  C30_39
REMARK   13  A    between atoms: C31_41  and  O7_49
REMARK   14  A    between atoms: C32_43  and  O6_48
REMARK                            x       y       z     vdW  Elec       q    Type
REMARK                         _______ _______ _______ _____ _____    ______ ____
ROOT
ATOM      1  C   UNL     1      45.386  16.764  19.488  0.00  0.00    +0.014 C 
ATOM      2  C   UNL     1      46.737  16.036  19.542  0.00  0.00    -0.026 C 
ATOM      3  C   UNL     1      46.591  15.079  20.648  0.00  0.00    +0.015 C 
ATOM      4  C   UNL     1      47.569  13.907  20.593  0.00  0.00    -0.007 C 
ATOM      5  C   UNL     1      47.578  13.159  19.268  0.00  0.00    +0.038 C 
ATOM      6  C   UNL     1      47.521  13.995  18.039  0.00  0.00    -0.014 C 
ATOM      7  C   UNL     1      46.726  13.278  17.007  0.00  0.00    +0.009 C 
ATOM      8  C   UNL     1      48.834  14.386  17.364  0.00  0.00    +0.008 C 
ATOM      9  C   UNL     1      50.156  13.775  17.871  0.00  0.00    +0.129 C 
ATOM     12  C   UNL     1      50.089  13.005  19.206  0.00  0.00    +0.206 C 
ATOM     24  C   UNL     1      48.786  12.244  19.260  0.00  0.00    -0.053 C 
ATOM     28  C   UNL     1      48.738  11.196  18.107  0.00  0.00    +0.052 C 
ATOM     29  C   UNL     1      47.870  16.971  19.752  0.00  0.00    +0.033 C 
ATOM     30  C   UNL     1      49.173  16.234  19.897  0.00  0.00    +0.014 C 
ATOM     31  C   UNL     1      47.664  17.815  20.946  0.00  0.00    +0.017 C 
ATOM     32  C   UNL     1      48.609  19.024  21.023  0.00  0.00    +0.029 C 
ATOM     33  C   UNL     1      48.485  19.933  19.798  0.00  0.00    -0.129 C 
ATOM     37  C   UNL     1      48.764  19.179  18.509  0.00  0.00    +0.063 C 
ATOM     38  C   UNL     1      50.317  18.838  18.348  0.00  0.00    -0.002 C 
ATOM     39  C   UNL     1      51.149  20.090  18.445  0.00  0.00    -0.056 C 
ATOM     40  C   UNL     1      50.828  21.066  17.309  0.00  0.00    +0.013 C 
ATOM     41  C   UNL     1      52.579  19.735  18.377  0.00  0.00    +0.010 C 
ATOM     42  C   UNL     1      50.870  20.802  19.722  0.00  0.00    -0.015 C 
ATOM     43  C   UNL     1      49.372  21.206  19.865  0.00  0.00    +0.033 C 
ATOM     44  C   UNL     1      48.069  17.793  18.434  0.00  0.00    -0.055 C 
ATOM     45  C   UNL     1      47.656  17.437  17.239  0.00  0.00    -0.088 C 
ATOM     46  C   UNL     1      46.864  16.181  16.956  0.00  0.00    +0.044 C 
ATOM     47  C   UNL     1      46.690  15.227  18.179  0.00  0.00    -0.013 C 
ENDROOT
BRANCH  33  34
ATOM     34  C   UNL     1      47.053  20.499  19.624  0.00  0.00    +0.502 C 
ATOM     35  O   UNL     1      46.329  20.634  20.595  0.00  0.00    -0.684 OA
ATOM     36  O   UNL     1      46.651  20.810  18.516  0.00  0.00    -0.705 OA
ENDBRANCH  33  34
BRANCH   9  10
ATOM     10  O   UNL     1      50.782  13.022  16.813  0.00  0.00    -0.548 OA
ATOM     11  H   UNL     1      50.451  12.118  16.725  0.00  0.00    +0.367 HD
ENDBRANCH   9  10
BRANCH  12  13
ATOM     13  O   UNL     1      51.221  12.130  19.178  0.00  0.00    -0.293 OA
BRANCH  13  14
ATOM     14  C   UNL     1      52.276  12.517  20.061  0.00  0.00    +0.320 C 
ATOM     15  C   UNL     1      53.521  12.873  19.243  0.00  0.00    +0.181 C 
ATOM     18  C   UNL     1      54.628  13.343  20.191  0.00  0.00    +0.136 C 
ATOM     21  C   UNL     1      54.113  14.529  21.011  0.00  0.00    -0.024 C 
ATOM     22  C   UNL     1      52.845  14.110  21.760  0.00  0.00    +0.225 C 
ATOM     23  O   UNL     1      51.868  13.654  20.823  0.00  0.00    -0.385 OA
BRANCH  15  16
ATOM     16  O   UNL     1      53.964  11.720  18.523  0.00  0.00    -0.539 OA
ATOM     17  H   UNL     1      53.259  11.260  18.046  0.00  0.00    +0.380 HD
ENDBRANCH  15  16
BRANCH  18  19
ATOM     19  O   UNL     1      55.770  13.744  19.432  0.00  0.00    -0.563 OA
ATOM     20  H   UNL     1      56.240  14.504  19.800  0.00  0.00    +0.383 HD
ENDBRANCH  18  19
ENDBRANCH  13  14
ENDBRANCH  12  13
BRANCH  24  25
ATOM     25  C   UNL     1      48.855  11.425  20.579  0.00  0.00    +0.148 C 
BRANCH  25  26
ATOM     26  O   UNL     1      49.683  10.277  20.384  0.00  0.00    -0.535 OA
ATOM     27  H   UNL     1      50.335  10.137  21.085  0.00  0.00    +0.365 HD
ENDBRANCH  25  26
ENDBRANCH  24  25
TORSDOF 8
ENDMDL
MODEL 5
REMARK VINA RESULT:      -5.7      2.231      7.257
REMARK  Name = ZINC95486242
REMARK  14 active torsions:
REMARK  status: ('A' for Active; 'I' for Inactive)
REMARK    1  A    between atoms: C1_1  and  C2_2
REMARK    2  A    between atoms: C6_7  and  C35_51
REMARK    3  A    between atoms: C11_13  and  C23_28
REMARK    4  A    between atoms: C14_16  and  C22_25
REMARK    5  A    between atoms: C17_20  and  C20_23
REMARK    6  A    between atoms: C17_20  and  C21_24
REMARK    7  A    between atoms: C25_30  and  O8_50
REMARK    8  A    between atoms: C26_32  and  O4_38
REMARK    9  A    between atoms: C27_34  and  C28_35
REMARK   10  A    between atoms: C27_34  and  C29_36
REMARK   11  A    between atoms: C29_36  and  O3_37
REMARK   12  A    between atoms: O4_38  and  C30_39
REMARK   13  A    between atoms: C31_41  and  O7_49
REMARK   14  A    between atoms: C32_43  and  O6_48
REMARK                            x       y       z     vdW  Elec       q    Type
REMARK                         _______ _______ _______ _____ _____    ______ ____
ROOT
ATOM      1  C   UNL     1      46.302  13.831  17.474  0.00  0.00    +0.014 C 
ATOM      2  C   UNL     1      46.880  15.141  18.028  0.00  0.00    -0.026 C 
ATOM      3  C   UNL     1      46.470  16.161  17.051  0.00  0.00    +0.015 C 
ATOM      4  C   UNL     1      46.469  17.586  17.601  0.00  0.00    -0.007 C 
ATOM      5  C   UNL     1      45.675  17.763  18.886  0.00  0.00    +0.038 C 
ATOM      6  C   UNL     1      45.826  16.690  19.907  0.00  0.00    -0.014 C 
ATOM      7  C   UNL     1      44.526  16.505  20.605  0.00  0.00    +0.009 C 
ATOM      8  C   UNL     1      46.872  16.874  21.004  0.00  0.00    +0.008 C 
ATOM      9  C   UNL     1      47.617  18.219  21.122  0.00  0.00    +0.129 C 
ATOM     12  C   UNL     1      47.440  19.207  19.949  0.00  0.00    +0.206 C 
ATOM     24  C   UNL     1      46.015  19.124  19.458  0.00  0.00    -0.053 C 
ATOM     28  C   UNL     1      45.039  19.559  20.593  0.00  0.00    +0.052 C 
ATOM     29  C   UNL     1      48.352  15.079  18.194  0.00  0.00    +0.033 C 
ATOM     30  C   UNL     1      48.912  16.399  18.647  0.00  0.00    +0.014 C 
ATOM     31  C   UNL     1      49.024  14.680  16.940  0.00  0.00    +0.017 C 
ATOM     32  C   UNL     1      50.491  14.261  17.128  0.00  0.00    +0.029 C 
ATOM     33  C   UNL     1      50.637  13.097  18.111  0.00  0.00    -0.129 C 
ATOM     37  C   UNL     1      50.051  13.434  19.472  0.00  0.00    +0.063 C 
ATOM     38  C   UNL     1      50.960  14.482  20.264  0.00  0.00    -0.002 C 
ATOM     39  C   UNL     1      52.374  13.974  20.384  0.00  0.00    -0.056 C 
ATOM     40  C   UNL     1      52.437  12.681  21.202  0.00  0.00    +0.013 C 
ATOM     41  C   UNL     1      53.207  14.996  21.046  0.00  0.00    +0.010 C 
ATOM     42  C   UNL     1      52.931  13.666  19.039  0.00  0.00    -0.015 C 
ATOM     43  C   UNL     1      52.097  12.594  18.278  0.00  0.00    +0.033 C 
ATOM     44  C   UNL     1      48.663  14.127  19.398  0.00  0.00    -0.055 C 
ATOM     45  C   UNL     1      47.828  13.811  20.361  0.00  0.00    -0.088 C 
ATOM     46  C   UNL     1      46.393  14.285  20.427  0.00  0.00    +0.044 C 
ATOM     47  C   UNL     1      45.996  15.324  19.332  0.00  0.00    -0.013 C 
ENDROOT
BRANCH  33  34
ATOM     34  C   UNL     1      49.869  11.833  17.650  0.00  0.00    +0.502 C 
ATOM     35  O   UNL     1      49.294  11.136  18.468  0.00  0.00    -0.684 OA
ATOM     36  O   UNL     1      49.840  11.536  16.468  0.00  0.00    -0.705 OA
ENDBRANCH  33  34
BRANCH   9  10
ATOM     10  O   UNL     1      47.350  18.813  22.408  0.00  0.00    -0.548 OA
ATOM     11  H   UNL     1      47.034  19.726  22.362  0.00  0.00    +0.367 HD
ENDBRANCH   9  10
BRANCH  12  13
ATOM     13  O   UNL     1      47.743  20.489  20.506  0.00  0.00    -0.293 OA
BRANCH  13  14
ATOM     14  C   UNL     1      49.014  21.010  20.110  0.00  0.00    +0.320 C 
ATOM     15  C   UNL     1      50.099  20.479  21.051  0.00  0.00    +0.181 C 
ATOM     18  C   UNL     1      51.464  20.993  20.584  0.00  0.00    +0.136 C 
ATOM     21  C   UNL     1      51.691  20.559  19.133  0.00  0.00    -0.024 C 
ATOM     22  C   UNL     1      50.545  21.086  18.266  0.00  0.00    +0.225 C 
ATOM     23  O   UNL     1      49.303  20.597  18.773  0.00  0.00    -0.385 OA
BRANCH  15  16
ATOM     16  O   UNL     1      49.842  20.938  22.380  0.00  0.00    -0.539 OA
ATOM     17  H   UNL     1      50.592  21.391  22.791  0.00  0.00    +0.380 HD
ENDBRANCH  15  16
BRANCH  18  19
ATOM     19  O   UNL     1      52.491  20.446  21.415  0.00  0.00    -0.563 OA
ATOM     20  H   UNL     1      53.140  21.095  21.717  0.00  0.00    +0.383 HD
ENDBRANCH  18  19
ENDBRANCH  13  14
ENDBRANCH  12  13
BRANCH  24  25
ATOM     25  C   UNL     1      45.906  20.217  18.359  0.00  0.00    +0.148 C 
BRANCH  25  26
ATOM     26  O   UNL     1      45.174  21.334  18.868  0.00  0.00    -0.535 OA
ATOM     27  H   UNL     1      45.188  21.408  19.832  0.00  0.00    +0.365 HD
ENDBRANCH  25  26
ENDBRANCH  24  25
TORSDOF 8
ENDMDL
MODEL 6
REMARK VINA RESULT:      -5.6      2.649      5.674
REMARK  Name = ZINC95486242
REMARK  14 active torsions:
REMARK  status: ('A' for Active; 'I' for Inactive)
REMARK    1  A    between atoms: C1_1  and  C2_2
REMARK    2  A    between atoms: C6_7  and  C35_51
REMARK    3  A    between atoms: C11_13  and  C23_28
REMARK    4  A    between atoms: C14_16  and  C22_25
REMARK    5  A    between atoms: C17_20  and  C20_23
REMARK    6  A    between atoms: C17_20  and  C21_24
REMARK    7  A    between atoms: C25_30  and  O8_50
REMARK    8  A    between atoms: C26_32  and  O4_38
REMARK    9  A    between atoms: C27_34  and  C28_35
REMARK   10  A    between atoms: C27_34  and  C29_36
REMARK   11  A    between atoms: C29_36  and  O3_37
REMARK   12  A    between atoms: O4_38  and  C30_39
REMARK   13  A    between atoms: C31_41  and  O7_49
REMARK   14  A    between atoms: C32_43  and  O6_48
REMARK                            x       y       z     vdW  Elec       q    Type
REMARK                         _______ _______ _______ _____ _____    ______ ____
ROOT
ATOM      1  C   UNL     1      50.214  21.201  20.253  0.00  0.00    +0.014 C 
ATOM      2  C   UNL     1      49.774  19.844  19.685  0.00  0.00    -0.026 C 
ATOM      3  C   UNL     1      50.463  19.751  18.390  0.00  0.00    +0.015 C 
ATOM      4  C   UNL     1      50.608  18.326  17.861  0.00  0.00    -0.007 C 
ATOM      5  C   UNL     1      51.239  17.352  18.844  0.00  0.00    +0.038 C 
ATOM      6  C   UNL     1      50.788  17.460  20.259  0.00  0.00    -0.014 C 
ATOM      7  C   UNL     1      51.939  17.161  21.153  0.00  0.00    +0.009 C 
ATOM      8  C   UNL     1      49.645  16.564  20.728  0.00  0.00    +0.008 C 
ATOM      9  C   UNL     1      49.105  15.470  19.784  0.00  0.00    +0.129 C 
ATOM     12  C   UNL     1      49.588  15.527  18.320  0.00  0.00    +0.206 C 
ATOM     24  C   UNL     1      51.037  15.951  18.304  0.00  0.00    -0.053 C 
ATOM     28  C   UNL     1      51.905  14.891  19.047  0.00  0.00    +0.052 C 
ATOM     29  C   UNL     1      48.301  19.744  19.548  0.00  0.00    +0.033 C 
ATOM     30  C   UNL     1      47.893  18.448  18.904  0.00  0.00    +0.014 C 
ATOM     31  C   UNL     1      47.751  20.864  18.757  0.00  0.00    +0.017 C 
ATOM     32  C   UNL     1      46.226  21.015  18.870  0.00  0.00    +0.029 C 
ATOM     33  C   UNL     1      45.772  21.217  20.319  0.00  0.00    -0.129 C 
ATOM     37  C   UNL     1      46.213  20.069  21.210  0.00  0.00    +0.063 C 
ATOM     38  C   UNL     1      45.377  18.739  20.920  0.00  0.00    -0.002 C 
ATOM     39  C   UNL     1      43.899  19.002  21.053  0.00  0.00    -0.056 C 
ATOM     40  C   UNL     1      43.528  19.412  22.481  0.00  0.00    +0.013 C 
ATOM     41  C   UNL     1      43.150  17.781  20.700  0.00  0.00    +0.010 C 
ATOM     42  C   UNL     1      43.488  20.118  20.159  0.00  0.00    -0.015 C 
ATOM     43  C   UNL     1      44.243  21.444  20.473  0.00  0.00    +0.033 C 
ATOM     44  C   UNL     1      47.688  19.636  20.986  0.00  0.00    -0.055 C 
ATOM     45  C   UNL     1      48.328  19.245  22.064  0.00  0.00    -0.088 C 
ATOM     46  C   UNL     1      49.795  18.884  22.094  0.00  0.00    +0.044 C 
ATOM     47  C   UNL     1      50.491  18.855  20.697  0.00  0.00    -0.013 C 
ENDROOT
BRANCH  33  34
ATOM     34  C   UNL     1      46.392  22.481  20.963  0.00  0.00    +0.502 C 
ATOM     35  O   UNL     1      47.251  22.371  21.820  0.00  0.00    -0.684 OA
ATOM     36  O   UNL     1      46.022  23.588  20.610  0.00  0.00    -0.705 OA
ENDBRANCH  33  34
BRANCH   9  10
ATOM     10  O   UNL     1      49.284  14.173  20.390  0.00  0.00    -0.548 OA
ATOM     11  H   UNL     1      49.778  14.192  21.221  0.00  0.00    +0.367 HD
ENDBRANCH   9  10
BRANCH  12  13
ATOM     13  O   UNL     1      49.412  14.195  17.828  0.00  0.00    -0.293 OA
BRANCH  13  14
ATOM     14  C   UNL     1      48.106  13.934  17.310  0.00  0.00    +0.320 C 
ATOM     15  C   UNL     1      48.207  12.947  16.144  0.00  0.00    +0.181 C 
ATOM     18  C   UNL     1      46.798  12.625  15.634  0.00  0.00    +0.136 C 
ATOM     21  C   UNL     1      45.963  12.073  16.792  0.00  0.00    -0.024 C 
ATOM     22  C   UNL     1      45.949  13.092  17.934  0.00  0.00    +0.225 C 
ATOM     23  O   UNL     1      47.290  13.370  18.339  0.00  0.00    -0.385 OA
BRANCH  15  16
ATOM     16  O   UNL     1      48.976  13.531  15.091  0.00  0.00    -0.539 OA
ATOM     17  H   UNL     1      49.789  13.962  15.390  0.00  0.00    +0.380 HD
ENDBRANCH  15  16
BRANCH  18  19
ATOM     19  O   UNL     1      46.878  11.651  14.592  0.00  0.00    -0.563 OA
ATOM     20  H   UNL     1      46.067  11.562  14.075  0.00  0.00    +0.383 HD
ENDBRANCH  18  19
ENDBRANCH  13  14
ENDBRANCH  12  13
BRANCH  24  25
ATOM     25  C   UNL     1      51.459  15.879  16.810  0.00  0.00    +0.148 C 
BRANCH  25  26
ATOM     26  O   UNL     1      51.474  14.515  16.385  0.00  0.00    -0.535 OA
ATOM     27  H   UNL     1      51.306  14.395  15.440  0.00  0.00    +0.365 HD
ENDBRANCH  25  26
ENDBRANCH  24  25
TORSDOF 8
ENDMDL
MODEL 7
REMARK VINA RESULT:      -5.5      1.470      2.103
REMARK  Name = ZINC95486242
REMARK  14 active torsions:
REMARK  status: ('A' for Active; 'I' for Inactive)
REMARK    1  A    between atoms: C1_1  and  C2_2
REMARK    2  A    between atoms: C6_7  and  C35_51
REMARK    3  A    between atoms: C11_13  and  C23_28
REMARK    4  A    between atoms: C14_16  and  C22_25
REMARK    5  A    between atoms: C17_20  and  C20_23
REMARK    6  A    between atoms: C17_20  and  C21_24
REMARK    7  A    between atoms: C25_30  and  O8_50
REMARK    8  A    between atoms: C26_32  and  O4_38
REMARK    9  A    between atoms: C27_34  and  C28_35
REMARK   10  A    between atoms: C27_34  and  C29_36
REMARK   11  A    between atoms: C29_36  and  O3_37
REMARK   12  A    between atoms: O4_38  and  C30_39
REMARK   13  A    between atoms: C31_41  and  O7_49
REMARK   14  A    between atoms: C32_43  and  O6_48
REMARK                            x       y       z     vdW  Elec       q    Type
REMARK                         _______ _______ _______ _____ _____    ______ ____
ROOT
ATOM      1  C   UNL     1      48.088  18.526  22.344  0.00  0.00    +0.014 C 
ATOM      2  C   UNL     1      48.405  17.462  21.282  0.00  0.00    -0.026 C 
ATOM      3  C   UNL     1      48.658  16.239  22.057  0.00  0.00    +0.015 C 
ATOM      4  C   UNL     1      48.496  14.948  21.257  0.00  0.00    -0.007 C 
ATOM      5  C   UNL     1      47.168  14.824  20.527  0.00  0.00    +0.038 C 
ATOM      6  C   UNL     1      46.668  16.054  19.854  0.00  0.00    -0.014 C 
ATOM      7  C   UNL     1      45.184  16.085  19.952  0.00  0.00    +0.009 C 
ATOM      8  C   UNL     1      46.998  16.259  18.378  0.00  0.00    +0.008 C 
ATOM      9  C   UNL     1      47.688  15.126  17.592  0.00  0.00    +0.129 C 
ATOM     12  C   UNL     1      48.238  13.949  18.425  0.00  0.00    +0.206 C 
ATOM     24  C   UNL     1      47.278  13.667  19.556  0.00  0.00    -0.053 C 
ATOM     28  C   UNL     1      45.896  13.233  18.980  0.00  0.00    +0.052 C 
ATOM     29  C   UNL     1      49.562  17.842  20.435  0.00  0.00    +0.033 C 
ATOM     30  C   UNL     1      49.917  16.750  19.465  0.00  0.00    +0.014 C 
ATOM     31  C   UNL     1      50.751  18.162  21.251  0.00  0.00    +0.017 C 
ATOM     32  C   UNL     1      51.860  18.889  20.475  0.00  0.00    +0.029 C 
ATOM     33  C   UNL     1      51.367  20.201  19.857  0.00  0.00    -0.129 C 
ATOM     37  C   UNL     1      50.189  19.975  18.925  0.00  0.00    +0.063 C 
ATOM     38  C   UNL     1      50.640  19.269  17.564  0.00  0.00    -0.002 C 
ATOM     39  C   UNL     1      51.731  20.061  16.891  0.00  0.00    -0.056 C 
ATOM     40  C   UNL     1      51.243  21.454  16.484  0.00  0.00    +0.013 C 
ATOM     41  C   UNL     1      52.183  19.344  15.683  0.00  0.00    +0.010 C 
ATOM     42  C   UNL     1      52.878  20.255  17.817  0.00  0.00    -0.015 C 
ATOM     43  C   UNL     1      52.473  21.005  19.122  0.00  0.00    +0.033 C 
ATOM     44  C   UNL     1      49.112  19.017  19.501  0.00  0.00    -0.055 C 
ATOM     45  C   UNL     1      47.873  19.309  19.181  0.00  0.00    -0.088 C 
ATOM     46  C   UNL     1      46.663  18.576  19.716  0.00  0.00    +0.044 C 
ATOM     47  C   UNL     1      46.990  17.317  20.580  0.00  0.00    -0.013 C 
ENDROOT
BRANCH  33  34
ATOM     34  C   UNL     1      50.844  21.196  20.923  0.00  0.00    +0.502 C 
ATOM     35  O   UNL     1      49.649  21.417  21.018  0.00  0.00    -0.684 OA
ATOM     36  O   UNL     1      51.629  21.759  21.668  0.00  0.00    -0.705 OA
ENDBRANCH  33  34
BRANCH   9  10
ATOM     10  O   UNL     1      46.842  14.703  16.503  0.00  0.00    -0.548 OA
ATOM     11  H   UNL     1      47.293  14.160  15.843  0.00  0.00    +0.367 HD
ENDBRANCH   9  10
BRANCH  12  13
ATOM     13  O   UNL     1      48.318  12.858  17.503  0.00  0.00    -0.293 OA
BRANCH  13  14
ATOM     14  C   UNL     1      49.524  12.832  16.736  0.00  0.00    +0.320 C 
ATOM     15  C   UNL     1      50.302  11.552  17.052  0.00  0.00    +0.181 C 
ATOM     18  C   UNL     1      51.562  11.502  16.182  0.00  0.00    +0.136 C 
ATOM     21  C   UNL     1      51.155  11.586  14.708  0.00  0.00    -0.024 C 
ATOM     22  C   UNL     1      50.343  12.864  14.482  0.00  0.00    +0.225 C 
ATOM     23  O   UNL     1      49.203  12.861  15.343  0.00  0.00    -0.385 OA
BRANCH  15  16
ATOM     16  O   UNL     1      50.672  11.547  18.432  0.00  0.00    -0.539 OA
ATOM     17  H   UNL     1      50.466  12.370  18.897  0.00  0.00    +0.380 HD
ENDBRANCH  15  16
BRANCH  18  19
ATOM     19  O   UNL     1      52.259  10.277  16.419  0.00  0.00    -0.563 OA
ATOM     20  H   UNL     1      51.680   9.514  16.544  0.00  0.00    +0.383 HD
ENDBRANCH  18  19
ENDBRANCH  13  14
ENDBRANCH  12  13
BRANCH  24  25
ATOM     25  C   UNL     1      47.857  12.413  20.268  0.00  0.00    +0.148 C 
BRANCH  25  26
ATOM     26  O   UNL     1      47.183  12.218  21.513  0.00  0.00    -0.535 OA
ATOM     27  H   UNL     1      47.348  11.356  21.919  0.00  0.00    +0.365 HD
ENDBRANCH  25  26
ENDBRANCH  24  25
TORSDOF 8
ENDMDL
MODEL 8
REMARK VINA RESULT:      -5.4      3.041      5.151
REMARK  Name = ZINC95486242
REMARK  14 active torsions:
REMARK  status: ('A' for Active; 'I' for Inactive)
REMARK    1  A    between atoms: C1_1  and  C2_2
REMARK    2  A    between atoms: C6_7  and  C35_51
REMARK    3  A    between atoms: C11_13  and  C23_28
REMARK    4  A    between atoms: C14_16  and  C22_25
REMARK    5  A    between atoms: C17_20  and  C20_23
REMARK    6  A    between atoms: C17_20  and  C21_24
REMARK    7  A    between atoms: C25_30  and  O8_50
REMARK    8  A    between atoms: C26_32  and  O4_38
REMARK    9  A    between atoms: C27_34  and  C28_35
REMARK   10  A    between atoms: C27_34  and  C29_36
REMARK   11  A    between atoms: C29_36  and  O3_37
REMARK   12  A    between atoms: O4_38  and  C30_39
REMARK   13  A    between atoms: C31_41  and  O7_49
REMARK   14  A    between atoms: C32_43  and  O6_48
REMARK                            x       y       z     vdW  Elec       q    Type
REMARK                         _______ _______ _______ _____ _____    ______ ____
ROOT
ATOM      1  C   UNL     1      45.205  13.913  19.582  0.00  0.00    +0.014 C 
ATOM      2  C   UNL     1      46.732  14.066  19.522  0.00  0.00    -0.026 C 
ATOM      3  C   UNL     1      47.241  12.953  20.335  0.00  0.00    +0.015 C 
ATOM      4  C   UNL     1      48.690  12.573  20.036  0.00  0.00    -0.007 C 
ATOM      5  C   UNL     1      48.978  12.304  18.566  0.00  0.00    +0.038 C 
ATOM      6  C   UNL     1      48.353  13.239  17.591  0.00  0.00    -0.014 C 
ATOM      7  C   UNL     1      47.984  12.479  16.367  0.00  0.00    +0.009 C 
ATOM      8  C   UNL     1      49.165  14.440  17.114  0.00  0.00    +0.008 C 
ATOM      9  C   UNL     1      50.648  14.561  17.520  0.00  0.00    +0.129 C 
ATOM     12  C   UNL     1      51.144  13.584  18.607  0.00  0.00    +0.206 C 
ATOM     24  C   UNL     1      50.482  12.245  18.391  0.00  0.00    -0.053 C 
ATOM     28  C   UNL     1      50.902  11.664  17.007  0.00  0.00    +0.052 C 
ATOM     29  C   UNL     1      47.183  15.386  20.027  0.00  0.00    +0.033 C 
ATOM     30  C   UNL     1      48.683  15.484  20.050  0.00  0.00    +0.014 C 
ATOM     31  C   UNL     1      46.666  15.654  21.385  0.00  0.00    +0.017 C 
ATOM     32  C   UNL     1      46.798  17.121  21.821  0.00  0.00    +0.029 C 
ATOM     33  C   UNL     1      46.078  18.076  20.865  0.00  0.00    -0.129 C 
ATOM     37  C   UNL     1      46.598  17.943  19.443  0.00  0.00    +0.063 C 
ATOM     38  C   UNL     1      48.060  18.568  19.287  0.00  0.00    -0.002 C 
ATOM     39  C   UNL     1      48.076  20.003  19.748  0.00  0.00    -0.056 C 
ATOM     40  C   UNL     1      47.165  20.880  18.884  0.00  0.00    +0.013 C 
ATOM     41  C   UNL     1      49.453  20.526  19.670  0.00  0.00    +0.010 C 
ATOM     42  C   UNL     1      47.579  20.105  21.147  0.00  0.00    -0.015 C 
ATOM     43  C   UNL     1      46.127  19.564  21.305  0.00  0.00    +0.033 C 
ATOM     44  C   UNL     1      46.770  16.472  18.977  0.00  0.00    -0.055 C 
ATOM     45  C   UNL     1      46.505  16.251  17.710  0.00  0.00    -0.088 C 
ATOM     46  C   UNL     1      46.506  14.881  17.070  0.00  0.00    +0.044 C 
ATOM     47  C   UNL     1      47.002  13.727  17.996  0.00  0.00    -0.013 C 
ENDROOT
BRANCH  33  34
ATOM     34  C   UNL     1      44.562  17.777  20.763  0.00  0.00    +0.502 C 
ATOM     35  O   UNL     1      43.998  17.171  21.657  0.00  0.00    -0.684 OA
ATOM     36  O   UNL     1      43.932  18.151  19.788  0.00  0.00    -0.705 OA
ENDBRANCH  33  34
BRANCH   9  10
ATOM     10  O   UNL     1      51.477  14.565  16.340  0.00  0.00    -0.548 OA
ATOM     11  H   UNL     1      52.385  14.857  16.499  0.00  0.00    +0.367 HD
ENDBRANCH   9  10
BRANCH  12  13
ATOM     13  O   UNL     1      52.561  13.520  18.418  0.00  0.00    -0.293 OA
BRANCH  13  14
ATOM     14  C   UNL     1      53.314  14.165  19.447  0.00  0.00    +0.320 C 
ATOM     15  C   UNL     1      54.673  13.475  19.593  0.00  0.00    +0.181 C 
ATOM     18  C   UNL     1      55.498  14.208  20.655  0.00  0.00    +0.136 C 
ATOM     21  C   UNL     1      55.633  15.679  20.254  0.00  0.00    -0.024 C 
ATOM     22  C   UNL     1      54.238  16.285  20.082  0.00  0.00    +0.225 C 
ATOM     23  O   UNL     1      53.513  15.537  19.104  0.00  0.00    -0.385 OA
BRANCH  15  16
ATOM     16  O   UNL     1      54.478  12.116  19.991  0.00  0.00    -0.539 OA
ATOM     17  H   UNL     1      53.563  11.901  20.218  0.00  0.00    +0.380 HD
ENDBRANCH  15  16
BRANCH  18  19
ATOM     19  O   UNL     1      56.795  13.614  20.748  0.00  0.00    -0.563 OA
ATOM     20  H   UNL     1      57.516  14.254  20.809  0.00  0.00    +0.383 HD
ENDBRANCH  18  19
ENDBRANCH  13  14
ENDBRANCH  12  13
BRANCH  24  25
ATOM     25  C   UNL     1      51.116  11.309  19.458  0.00  0.00    +0.148 C 
BRANCH  25  26
ATOM     26  O   UNL     1      52.249  10.645  18.896  0.00  0.00    -0.535 OA
ATOM     27  H   UNL     1      52.963  11.241  18.630  0.00  0.00    +0.365 HD
ENDBRANCH  25  26
ENDBRANCH  24  25
TORSDOF 8
ENDMDL
MODEL 9
REMARK VINA RESULT:      -5.2      2.591      8.547
REMARK  Name = ZINC95486242
REMARK  14 active torsions:
REMARK  status: ('A' for Active; 'I' for Inactive)
REMARK    1  A    between atoms: C1_1  and  C2_2
REMARK    2  A    between atoms: C6_7  and  C35_51
REMARK    3  A    between atoms: C11_13  and  C23_28
REMARK    4  A    between atoms: C14_16  and  C22_25
REMARK    5  A    between atoms: C17_20  and  C20_23
REMARK    6  A    between atoms: C17_20  and  C21_24
REMARK    7  A    between atoms: C25_30  and  O8_50
REMARK    8  A    between atoms: C26_32  and  O4_38
REMARK    9  A    between atoms: C27_34  and  C28_35
REMARK   10  A    between atoms: C27_34  and  C29_36
REMARK   11  A    between atoms: C29_36  and  O3_37
REMARK   12  A    between atoms: O4_38  and  C30_39
REMARK   13  A    between atoms: C31_41  and  O7_49
REMARK   14  A    between atoms: C32_43  and  O6_48
REMARK                            x       y       z     vdW  Elec       q    Type
REMARK                         _______ _______ _______ _____ _____    ______ ____
ROOT
ATOM      1  C   UNL     1      53.269  15.516  19.226  0.00  0.00    +0.014 C 
ATOM      2  C   UNL     1      52.238  16.516  19.771  0.00  0.00    -0.026 C 
ATOM      3  C   UNL     1      52.871  17.071  20.975  0.00  0.00    +0.015 C 
ATOM      4  C   UNL     1      52.305  18.420  21.413  0.00  0.00    -0.007 C 
ATOM      5  C   UNL     1      52.279  19.476  20.318  0.00  0.00    +0.038 C 
ATOM      6  C   UNL     1      51.850  19.015  18.968  0.00  0.00    -0.014 C 
ATOM      7  C   UNL     1      52.621  19.762  17.939  0.00  0.00    +0.009 C 
ATOM      8  C   UNL     1      50.380  19.162  18.584  0.00  0.00    +0.008 C 
ATOM      9  C   UNL     1      49.425  19.923  19.525  0.00  0.00    +0.129 C 
ATOM     12  C   UNL     1      49.969  20.263  20.928  0.00  0.00    +0.206 C 
ATOM     24  C   UNL     1      51.428  20.630  20.805  0.00  0.00    -0.053 C 
ATOM     28  C   UNL     1      51.579  21.904  19.919  0.00  0.00    +0.052 C 
ATOM     29  C   UNL     1      50.934  15.873  20.064  0.00  0.00    +0.033 C 
ATOM     30  C   UNL     1      49.968  16.845  20.684  0.00  0.00    +0.014 C 
ATOM     31  C   UNL     1      51.090  14.714  20.966  0.00  0.00    +0.017 C 
ATOM     32  C   UNL     1      49.853  13.806  21.030  0.00  0.00    +0.029 C 
ATOM     33  C   UNL     1      49.466  13.260  19.653  0.00  0.00    -0.129 C 
ATOM     37  C   UNL     1      49.196  14.378  18.662  0.00  0.00    +0.063 C 
ATOM     38  C   UNL     1      47.820  15.128  18.975  0.00  0.00    -0.002 C 
ATOM     39  C   UNL     1      46.678  14.145  19.020  0.00  0.00    -0.056 C 
ATOM     40  C   UNL     1      46.471  13.464  17.663  0.00  0.00    +0.013 C 
ATOM     41  C   UNL     1      45.438  14.851  19.391  0.00  0.00    +0.010 C 
ATOM     42  C   UNL     1      46.958  13.069  20.008  0.00  0.00    -0.015 C 
ATOM     43  C   UNL     1      48.261  12.280  19.680  0.00  0.00    +0.033 C 
ATOM     44  C   UNL     1      50.254  15.514  18.699  0.00  0.00    -0.055 C 
ATOM     45  C   UNL     1      50.528  16.064  17.539  0.00  0.00    -0.088 C 
ATOM     46  C   UNL     1      51.599  17.111  17.329  0.00  0.00    +0.044 C 
ATOM     47  C   UNL     1      52.278  17.625  18.637  0.00  0.00    -0.013 C 
ENDROOT
BRANCH  33  34
ATOM     34  C   UNL     1      50.599  12.423  19.009  0.00  0.00    +0.502 C 
ATOM     35  O   UNL     1      51.243  11.642  19.689  0.00  0.00    -0.684 OA
ATOM     36  O   UNL     1      50.846  12.544  17.822  0.00  0.00    -0.705 OA
ENDBRANCH  33  34
BRANCH   9  10
ATOM     10  O   UNL     1      48.873  21.066  18.839  0.00  0.00    -0.548 OA
ATOM     11  H   UNL     1      49.133  21.916  19.219  0.00  0.00    +0.367 HD
ENDBRANCH   9  10
BRANCH  12  13
ATOM     13  O   UNL     1      49.172  21.367  21.369  0.00  0.00    -0.293 OA
BRANCH  13  14
ATOM     14  C   UNL     1      47.957  20.985  22.017  0.00  0.00    +0.320 C 
ATOM     15  C   UNL     1      46.922  22.103  21.861  0.00  0.00    +0.181 C 
ATOM     18  C   UNL     1      45.604  21.662  22.505  0.00  0.00    +0.136 C 
ATOM     21  C   UNL     1      45.147  20.352  21.859  0.00  0.00    -0.024 C 
ATOM     22  C   UNL     1      46.249  19.302  22.014  0.00  0.00    +0.225 C 
ATOM     23  O   UNL     1      47.455  19.787  21.422  0.00  0.00    -0.385 OA
BRANCH  15  16
ATOM     16  O   UNL     1      47.399  23.287  22.505  0.00  0.00    -0.539 OA
ATOM     17  H   UNL     1      48.312  23.224  22.818  0.00  0.00    +0.380 HD
ENDBRANCH  15  16
BRANCH  18  19
ATOM     19  O   UNL     1      44.612  22.670  22.303  0.00  0.00    -0.563 OA
ATOM     20  H   UNL     1      44.213  22.998  23.119  0.00  0.00    +0.383 HD
ENDBRANCH  18  19
ENDBRANCH  13  14
ENDBRANCH  12  13
BRANCH  24  25
ATOM     25  C   UNL     1      51.856  21.054  22.238  0.00  0.00    +0.148 C 
BRANCH  25  26
ATOM     26  O   UNL     1      51.835  22.479  22.340  0.00  0.00    -0.535 OA
ATOM     27  H   UNL     1      51.015  22.835  22.709  0.00  0.00    +0.365 HD
ENDBRANCH  25  26
ENDBRANCH  24  25
TORSDOF 8
ENDMDL
