MODEL 1
REMARK VINA RESULT:      -6.2      0.000      0.000
REMARK  Name = ZINC95486318
REMARK  8 active torsions:
REMARK  status: ('A' for Active; 'I' for Inactive)
REMARK    1  A    between atoms: C1_1  and  C2_2
REMARK    2  A    between atoms: C7_8  and  C12_16
REMARK    3  A    between atoms: C8_9  and  O1_15
REMARK    4  A    between atoms: C10_11  and  C11_14
REMARK    5  A    between atoms: C17_22  and  O2_31
REMARK    6  A    between atoms: C19_24  and  C23_30
REMARK    7  A    between atoms: C21_27  and  C22_29
REMARK    8  A    between atoms: O2_31  and  C24_32
REMARK                            x       y       z     vdW  Elec       q    Type
REMARK                         _______ _______ _______ _____ _____    ______ ____
ROOT
ATOM      1  C   UNL     1      41.805  20.908  19.130  0.00  0.00    +0.035 C 
ATOM      2  C   UNL     1      43.306  21.108  19.354  0.00  0.00    +0.124 C 
ATOM      3  C   UNL     1      44.077  19.941  18.739  0.00  0.00    +0.090 C 
ATOM      4  C   UNL     1      45.524  20.002  19.160  0.00  0.00    -0.053 A 
ATOM      5  C   UNL     1      46.453  19.264  18.441  0.00  0.00    -0.010 A 
ATOM      6  C   UNL     1      47.787  19.286  18.792  0.00  0.00    +0.044 A 
ATOM      7  C   UNL     1      48.204  20.047  19.868  0.00  0.00    -0.098 A 
ATOM     22  C   UNL     1      47.279  20.786  20.587  0.00  0.00    +0.113 A 
ATOM     25  C   UNL     1      45.934  20.766  20.231  0.00  0.00    -0.096 A 
ATOM     26  C   UNL     1      44.966  21.594  21.034  0.00  0.00    +0.228 C 
ATOM     27  C   UNL     1      45.096  23.062  20.624  0.00  0.00    -0.003 C 
ATOM     28  N   UNL     1      43.589  21.151  20.798  0.00  0.00    -0.675 NA
ATOM     29  H   UNL     1      42.928  21.744  21.279  0.00  0.00    +0.346 HD
ENDROOT
BRANCH   7   8
ATOM      8  C   UNL     1      49.664  20.073  20.259  0.00  0.00    +0.099 C 
ATOM      9  C   UNL     1      50.261  18.708  20.057  0.00  0.00    -0.026 A 
ATOM     10  C   UNL     1      49.526  17.610  20.490  0.00  0.00    -0.025 A 
ATOM     11  C   UNL     1      50.004  16.326  20.321  0.00  0.00    +0.039 A 
ATOM     12  C   UNL     1      51.237  16.126  19.738  0.00  0.00    -0.086 A 
ATOM     13  C   UNL     1      51.988  17.217  19.332  0.00  0.00    +0.126 A 
ATOM     16  C   UNL     1      51.499  18.514  19.488  0.00  0.00    -0.092 A 
ATOM     17  C   UNL     1      52.377  19.649  19.044  0.00  0.00    +0.036 C 
ATOM     18  C   UNL     1      52.584  19.609  17.530  0.00  0.00    +0.029 C 
ATOM     19  C   UNL     1      51.870  21.008  19.484  0.00  0.00    +0.025 C 
ATOM     20  C   UNL     1      50.359  21.144  19.433  0.00  0.00    -0.010 C 
ATOM     21  C   UNL     1      49.818  21.151  18.006  0.00  0.00    +0.025 C 
BRANCH  13  14
ATOM     14  O   UNL     1      53.219  17.003  18.797  0.00  0.00    -0.314 OA
ATOM     15  C   UNL     1      54.091  16.121  19.506  0.00  0.00    +0.235 C 
ENDBRANCH  13  14
ENDBRANCH   7   8
BRANCH  22  23
ATOM     23  O   UNL     1      47.687  21.535  21.646  0.00  0.00    -0.491 OA
ATOM     24  H   UNL     1      47.631  22.488  21.498  0.00  0.00    +0.385 HD
ENDBRANCH  22  23
TORSDOF 3
ENDMDL
MODEL 2
REMARK VINA RESULT:      -6.1      3.711      7.109
REMARK  Name = ZINC95486318
REMARK  8 active torsions:
REMARK  status: ('A' for Active; 'I' for Inactive)
REMARK    1  A    between atoms: C1_1  and  C2_2
REMARK    2  A    between atoms: C7_8  and  C12_16
REMARK    3  A    between atoms: C8_9  and  O1_15
REMARK    4  A    between atoms: C10_11  and  C11_14
REMARK    5  A    between atoms: C17_22  and  O2_31
REMARK    6  A    between atoms: C19_24  and  C23_30
REMARK    7  A    between atoms: C21_27  and  C22_29
REMARK    8  A    between atoms: O2_31  and  C24_32
REMARK                            x       y       z     vdW  Elec       q    Type
REMARK                         _______ _______ _______ _____ _____    ______ ____
ROOT
ATOM      1  C   UNL     1      46.188  11.162  17.146  0.00  0.00    +0.035 C 
ATOM      2  C   UNL     1      46.736  12.573  17.369  0.00  0.00    +0.124 C 
ATOM      3  C   UNL     1      45.777  13.360  18.263  0.00  0.00    +0.090 C 
ATOM      4  C   UNL     1      46.178  14.814  18.292  0.00  0.00    -0.053 A 
ATOM      5  C   UNL     1      45.673  15.618  19.303  0.00  0.00    -0.010 A 
ATOM      6  C   UNL     1      46.009  16.955  19.367  0.00  0.00    +0.044 A 
ATOM      7  C   UNL     1      46.852  17.499  18.418  0.00  0.00    -0.098 A 
ATOM     22  C   UNL     1      47.359  16.699  17.407  0.00  0.00    +0.113 A 
ATOM     25  C   UNL     1      47.023  15.350  17.345  0.00  0.00    -0.096 A 
ATOM     26  C   UNL     1      47.606  14.515  16.236  0.00  0.00    +0.228 C 
ATOM     27  C   UNL     1      49.061  14.180  16.568  0.00  0.00    -0.003 C 
ATOM     28  N   UNL     1      46.852  13.268  16.077  0.00  0.00    -0.675 NA
ATOM     29  H   UNL     1      47.277  12.671  15.383  0.00  0.00    +0.346 HD
ENDROOT
BRANCH   7   8
ATOM      8  C   UNL     1      47.221  18.964  18.481  0.00  0.00    +0.099 C 
ATOM      9  C   UNL     1      46.045  19.756  18.979  0.00  0.00    -0.026 A 
ATOM     10  C   UNL     1      44.793  19.458  18.450  0.00  0.00    -0.025 A 
ATOM     11  C   UNL     1      43.666  20.132  18.874  0.00  0.00    +0.039 A 
ATOM     12  C   UNL     1      43.780  21.133  19.816  0.00  0.00    -0.086 A 
ATOM     13  C   UNL     1      45.028  21.456  20.324  0.00  0.00    +0.126 A 
ATOM     16  C   UNL     1      46.166  20.765  19.908  0.00  0.00    -0.092 A 
ATOM     17  C   UNL     1      47.487  21.183  20.486  0.00  0.00    +0.036 C 
ATOM     18  C   UNL     1      47.528  20.909  21.990  0.00  0.00    +0.029 C 
ATOM     19  C   UNL     1      48.675  20.550  19.790  0.00  0.00    +0.025 C 
ATOM     20  C   UNL     1      48.445  19.109  19.374  0.00  0.00    -0.010 C 
ATOM     21  C   UNL     1      48.349  18.160  20.566  0.00  0.00    +0.025 C 
BRANCH  13  14
ATOM     14  O   UNL     1      45.127  22.473  21.221  0.00  0.00    -0.314 OA
ATOM     15  C   UNL     1      45.162  23.801  20.696  0.00  0.00    +0.235 C 
ENDBRANCH  13  14
ENDBRANCH   7   8
BRANCH  22  23
ATOM     23  O   UNL     1      48.189  17.233  16.472  0.00  0.00    -0.491 OA
ATOM     24  H   UNL     1      48.839  17.852  16.831  0.00  0.00    +0.385 HD
ENDBRANCH  22  23
TORSDOF 3
ENDMDL
MODEL 3
REMARK VINA RESULT:      -6.0      2.108      2.907
REMARK  Name = ZINC95486318
REMARK  8 active torsions:
REMARK  status: ('A' for Active; 'I' for Inactive)
REMARK    1  A    between atoms: C1_1  and  C2_2
REMARK    2  A    between atoms: C7_8  and  C12_16
REMARK    3  A    between atoms: C8_9  and  O1_15
REMARK    4  A    between atoms: C10_11  and  C11_14
REMARK    5  A    between atoms: C17_22  and  O2_31
REMARK    6  A    between atoms: C19_24  and  C23_30
REMARK    7  A    between atoms: C21_27  and  C22_29
REMARK    8  A    between atoms: O2_31  and  C24_32
REMARK                            x       y       z     vdW  Elec       q    Type
REMARK                         _______ _______ _______ _____ _____    ______ ____
ROOT
ATOM      1  C   UNL     1      40.123  20.746  19.288  0.00  0.00    +0.035 C 
ATOM      2  C   UNL     1      41.496  20.399  19.868  0.00  0.00    +0.124 C 
ATOM      3  C   UNL     1      42.588  20.791  18.872  0.00  0.00    +0.090 C 
ATOM      4  C   UNL     1      43.917  20.239  19.322  0.00  0.00    -0.053 A 
ATOM      5  C   UNL     1      45.074  20.769  18.771  0.00  0.00    -0.010 A 
ATOM      6  C   UNL     1      46.312  20.292  19.149  0.00  0.00    +0.044 A 
ATOM      7  C   UNL     1      46.403  19.278  20.083  0.00  0.00    -0.098 A 
ATOM     22  C   UNL     1      45.249  18.747  20.638  0.00  0.00    +0.113 A 
ATOM     25  C   UNL     1      44.001  19.231  20.257  0.00  0.00    -0.096 A 
ATOM     26  C   UNL     1      42.775  18.632  20.894  0.00  0.00    +0.228 C 
ATOM     27  C   UNL     1      42.611  19.198  22.306  0.00  0.00    -0.003 C 
ATOM     28  N   UNL     1      41.579  18.949  20.110  0.00  0.00    -0.675 NA
ATOM     29  H   UNL     1      40.744  18.611  20.565  0.00  0.00    +0.346 HD
ENDROOT
BRANCH   7   8
ATOM      8  C   UNL     1      47.757  18.749  20.500  0.00  0.00    +0.099 C 
ATOM      9  C   UNL     1      48.573  18.443  19.276  0.00  0.00    -0.026 A 
ATOM     10  C   UNL     1      47.947  17.775  18.229  0.00  0.00    -0.025 A 
ATOM     11  C   UNL     1      48.629  17.478  17.067  0.00  0.00    +0.039 A 
ATOM     12  C   UNL     1      49.959  17.823  16.948  0.00  0.00    -0.086 A 
ATOM     13  C   UNL     1      50.599  18.461  17.998  0.00  0.00    +0.126 A 
ATOM     16  C   UNL     1      49.905  18.776  19.167  0.00  0.00    -0.092 A 
ATOM     17  C   UNL     1      50.668  19.449  20.271  0.00  0.00    +0.036 C 
ATOM     18  C   UNL     1      51.130  20.840  19.837  0.00  0.00    +0.029 C 
ATOM     19  C   UNL     1      49.900  19.519  21.576  0.00  0.00    +0.025 C 
ATOM     20  C   UNL     1      48.416  19.783  21.400  0.00  0.00    -0.010 C 
ATOM     21  C   UNL     1      48.126  21.194  20.891  0.00  0.00    +0.025 C 
BRANCH  13  14
ATOM     14  O   UNL     1      51.920  18.757  17.879  0.00  0.00    -0.314 OA
ATOM     15  C   UNL     1      52.326  19.448  16.696  0.00  0.00    +0.235 C 
ENDBRANCH  13  14
ENDBRANCH   7   8
BRANCH  22  23
ATOM     23  O   UNL     1      45.337  17.749  21.556  0.00  0.00    -0.491 OA
ATOM     24  H   UNL     1      44.819  17.905  22.357  0.00  0.00    +0.385 HD
ENDBRANCH  22  23
TORSDOF 3
ENDMDL
MODEL 4
REMARK VINA RESULT:      -5.9      5.521      9.014
REMARK  Name = ZINC95486318
REMARK  8 active torsions:
REMARK  status: ('A' for Active; 'I' for Inactive)
REMARK    1  A    between atoms: C1_1  and  C2_2
REMARK    2  A    between atoms: C7_8  and  C12_16
REMARK    3  A    between atoms: C8_9  and  O1_15
REMARK    4  A    between atoms: C10_11  and  C11_14
REMARK    5  A    between atoms: C17_22  and  O2_31
REMARK    6  A    between atoms: C19_24  and  C23_30
REMARK    7  A    between atoms: C21_27  and  C22_29
REMARK    8  A    between atoms: O2_31  and  C24_32
REMARK                            x       y       z     vdW  Elec       q    Type
REMARK                         _______ _______ _______ _____ _____    ______ ____
ROOT
ATOM      1  C   UNL     1      52.819  10.358  15.122  0.00  0.00    +0.035 C 
ATOM      2  C   UNL     1      51.744  11.447  15.161  0.00  0.00    +0.124 C 
ATOM      3  C   UNL     1      51.508  11.883  16.607  0.00  0.00    +0.090 C 
ATOM      4  C   UNL     1      50.292  12.772  16.684  0.00  0.00    -0.053 A 
ATOM      5  C   UNL     1      50.115  13.553  17.816  0.00  0.00    -0.010 A 
ATOM      6  C   UNL     1      49.015  14.378  17.932  0.00  0.00    +0.044 A 
ATOM      7  C   UNL     1      48.081  14.428  16.915  0.00  0.00    -0.098 A 
ATOM     22  C   UNL     1      48.256  13.650  15.781  0.00  0.00    +0.113 A 
ATOM     25  C   UNL     1      49.367  12.821  15.664  0.00  0.00    -0.096 A 
ATOM     26  C   UNL     1      49.522  12.002  14.410  0.00  0.00    +0.228 C 
ATOM     27  C   UNL     1      50.021  12.902  13.278  0.00  0.00    -0.003 C 
ATOM     28  N   UNL     1      50.483  10.916  14.617  0.00  0.00    -0.675 NA
ATOM     29  H   UNL     1      50.645  10.404  13.763  0.00  0.00    +0.346 HD
ENDROOT
BRANCH   7   8
ATOM      8  C   UNL     1      46.873  15.328  17.037  0.00  0.00    +0.099 C 
ATOM      9  C   UNL     1      46.237  15.132  18.385  0.00  0.00    -0.026 A 
ATOM     10  C   UNL     1      46.084  13.829  18.846  0.00  0.00    -0.025 A 
ATOM     11  C   UNL     1      45.525  13.575  20.082  0.00  0.00    +0.039 A 
ATOM     12  C   UNL     1      45.088  14.623  20.864  0.00  0.00    -0.086 A 
ATOM     13  C   UNL     1      45.209  15.922  20.398  0.00  0.00    +0.126 A 
ATOM     16  C   UNL     1      45.788  16.181  19.156  0.00  0.00    -0.092 A 
ATOM     17  C   UNL     1      45.868  17.612  18.708  0.00  0.00    +0.036 C 
ATOM     18  C   UNL     1      46.797  18.412  19.621  0.00  0.00    +0.029 C 
ATOM     19  C   UNL     1      46.276  17.765  17.256  0.00  0.00    +0.025 C 
ATOM     20  C   UNL     1      47.322  16.763  16.804  0.00  0.00    -0.010 C 
ATOM     21  C   UNL     1      48.685  17.005  17.449  0.00  0.00    +0.025 C 
BRANCH  13  14
ATOM     14  O   UNL     1      44.736  16.940  21.165  0.00  0.00    -0.314 OA
ATOM     15  C   UNL     1      43.735  16.615  22.130  0.00  0.00    +0.235 C 
ENDBRANCH  13  14
ENDBRANCH   7   8
BRANCH  22  23
ATOM     23  O   UNL     1      47.339  13.698  14.780  0.00  0.00    -0.491 OA
ATOM     24  H   UNL     1      47.720  13.639  13.894  0.00  0.00    +0.385 HD
ENDBRANCH  22  23
TORSDOF 3
ENDMDL
MODEL 5
REMARK VINA RESULT:      -5.7      3.354      7.706
REMARK  Name = ZINC95486318
REMARK  8 active torsions:
REMARK  status: ('A' for Active; 'I' for Inactive)
REMARK    1  A    between atoms: C1_1  and  C2_2
REMARK    2  A    between atoms: C7_8  and  C12_16
REMARK    3  A    between atoms: C8_9  and  O1_15
REMARK    4  A    between atoms: C10_11  and  C11_14
REMARK    5  A    between atoms: C17_22  and  O2_31
REMARK    6  A    between atoms: C19_24  and  C23_30
REMARK    7  A    between atoms: C21_27  and  C22_29
REMARK    8  A    between atoms: O2_31  and  C24_32
REMARK                            x       y       z     vdW  Elec       q    Type
REMARK                         _______ _______ _______ _____ _____    ______ ____
ROOT
ATOM      1  C   UNL     1      53.734  16.268  19.133  0.00  0.00    +0.035 C 
ATOM      2  C   UNL     1      52.346  16.820  18.801  0.00  0.00    +0.124 C 
ATOM      3  C   UNL     1      51.446  16.722  20.033  0.00  0.00    +0.090 C 
ATOM      4  C   UNL     1      50.020  17.033  19.654  0.00  0.00    -0.053 A 
ATOM      5  C   UNL     1      49.122  17.348  20.663  0.00  0.00    -0.010 A 
ATOM      6  C   UNL     1      47.806  17.637  20.365  0.00  0.00    +0.044 A 
ATOM      7  C   UNL     1      47.377  17.611  19.052  0.00  0.00    -0.098 A 
ATOM     22  C   UNL     1      48.271  17.299  18.041  0.00  0.00    +0.113 A 
ATOM     25  C   UNL     1      49.599  17.011  18.343  0.00  0.00    -0.096 A 
ATOM     26  C   UNL     1      50.538  16.688  17.211  0.00  0.00    +0.228 C 
ATOM     27  C   UNL     1      50.937  17.983  16.500  0.00  0.00    -0.003 C 
ATOM     28  N   UNL     1      51.746  16.028  17.715  0.00  0.00    -0.675 NA
ATOM     29  H   UNL     1      52.411  15.870  16.973  0.00  0.00    +0.346 HD
ENDROOT
BRANCH   7   8
ATOM      8  C   UNL     1      45.936  17.923  18.719  0.00  0.00    +0.099 C 
ATOM      9  C   UNL     1      45.065  17.584  19.896  0.00  0.00    -0.026 A 
ATOM     10  C   UNL     1      45.299  16.379  20.549  0.00  0.00    -0.025 A 
ATOM     11  C   UNL     1      44.550  16.011  21.648  0.00  0.00    +0.039 A 
ATOM     12  C   UNL     1      43.538  16.835  22.094  0.00  0.00    -0.086 A 
ATOM     13  C   UNL     1      43.278  18.022  21.429  0.00  0.00    +0.126 A 
ATOM     16  C   UNL     1      44.045  18.403  20.327  0.00  0.00    -0.092 A 
ATOM     17  C   UNL     1      43.693  19.693  19.645  0.00  0.00    +0.036 C 
ATOM     18  C   UNL     1      43.937  20.880  20.577  0.00  0.00    +0.029 C 
ATOM     19  C   UNL     1      44.411  19.889  18.324  0.00  0.00    +0.025 C 
ATOM     20  C   UNL     1      45.845  19.390  18.326  0.00  0.00    -0.010 C 
ATOM     21  C   UNL     1      46.760  20.236  19.208  0.00  0.00    +0.025 C 
BRANCH  13  14
ATOM     14  O   UNL     1      42.251  18.802  21.857  0.00  0.00    -0.314 OA
ATOM     15  C   UNL     1      40.950  18.496  21.352  0.00  0.00    +0.235 C 
ENDBRANCH  13  14
ENDBRANCH   7   8
BRANCH  22  23
ATOM     23  O   UNL     1      47.850  17.273  16.749  0.00  0.00    -0.491 OA
ATOM     24  H   UNL     1      47.606  18.140  16.398  0.00  0.00    +0.385 HD
ENDBRANCH  22  23
TORSDOF 3
ENDMDL
MODEL 6
REMARK VINA RESULT:      -5.6      6.024      9.513
REMARK  Name = ZINC95486318
REMARK  8 active torsions:
REMARK  status: ('A' for Active; 'I' for Inactive)
REMARK    1  A    between atoms: C1_1  and  C2_2
REMARK    2  A    between atoms: C7_8  and  C12_16
REMARK    3  A    between atoms: C8_9  and  O1_15
REMARK    4  A    between atoms: C10_11  and  C11_14
REMARK    5  A    between atoms: C17_22  and  O2_31
REMARK    6  A    between atoms: C19_24  and  C23_30
REMARK    7  A    between atoms: C21_27  and  C22_29
REMARK    8  A    between atoms: O2_31  and  C24_32
REMARK                            x       y       z     vdW  Elec       q    Type
REMARK                         _______ _______ _______ _____ _____    ______ ____
ROOT
ATOM      1  C   UNL     1      51.260  12.247  10.650  0.00  0.00    +0.035 C 
ATOM      2  C   UNL     1      51.006  12.327  12.157  0.00  0.00    +0.124 C 
ATOM      3  C   UNL     1      49.551  12.721  12.412  0.00  0.00    +0.090 C 
ATOM      4  C   UNL     1      49.352  13.038  13.873  0.00  0.00    -0.053 A 
ATOM      5  C   UNL     1      48.059  13.065  14.373  0.00  0.00    -0.010 A 
ATOM      6  C   UNL     1      47.829  13.354  15.702  0.00  0.00    +0.044 A 
ATOM      7  C   UNL     1      48.892  13.620  16.543  0.00  0.00    -0.098 A 
ATOM     22  C   UNL     1      50.186  13.592  16.048  0.00  0.00    +0.113 A 
ATOM     25  C   UNL     1      50.417  13.297  14.708  0.00  0.00    -0.096 A 
ATOM     26  C   UNL     1      51.840  13.266  14.215  0.00  0.00    +0.228 C 
ATOM     27  C   UNL     1      52.500  11.960  14.660  0.00  0.00    -0.003 C 
ATOM     28  N   UNL     1      51.882  13.350  12.752  0.00  0.00    -0.675 NA
ATOM     29  H   UNL     1      52.827  13.260  12.409  0.00  0.00    +0.346 HD
ENDROOT
BRANCH   7   8
ATOM      8  C   UNL     1      48.646  13.940  18.000  0.00  0.00    +0.099 C 
ATOM      9  C   UNL     1      47.697  15.101  18.104  0.00  0.00    -0.026 A 
ATOM     10  C   UNL     1      47.907  16.187  17.262  0.00  0.00    -0.025 A 
ATOM     11  C   UNL     1      47.064  17.280  17.290  0.00  0.00    +0.039 A 
ATOM     12  C   UNL     1      46.012  17.310  18.181  0.00  0.00    -0.086 A 
ATOM     13  C   UNL     1      45.815  16.245  19.045  0.00  0.00    +0.126 A 
ATOM     16  C   UNL     1      46.658  15.133  19.007  0.00  0.00    -0.092 A 
ATOM     17  C   UNL     1      46.396  14.026  19.987  0.00  0.00    +0.036 C 
ATOM     18  C   UNL     1      45.047  13.364  19.704  0.00  0.00    +0.029 C 
ATOM     19  C   UNL     1      47.504  12.992  20.035  0.00  0.00    +0.025 C 
ATOM     20  C   UNL     1      48.116  12.687  18.680  0.00  0.00    -0.010 C 
ATOM     21  C   UNL     1      47.155  11.945  17.755  0.00  0.00    +0.025 C 
BRANCH  13  14
ATOM     14  O   UNL     1      44.799  16.310  19.945  0.00  0.00    -0.314 OA
ATOM     15  C   UNL     1      44.362  17.613  20.338  0.00  0.00    +0.235 C 
ENDBRANCH  13  14
ENDBRANCH   7   8
BRANCH  22  23
ATOM     23  O   UNL     1      51.233  13.853  16.873  0.00  0.00    -0.491 OA
ATOM     24  H   UNL     1      51.337  14.788  17.093  0.00  0.00    +0.385 HD
ENDBRANCH  22  23
TORSDOF 3
ENDMDL
MODEL 7
REMARK VINA RESULT:      -5.3      2.256      3.573
REMARK  Name = ZINC95486318
REMARK  8 active torsions:
REMARK  status: ('A' for Active; 'I' for Inactive)
REMARK    1  A    between atoms: C1_1  and  C2_2
REMARK    2  A    between atoms: C7_8  and  C12_16
REMARK    3  A    between atoms: C8_9  and  O1_15
REMARK    4  A    between atoms: C10_11  and  C11_14
REMARK    5  A    between atoms: C17_22  and  O2_31
REMARK    6  A    between atoms: C19_24  and  C23_30
REMARK    7  A    between atoms: C21_27  and  C22_29
REMARK    8  A    between atoms: O2_31  and  C24_32
REMARK                            x       y       z     vdW  Elec       q    Type
REMARK                         _______ _______ _______ _____ _____    ______ ____
ROOT
ATOM      1  C   UNL     1      43.285  23.050  19.511  0.00  0.00    +0.035 C 
ATOM      2  C   UNL     1      43.970  21.695  19.699  0.00  0.00    +0.124 C 
ATOM      3  C   UNL     1      45.437  21.799  19.283  0.00  0.00    +0.090 C 
ATOM      4  C   UNL     1      46.056  20.425  19.233  0.00  0.00    -0.053 A 
ATOM      5  C   UNL     1      47.440  20.323  19.230  0.00  0.00    -0.010 A 
ATOM      6  C   UNL     1      48.051  19.087  19.181  0.00  0.00    +0.044 A 
ATOM      7  C   UNL     1      47.281  17.940  19.134  0.00  0.00    -0.098 A 
ATOM     22  C   UNL     1      45.899  18.038  19.138  0.00  0.00    +0.113 A 
ATOM     25  C   UNL     1      45.284  19.285  19.191  0.00  0.00    -0.096 A 
ATOM     26  C   UNL     1      43.779  19.343  19.205  0.00  0.00    +0.228 C 
ATOM     27  C   UNL     1      43.273  18.988  20.605  0.00  0.00    -0.003 C 
ATOM     28  N   UNL     1      43.311  20.686  18.854  0.00  0.00    -0.675 NA
ATOM     29  H   UNL     1      42.307  20.753  18.928  0.00  0.00    +0.346 HD
ENDROOT
BRANCH   7   8
ATOM      8  C   UNL     1      47.945  16.583  19.078  0.00  0.00    +0.099 C 
ATOM      9  C   UNL     1      49.332  16.726  18.518  0.00  0.00    -0.026 A 
ATOM     10  C   UNL     1      49.499  17.541  17.403  0.00  0.00    -0.025 A 
ATOM     11  C   UNL     1      50.747  17.734  16.846  0.00  0.00    +0.039 A 
ATOM     12  C   UNL     1      51.843  17.092  17.384  0.00  0.00    -0.086 A 
ATOM     13  C   UNL     1      51.679  16.254  18.476  0.00  0.00    +0.126 A 
ATOM     16  C   UNL     1      50.420  16.071  19.048  0.00  0.00    -0.092 A 
ATOM     17  C   UNL     1      50.315  15.133  20.216  0.00  0.00    +0.036 C 
ATOM     18  C   UNL     1      51.091  15.678  21.416  0.00  0.00    +0.029 C 
ATOM     19  C   UNL     1      48.885  14.811  20.601  0.00  0.00    +0.025 C 
ATOM     20  C   UNL     1      47.937  15.990  20.479  0.00  0.00    -0.010 C 
ATOM     21  C   UNL     1      48.211  17.075  21.517  0.00  0.00    +0.025 C 
BRANCH  13  14
ATOM     14  O   UNL     1      52.763  15.598  18.967  0.00  0.00    -0.314 OA
ATOM     15  C   UNL     1      53.929  16.379  19.234  0.00  0.00    +0.235 C 
ENDBRANCH  13  14
ENDBRANCH   7   8
BRANCH  22  23
ATOM     23  O   UNL     1      45.141  16.911  19.092  0.00  0.00    -0.491 OA
ATOM     24  H   UNL     1      44.190  17.074  19.149  0.00  0.00    +0.385 HD
ENDBRANCH  22  23
TORSDOF 3
ENDMDL
MODEL 8
REMARK VINA RESULT:      -5.2      3.699      4.949
REMARK  Name = ZINC95486318
REMARK  8 active torsions:
REMARK  status: ('A' for Active; 'I' for Inactive)
REMARK    1  A    between atoms: C1_1  and  C2_2
REMARK    2  A    between atoms: C7_8  and  C12_16
REMARK    3  A    between atoms: C8_9  and  O1_15
REMARK    4  A    between atoms: C10_11  and  C11_14
REMARK    5  A    between atoms: C17_22  and  O2_31
REMARK    6  A    between atoms: C19_24  and  C23_30
REMARK    7  A    between atoms: C21_27  and  C22_29
REMARK    8  A    between atoms: O2_31  and  C24_32
REMARK                            x       y       z     vdW  Elec       q    Type
REMARK                         _______ _______ _______ _____ _____    ______ ____
ROOT
ATOM      1  C   UNL     1      44.467  23.062  19.700  0.00  0.00    +0.035 C 
ATOM      2  C   UNL     1      45.455  21.893  19.701  0.00  0.00    +0.124 C 
ATOM      3  C   UNL     1      44.922  20.770  18.811  0.00  0.00    +0.090 C 
ATOM      4  C   UNL     1      45.758  19.528  18.994  0.00  0.00    -0.053 A 
ATOM      5  C   UNL     1      45.673  18.528  18.036  0.00  0.00    -0.010 A 
ATOM      6  C   UNL     1      46.416  17.372  18.163  0.00  0.00    +0.044 A 
ATOM      7  C   UNL     1      47.252  17.207  19.252  0.00  0.00    -0.098 A 
ATOM     22  C   UNL     1      47.340  18.205  20.209  0.00  0.00    +0.113 A 
ATOM     25  C   UNL     1      46.592  19.372  20.078  0.00  0.00    -0.096 A 
ATOM     26  C   UNL     1      46.729  20.434  21.137  0.00  0.00    +0.228 C 
ATOM     27  C   UNL     1      48.036  21.198  20.920  0.00  0.00    -0.003 C 
ATOM     28  N   UNL     1      45.608  21.376  21.071  0.00  0.00    -0.675 NA
ATOM     29  H   UNL     1      45.726  22.130  21.730  0.00  0.00    +0.346 HD
ENDROOT
BRANCH   7   8
ATOM      8  C   UNL     1      48.066  15.943  19.398  0.00  0.00    +0.099 C 
ATOM      9  C   UNL     1      47.230  14.759  19.001  0.00  0.00    -0.026 A 
ATOM     10  C   UNL     1      45.921  14.706  19.467  0.00  0.00    -0.025 A 
ATOM     11  C   UNL     1      45.088  13.658  19.127  0.00  0.00    +0.039 A 
ATOM     12  C   UNL     1      45.566  12.635  18.336  0.00  0.00    -0.086 A 
ATOM     13  C   UNL     1      46.878  12.665  17.893  0.00  0.00    +0.126 A 
ATOM     16  C   UNL     1      47.715  13.732  18.224  0.00  0.00    -0.092 A 
ATOM     17  C   UNL     1      49.131  13.687  17.726  0.00  0.00    +0.036 C 
ATOM     18  C   UNL     1      49.169  13.765  16.199  0.00  0.00    +0.029 C 
ATOM     19  C   UNL     1      50.018  14.751  18.342  0.00  0.00    +0.025 C 
ATOM     20  C   UNL     1      49.322  16.084  18.551  0.00  0.00    -0.010 C 
ATOM     21  C   UNL     1      48.999  16.791  17.236  0.00  0.00    +0.025 C 
BRANCH  13  14
ATOM     14  O   UNL     1      47.343  11.628  17.149  0.00  0.00    -0.314 OA
ATOM     15  C   UNL     1      46.474  11.112  16.140  0.00  0.00    +0.235 C 
ENDBRANCH  13  14
ENDBRANCH   7   8
BRANCH  22  23
ATOM     23  O   UNL     1      48.161  18.045  21.280  0.00  0.00    -0.491 OA
ATOM     24  H   UNL     1      49.047  18.411  21.156  0.00  0.00    +0.385 HD
ENDBRANCH  22  23
TORSDOF 3
ENDMDL
MODEL 9
REMARK VINA RESULT:      -5.2      2.726      3.657
REMARK  Name = ZINC95486318
REMARK  8 active torsions:
REMARK  status: ('A' for Active; 'I' for Inactive)
REMARK    1  A    between atoms: C1_1  and  C2_2
REMARK    2  A    between atoms: C7_8  and  C12_16
REMARK    3  A    between atoms: C8_9  and  O1_15
REMARK    4  A    between atoms: C10_11  and  C11_14
REMARK    5  A    between atoms: C17_22  and  O2_31
REMARK    6  A    between atoms: C19_24  and  C23_30
REMARK    7  A    between atoms: C21_27  and  C22_29
REMARK    8  A    between atoms: O2_31  and  C24_32
REMARK                            x       y       z     vdW  Elec       q    Type
REMARK                         _______ _______ _______ _____ _____    ______ ____
ROOT
ATOM      1  C   UNL     1      40.441  21.087  19.136  0.00  0.00    +0.035 C 
ATOM      2  C   UNL     1      41.704  20.403  19.664  0.00  0.00    +0.124 C 
ATOM      3  C   UNL     1      42.712  20.237  18.527  0.00  0.00    +0.090 C 
ATOM      4  C   UNL     1      43.851  19.356  18.973  0.00  0.00    -0.053 A 
ATOM      5  C   UNL     1      45.026  19.370  18.236  0.00  0.00    -0.010 A 
ATOM      6  C   UNL     1      46.093  18.577  18.604  0.00  0.00    +0.044 A 
ATOM      7  C   UNL     1      45.994  17.762  19.716  0.00  0.00    -0.098 A 
ATOM     22  C   UNL     1      44.822  17.746  20.456  0.00  0.00    +0.113 A 
ATOM     25  C   UNL     1      43.748  18.549  20.085  0.00  0.00    -0.096 A 
ATOM     26  C   UNL     1      42.499  18.508  20.925  0.00  0.00    +0.228 C 
ATOM     27  C   UNL     1      42.721  19.323  22.200  0.00  0.00    -0.003 C 
ATOM     28  N   UNL     1      41.363  19.071  20.190  0.00  0.00    -0.675 NA
ATOM     29  H   UNL     1      40.538  19.112  20.769  0.00  0.00    +0.346 HD
ENDROOT
BRANCH   7   8
ATOM      8  C   UNL     1      47.159  16.889  20.123  0.00  0.00    +0.099 C 
ATOM      9  C   UNL     1      47.623  16.088  18.939  0.00  0.00    -0.026 A 
ATOM     10  C   UNL     1      46.654  15.489  18.142  0.00  0.00    -0.025 A 
ATOM     11  C   UNL     1      47.006  14.754  17.028  0.00  0.00    +0.039 A 
ATOM     12  C   UNL     1      48.337  14.588  16.711  0.00  0.00    -0.086 A 
ATOM     13  C   UNL     1      49.310  15.156  17.518  0.00  0.00    +0.126 A 
ATOM     16  C   UNL     1      48.954  15.912  18.635  0.00  0.00    -0.092 A 
ATOM     17  C   UNL     1      50.062  16.480  19.474  0.00  0.00    +0.036 C 
ATOM     18  C   UNL     1      50.863  17.513  18.682  0.00  0.00    +0.029 C 
ATOM     19  C   UNL     1      49.582  17.063  20.789  0.00  0.00    +0.025 C 
ATOM     20  C   UNL     1      48.251  17.785  20.688  0.00  0.00    -0.010 C 
ATOM     21  C   UNL     1      48.344  19.081  19.887  0.00  0.00    +0.025 C 
BRANCH  13  14
ATOM     14  O   UNL     1      50.618  14.948  17.213  0.00  0.00    -0.314 OA
ATOM     15  C   UNL     1      50.936  13.751  16.500  0.00  0.00    +0.235 C 
ENDBRANCH  13  14
ENDBRANCH   7   8
BRANCH  22  23
ATOM     23  O   UNL     1      44.723  16.945  21.549  0.00  0.00    -0.491 OA
ATOM     24  H   UNL     1      43.978  17.158  22.127  0.00  0.00    +0.385 HD
ENDBRANCH  22  23
TORSDOF 3
ENDMDL
