MODEL 1
REMARK VINA RESULT:      -5.8      0.000      0.000
REMARK  Name = ZINC15118974
REMARK  2 active torsions:
REMARK  status: ('A' for Active; 'I' for Inactive)
REMARK    1  A    between atoms: C6_7  and  O4_17
REMARK    2  A    between atoms: C12_14  and  O3_16
REMARK                            x       y       z     vdW  Elec       q    Type
REMARK                         _______ _______ _______ _____ _____    ______ ____
ROOT
ATOM      1  C   UNL     1      40.708  19.551  18.955  0.00  0.00    +0.009 A 
ATOM      2  C   UNL     1      41.791  19.277  19.764  0.00  0.00    +0.111 A 
ATOM      3  C   UNL     1      42.727  20.277  20.028  0.00  0.00    -0.215 A 
ATOM      4  C   UNL     1      43.896  20.010  20.891  0.00  0.00    +0.438 A 
ATOM      5  C   UNL     1      44.829  21.130  21.110  0.00  0.00    -0.265 A 
ATOM      6  C   UNL     1      45.965  20.973  21.914  0.00  0.00    +0.204 A 
ATOM      9  C   UNL     1      46.822  22.045  22.099  0.00  0.00    -0.039 A 
ATOM     10  C   UNL     1      46.554  23.261  21.494  0.00  0.00    +0.115 A 
ATOM     11  C   UNL     1      45.437  23.424  20.701  0.00  0.00    -0.010 A 
ATOM     12  C   UNL     1      44.561  22.365  20.498  0.00  0.00    +0.180 A 
ATOM     13  O   UNL     1      43.470  22.532  19.721  0.00  0.00    -0.221 OA
ATOM     14  O   UNL     1      44.080  18.918  21.398  0.00  0.00    -0.432 OA
ATOM     15  C   UNL     1      42.573  21.556  19.475  0.00  0.00    +0.136 A 
ATOM     16  C   UNL     1      41.470  21.812  18.658  0.00  0.00    +0.083 A 
ATOM     19  C   UNL     1      40.552  20.811  18.401  0.00  0.00    +0.070 A 
ENDROOT
BRANCH   6   7
ATOM      7  O   UNL     1      46.224  19.780  22.505  0.00  0.00    -0.477 OA
ATOM      8  H   UNL     1      45.662  19.057  22.196  0.00  0.00    +0.401 HD
ENDBRANCH   6   7
BRANCH  16  17
ATOM     17  O   UNL     1      41.302  23.046  18.112  0.00  0.00    -0.481 OA
ATOM     18  H   UNL     1      40.415  23.412  18.234  0.00  0.00    +0.393 HD
ENDBRANCH  16  17
TORSDOF 2
ENDMDL
MODEL 2
REMARK VINA RESULT:      -5.7     20.804     22.332
REMARK  Name = ZINC15118974
REMARK  2 active torsions:
REMARK  status: ('A' for Active; 'I' for Inactive)
REMARK    1  A    between atoms: C6_7  and  O4_17
REMARK    2  A    between atoms: C12_14  and  O3_16
REMARK                            x       y       z     vdW  Elec       q    Type
REMARK                         _______ _______ _______ _____ _____    ______ ____
ROOT
ATOM      1  C   UNL     1      51.100  33.230   6.001  0.00  0.00    +0.009 A 
ATOM      2  C   UNL     1      51.976  32.582   5.156  0.00  0.00    +0.111 A 
ATOM      3  C   UNL     1      53.341  32.866   5.225  0.00  0.00    -0.215 A 
ATOM      4  C   UNL     1      54.302  32.186   4.332  0.00  0.00    +0.438 A 
ATOM      5  C   UNL     1      55.721  32.554   4.481  0.00  0.00    -0.265 A 
ATOM      6  C   UNL     1      56.705  31.962   3.678  0.00  0.00    +0.204 A 
ATOM      9  C   UNL     1      58.030  32.331   3.843  0.00  0.00    -0.039 A 
ATOM     10  C   UNL     1      58.375  33.276   4.794  0.00  0.00    +0.115 A 
ATOM     11  C   UNL     1      57.412  33.863   5.589  0.00  0.00    -0.010 A 
ATOM     12  C   UNL     1      56.075  33.512   5.444  0.00  0.00    +0.180 A 
ATOM     13  O   UNL     1      55.139  34.091   6.225  0.00  0.00    -0.221 OA
ATOM     14  O   UNL     1      53.938  31.361   3.513  0.00  0.00    -0.432 OA
ATOM     15  C   UNL     1      53.824  33.806   6.147  0.00  0.00    +0.136 A 
ATOM     16  C   UNL     1      52.919  34.452   6.992  0.00  0.00    +0.083 A 
ATOM     19  C   UNL     1      51.569  34.164   6.911  0.00  0.00    +0.070 A 
ENDROOT
BRANCH   6   7
ATOM      7  O   UNL     1      56.362  31.037   2.748  0.00  0.00    -0.477 OA
ATOM      8  H   UNL     1      57.105  30.507   2.428  0.00  0.00    +0.401 HD
ENDBRANCH   6   7
BRANCH  16  17
ATOM     17  O   UNL     1      53.366  35.366   7.894  0.00  0.00    -0.481 OA
ATOM     18  H   UNL     1      54.189  35.114   8.334  0.00  0.00    +0.393 HD
ENDBRANCH  16  17
TORSDOF 2
ENDMDL
MODEL 3
REMARK VINA RESULT:      -5.6      1.013      5.497
REMARK  Name = ZINC15118974
REMARK  2 active torsions:
REMARK  status: ('A' for Active; 'I' for Inactive)
REMARK    1  A    between atoms: C6_7  and  O4_17
REMARK    2  A    between atoms: C12_14  and  O3_16
REMARK                            x       y       z     vdW  Elec       q    Type
REMARK                         _______ _______ _______ _____ _____    ______ ____
ROOT
ATOM      1  C   UNL     1      47.337  21.545  21.741  0.00  0.00    +0.009 A 
ATOM      2  C   UNL     1      46.408  22.266  21.021  0.00  0.00    +0.111 A 
ATOM      3  C   UNL     1      45.213  21.660  20.631  0.00  0.00    -0.215 A 
ATOM      4  C   UNL     1      44.201  22.409  19.860  0.00  0.00    +0.438 A 
ATOM      5  C   UNL     1      42.972  21.682  19.495  0.00  0.00    -0.265 A 
ATOM      6  C   UNL     1      41.955  22.310  18.764  0.00  0.00    +0.204 A 
ATOM      9  C   UNL     1      40.813  21.599  18.436  0.00  0.00    -0.039 A 
ATOM     10  C   UNL     1      40.681  20.278  18.831  0.00  0.00    +0.115 A 
ATOM     11  C   UNL     1      41.677  19.652  19.550  0.00  0.00    -0.010 A 
ATOM     12  C   UNL     1      42.834  20.343  19.892  0.00  0.00    +0.180 A 
ATOM     13  O   UNL     1      43.804  19.724  20.596  0.00  0.00    -0.221 OA
ATOM     14  O   UNL     1      44.373  23.573  19.542  0.00  0.00    -0.432 OA
ATOM     15  C   UNL     1      44.954  20.323  20.967  0.00  0.00    +0.136 A 
ATOM     16  C   UNL     1      45.909  19.610  21.694  0.00  0.00    +0.083 A 
ATOM     19  C   UNL     1      47.090  20.222  22.071  0.00  0.00    +0.070 A 
ENDROOT
BRANCH   6   7
ATOM      7  O   UNL     1      42.088  23.604  18.380  0.00  0.00    -0.477 OA
ATOM      8  H   UNL     1      42.693  23.734  17.637  0.00  0.00    +0.401 HD
ENDBRANCH   6   7
BRANCH  16  17
ATOM     17  O   UNL     1      45.677  18.314  22.031  0.00  0.00    -0.481 OA
ATOM     18  H   UNL     1      46.464  17.839  22.332  0.00  0.00    +0.393 HD
ENDBRANCH  16  17
TORSDOF 2
ENDMDL
MODEL 4
REMARK VINA RESULT:      -5.3     20.685     22.528
REMARK  Name = ZINC15118974
REMARK  2 active torsions:
REMARK  status: ('A' for Active; 'I' for Inactive)
REMARK    1  A    between atoms: C6_7  and  O4_17
REMARK    2  A    between atoms: C12_14  and  O3_16
REMARK                            x       y       z     vdW  Elec       q    Type
REMARK                         _______ _______ _______ _____ _____    ______ ____
ROOT
ATOM      1  C   UNL     1      57.922  33.233   4.193  0.00  0.00    +0.009 A 
ATOM      2  C   UNL     1      57.110  33.892   5.091  0.00  0.00    +0.111 A 
ATOM      3  C   UNL     1      55.758  33.557   5.177  0.00  0.00    -0.215 A 
ATOM      4  C   UNL     1      54.866  34.247   6.130  0.00  0.00    +0.438 A 
ATOM      5  C   UNL     1      53.455  33.823   6.146  0.00  0.00    -0.265 A 
ATOM      6  C   UNL     1      52.534  34.419   7.017  0.00  0.00    +0.204 A 
ATOM      9  C   UNL     1      51.215  33.997   7.006  0.00  0.00    -0.039 A 
ATOM     10  C   UNL     1      50.814  32.994   6.141  0.00  0.00    +0.115 A 
ATOM     11  C   UNL     1      51.714  32.401   5.280  0.00  0.00    -0.010 A 
ATOM     12  C   UNL     1      53.043  32.805   5.270  0.00  0.00    +0.180 A 
ATOM     13  O   UNL     1      53.918  32.220   4.425  0.00  0.00    -0.221 OA
ATOM     14  O   UNL     1      55.277  35.124   6.869  0.00  0.00    -0.432 OA
ATOM     15  C   UNL     1      55.223  32.555   4.355  0.00  0.00    +0.136 A 
ATOM     16  C   UNL     1      56.062  31.901   3.450  0.00  0.00    +0.083 A 
ATOM     19  C   UNL     1      57.399  32.245   3.373  0.00  0.00    +0.070 A 
ENDROOT
BRANCH   6   7
ATOM      7  O   UNL     1      52.931  35.401   7.863  0.00  0.00    -0.477 OA
ATOM      8  H   UNL     1      53.160  36.231   7.423  0.00  0.00    +0.401 HD
ENDBRANCH   6   7
BRANCH  16  17
ATOM     17  O   UNL     1      55.564  30.926   2.644  0.00  0.00    -0.481 OA
ATOM     18  H   UNL     1      56.240  30.361   2.245  0.00  0.00    +0.393 HD
ENDBRANCH  16  17
TORSDOF 2
ENDMDL
MODEL 5
REMARK VINA RESULT:      -5.1      2.110      2.316
REMARK  Name = ZINC15118974
REMARK  2 active torsions:
REMARK  status: ('A' for Active; 'I' for Inactive)
REMARK    1  A    between atoms: C6_7  and  O4_17
REMARK    2  A    between atoms: C12_14  and  O3_16
REMARK                            x       y       z     vdW  Elec       q    Type
REMARK                         _______ _______ _______ _____ _____    ______ ____
ROOT
ATOM      1  C   UNL     1      40.995  18.921  20.998  0.00  0.00    +0.009 A 
ATOM      2  C   UNL     1      42.254  18.558  21.426  0.00  0.00    +0.111 A 
ATOM      3  C   UNL     1      43.379  19.108  20.810  0.00  0.00    -0.215 A 
ATOM      4  C   UNL     1      44.740  18.737  21.250  0.00  0.00    +0.438 A 
ATOM      5  C   UNL     1      45.864  19.371  20.537  0.00  0.00    -0.265 A 
ATOM      6  C   UNL     1      47.190  19.081  20.884  0.00  0.00    +0.204 A 
ATOM      9  C   UNL     1      48.223  19.694  20.194  0.00  0.00    -0.039 A 
ATOM     10  C   UNL     1      47.943  20.585  19.172  0.00  0.00    +0.115 A 
ATOM     11  C   UNL     1      46.640  20.876  18.824  0.00  0.00    -0.010 A 
ATOM     12  C   UNL     1      45.585  20.275  19.500  0.00  0.00    +0.180 A 
ATOM     13  O   UNL     1      44.313  20.564  19.154  0.00  0.00    -0.221 OA
ATOM     14  O   UNL     1      44.924  17.946  22.158  0.00  0.00    -0.432 OA
ATOM     15  C   UNL     1      43.235  20.025  19.760  0.00  0.00    +0.136 A 
ATOM     16  C   UNL     1      41.951  20.378  19.340  0.00  0.00    +0.083 A 
ATOM     19  C   UNL     1      40.845  19.822  19.956  0.00  0.00    +0.070 A 
ENDROOT
BRANCH   6   7
ATOM      7  O   UNL     1      47.459  18.208  21.886  0.00  0.00    -0.477 OA
ATOM      8  H   UNL     1      46.675  17.781  22.258  0.00  0.00    +0.401 HD
ENDBRANCH   6   7
BRANCH  16  17
ATOM     17  O   UNL     1      41.788  21.266  18.323  0.00  0.00    -0.481 OA
ATOM     18  H   UNL     1      41.836  22.192  18.598  0.00  0.00    +0.393 HD
ENDBRANCH  16  17
TORSDOF 2
ENDMDL
MODEL 6
REMARK VINA RESULT:      -5.1      3.714      4.821
REMARK  Name = ZINC15118974
REMARK  2 active torsions:
REMARK  status: ('A' for Active; 'I' for Inactive)
REMARK    1  A    between atoms: C6_7  and  O4_17
REMARK    2  A    between atoms: C12_14  and  O3_16
REMARK                            x       y       z     vdW  Elec       q    Type
REMARK                         _______ _______ _______ _____ _____    ______ ____
ROOT
ATOM      1  C   UNL     1      45.834  14.816  18.845  0.00  0.00    +0.009 A 
ATOM      2  C   UNL     1      45.234  15.697  19.719  0.00  0.00    +0.111 A 
ATOM      3  C   UNL     1      45.324  17.070  19.487  0.00  0.00    -0.215 A 
ATOM      4  C   UNL     1      44.690  18.037  20.407  0.00  0.00    +0.438 A 
ATOM      5  C   UNL     1      44.841  19.465  20.077  0.00  0.00    -0.265 A 
ATOM      6  C   UNL     1      44.274  20.455  20.890  0.00  0.00    +0.204 A 
ATOM      9  C   UNL     1      44.436  21.788  20.552  0.00  0.00    -0.039 A 
ATOM     10  C   UNL     1      45.152  22.136  19.419  0.00  0.00    +0.115 A 
ATOM     11  C   UNL     1      45.713  21.168  18.613  0.00  0.00    -0.010 A 
ATOM     12  C   UNL     1      45.567  19.822  18.929  0.00  0.00    +0.180 A 
ATOM     13  O   UNL     1      46.119  18.881  18.135  0.00  0.00    -0.221 OA
ATOM     14  O   UNL     1      44.070  17.671  21.390  0.00  0.00    -0.432 OA
ATOM     15  C   UNL     1      46.022  17.556  18.372  0.00  0.00    +0.136 A 
ATOM     16  C   UNL     1      46.625  16.647  17.501  0.00  0.00    +0.083 A 
ATOM     19  C   UNL     1      46.531  15.289  17.745  0.00  0.00    +0.070 A 
ENDROOT
BRANCH   6   7
ATOM      7  O   UNL     1      43.574  20.110  21.998  0.00  0.00    -0.477 OA
ATOM      8  H   UNL     1      43.878  20.543  22.807  0.00  0.00    +0.401 HD
ENDBRANCH   6   7
BRANCH  16  17
ATOM     17  O   UNL     1      47.306  17.096  16.414  0.00  0.00    -0.481 OA
ATOM     18  H   UNL     1      47.614  16.395  15.824  0.00  0.00    +0.393 HD
ENDBRANCH  16  17
TORSDOF 2
ENDMDL
MODEL 7
REMARK VINA RESULT:      -5.0     21.063     22.911
REMARK  Name = ZINC15118974
REMARK  2 active torsions:
REMARK  status: ('A' for Active; 'I' for Inactive)
REMARK    1  A    between atoms: C6_7  and  O4_17
REMARK    2  A    between atoms: C12_14  and  O3_16
REMARK                            x       y       z     vdW  Elec       q    Type
REMARK                         _______ _______ _______ _____ _____    ______ ____
ROOT
ATOM      1  C   UNL     1      57.881  31.617   3.257  0.00  0.00    +0.009 A 
ATOM      2  C   UNL     1      56.503  31.642   3.219  0.00  0.00    +0.111 A 
ATOM      3  C   UNL     1      55.799  32.397   4.158  0.00  0.00    -0.215 A 
ATOM      4  C   UNL     1      54.322  32.442   4.140  0.00  0.00    +0.438 A 
ATOM      5  C   UNL     1      53.670  33.267   5.172  0.00  0.00    -0.265 A 
ATOM      6  C   UNL     1      52.275  33.371   5.234  0.00  0.00    +0.204 A 
ATOM      9  C   UNL     1      51.694  34.154   6.217  0.00  0.00    -0.039 A 
ATOM     10  C   UNL     1      52.489  34.828   7.129  0.00  0.00    +0.115 A 
ATOM     11  C   UNL     1      53.864  34.731   7.075  0.00  0.00    -0.010 A 
ATOM     12  C   UNL     1      54.473  33.952   6.099  0.00  0.00    +0.180 A 
ATOM     13  O   UNL     1      55.818  33.862   6.052  0.00  0.00    -0.221 OA
ATOM     14  O   UNL     1      53.675  31.827   3.311  0.00  0.00    -0.432 OA
ATOM     15  C   UNL     1      56.485  33.128   5.138  0.00  0.00    +0.136 A 
ATOM     16  C   UNL     1      57.881  33.088   5.160  0.00  0.00    +0.083 A 
ATOM     19  C   UNL     1      58.566  32.332   4.226  0.00  0.00    +0.070 A 
ENDROOT
BRANCH   6   7
ATOM      7  O   UNL     1      51.500  32.710   4.339  0.00  0.00    -0.477 OA
ATOM      8  H   UNL     1      50.939  33.286   3.802  0.00  0.00    +0.401 HD
ENDBRANCH   6   7
BRANCH  16  17
ATOM     17  O   UNL     1      58.566  33.789   6.101  0.00  0.00    -0.481 OA
ATOM     18  H   UNL     1      58.616  34.739   5.925  0.00  0.00    +0.393 HD
ENDBRANCH  16  17
TORSDOF 2
ENDMDL
MODEL 8
REMARK VINA RESULT:      -4.9      8.513      9.557
REMARK  Name = ZINC15118974
REMARK  2 active torsions:
REMARK  status: ('A' for Active; 'I' for Inactive)
REMARK    1  A    between atoms: C6_7  and  O4_17
REMARK    2  A    between atoms: C12_14  and  O3_16
REMARK                            x       y       z     vdW  Elec       q    Type
REMARK                         _______ _______ _______ _____ _____    ______ ____
ROOT
ATOM      1  C   UNL     1      51.450  21.272  16.262  0.00  0.00    +0.009 A 
ATOM      2  C   UNL     1      51.472  21.169  17.636  0.00  0.00    +0.111 A 
ATOM      3  C   UNL     1      51.794  19.950  18.233  0.00  0.00    -0.215 A 
ATOM      4  C   UNL     1      51.825  19.812  19.704  0.00  0.00    +0.438 A 
ATOM      5  C   UNL     1      52.176  18.485  20.239  0.00  0.00    -0.265 A 
ATOM      6  C   UNL     1      52.232  18.258  21.620  0.00  0.00    +0.204 A 
ATOM      9  C   UNL     1      52.564  16.998  22.091  0.00  0.00    -0.039 A 
ATOM     10  C   UNL     1      52.840  15.975  21.200  0.00  0.00    +0.115 A 
ATOM     11  C   UNL     1      52.787  16.190  19.838  0.00  0.00    -0.010 A 
ATOM     12  C   UNL     1      52.456  17.444  19.339  0.00  0.00    +0.180 A 
ATOM     13  O   UNL     1      52.407  17.646  18.006  0.00  0.00    -0.221 OA
ATOM     14  O   UNL     1      51.574  20.751  20.439  0.00  0.00    -0.432 OA
ATOM     15  C   UNL     1      52.094  18.831  17.443  0.00  0.00    +0.136 A 
ATOM     16  C   UNL     1      52.065  18.956  16.053  0.00  0.00    +0.083 A 
ATOM     19  C   UNL     1      51.740  20.169  15.474  0.00  0.00    +0.070 A 
ENDROOT
BRANCH   6   7
ATOM      7  O   UNL     1      51.962  19.264  22.489  0.00  0.00    -0.477 OA
ATOM      8  H   UNL     1      52.375  19.156  23.357  0.00  0.00    +0.401 HD
ENDBRANCH   6   7
BRANCH  16  17
ATOM     17  O   UNL     1      52.353  17.884  15.268  0.00  0.00    -0.481 OA
ATOM     18  H   UNL     1      51.622  17.258  15.173  0.00  0.00    +0.393 HD
ENDBRANCH  16  17
TORSDOF 2
ENDMDL
MODEL 9
REMARK VINA RESULT:      -4.9      6.445      8.463
REMARK  Name = ZINC15118974
REMARK  2 active torsions:
REMARK  status: ('A' for Active; 'I' for Inactive)
REMARK    1  A    between atoms: C6_7  and  O4_17
REMARK    2  A    between atoms: C12_14  and  O3_16
REMARK                            x       y       z     vdW  Elec       q    Type
REMARK                         _______ _______ _______ _____ _____    ______ ____
ROOT
ATOM      1  C   UNL     1      51.757  21.151  16.634  0.00  0.00    +0.009 A 
ATOM      2  C   UNL     1      50.827  20.952  17.631  0.00  0.00    +0.111 A 
ATOM      3  C   UNL     1      50.350  19.665  17.885  0.00  0.00    -0.215 A 
ATOM      4  C   UNL     1      49.354  19.423  18.948  0.00  0.00    +0.438 A 
ATOM      5  C   UNL     1      48.912  18.030  19.139  0.00  0.00    -0.265 A 
ATOM      6  C   UNL     1      47.970  17.703  20.123  0.00  0.00    +0.204 A 
ATOM      9  C   UNL     1      47.575  16.384  20.276  0.00  0.00    -0.039 A 
ATOM     10  C   UNL     1      48.111  15.400  19.463  0.00  0.00    +0.115 A 
ATOM     11  C   UNL     1      49.038  15.714  18.491  0.00  0.00    -0.010 A 
ATOM     12  C   UNL     1      49.452  17.029  18.316  0.00  0.00    +0.180 A 
ATOM     13  O   UNL     1      50.360  17.328  17.364  0.00  0.00    -0.221 OA
ATOM     14  O   UNL     1      48.919  20.330  19.635  0.00  0.00    -0.432 OA
ATOM     15  C   UNL     1      50.812  18.577  17.131  0.00  0.00    +0.136 A 
ATOM     16  C   UNL     1      51.753  18.801  16.123  0.00  0.00    +0.083 A 
ATOM     19  C   UNL     1      52.214  20.082  15.880  0.00  0.00    +0.070 A 
ENDROOT
BRANCH   6   7
ATOM      7  O   UNL     1      47.449  18.670  20.919  0.00  0.00    -0.477 OA
ATOM      8  H   UNL     1      47.130  18.348  21.773  0.00  0.00    +0.401 HD
ENDBRANCH   6   7
BRANCH  16  17
ATOM     17  O   UNL     1      52.213  17.760  15.381  0.00  0.00    -0.481 OA
ATOM     18  H   UNL     1      51.610  17.479  14.679  0.00  0.00    +0.393 HD
ENDBRANCH  16  17
TORSDOF 2
ENDMDL
