MODEL 1
REMARK VINA RESULT:      -6.2      0.000      0.000
REMARK  Name = ZINC14887523
REMARK  2 active torsions:
REMARK  status: ('A' for Active; 'I' for Inactive)
REMARK    1  A    between atoms: C1_1  and  C2_2
REMARK    2  A    between atoms: C2_2  and  O3_22
REMARK                            x       y       z     vdW  Elec       q    Type
REMARK                         _______ _______ _______ _____ _____    ______ ____
ROOT
ATOM      1  C   UNL     1      48.736  12.574  15.747  0.00  0.00    +0.019 C 
ATOM      2  C   UNL     1      47.849  13.654  16.369  0.00  0.00    +0.126 C 
ATOM      5  C   UNL     1      47.034  13.052  17.521  0.00  0.00    +0.003 C 
ATOM      6  C   UNL     1      45.992  14.078  17.962  0.00  0.00    +0.091 C 
ATOM      7  C   UNL     1      46.639  15.414  18.222  0.00  0.00    -0.050 A 
ATOM      8  C   UNL     1      45.924  16.340  18.973  0.00  0.00    +0.037 A 
ATOM      9  C   UNL     1      46.447  17.588  19.249  0.00  0.00    +0.072 A 
ATOM     10  C   UNL     1      47.708  17.929  18.769  0.00  0.00    -0.121 A 
ATOM     11  C   UNL     1      48.432  16.996  18.011  0.00  0.00    -0.123 A 
ATOM     12  C   UNL     1      49.774  17.343  17.494  0.00  0.00    +0.433 C 
ATOM     13  C   UNL     1      50.349  18.674  17.778  0.00  0.00    -0.119 A 
ATOM     14  C   UNL     1      51.611  19.010  17.296  0.00  0.00    +0.074 A 
ATOM     15  C   UNL     1      52.143  20.259  17.566  0.00  0.00    +0.040 A 
ATOM     16  C   UNL     1      51.429  21.178  18.313  0.00  0.00    +0.040 A 
ATOM     17  C   UNL     1      50.173  20.860  18.800  0.00  0.00    +0.075 A 
ATOM     18  C   UNL     1      49.622  19.609  18.537  0.00  0.00    -0.120 A 
ATOM     19  O   UNL     1      50.401  16.535  16.837  0.00  0.00    -0.426 OA
ATOM     20  C   UNL     1      48.281  19.261  19.053  0.00  0.00    +0.436 C 
ATOM     21  O   UNL     1      47.651  20.070  19.704  0.00  0.00    -0.430 OA
ATOM     22  C   UNL     1      47.891  15.734  17.742  0.00  0.00    -0.015 A 
ATOM     23  C   UNL     1      48.721  14.774  16.932  0.00  0.00    +0.134 C 
ENDROOT
BRANCH   2   3
ATOM      3  O   UNL     1      46.964  14.182  15.379  0.00  0.00    -0.553 OA
ATOM      4  H   UNL     1      47.410  14.672  14.675  0.00  0.00    +0.375 HD
ENDBRANCH   2   3
TORSDOF 1
ENDMDL
MODEL 2
REMARK VINA RESULT:      -6.2      2.604      6.337
REMARK  Name = ZINC14887523
REMARK  2 active torsions:
REMARK  status: ('A' for Active; 'I' for Inactive)
REMARK    1  A    between atoms: C1_1  and  C2_2
REMARK    2  A    between atoms: C2_2  and  O3_22
REMARK                            x       y       z     vdW  Elec       q    Type
REMARK                         _______ _______ _______ _____ _____    ______ ____
ROOT
ATOM      1  C   UNL     1      52.667  21.811  19.853  0.00  0.00    +0.019 C 
ATOM      2  C   UNL     1      51.900  20.877  18.915  0.00  0.00    +0.126 C 
ATOM      5  C   UNL     1      52.689  19.576  18.723  0.00  0.00    +0.003 C 
ATOM      6  C   UNL     1      52.027  18.772  17.606  0.00  0.00    +0.091 C 
ATOM      7  C   UNL     1      50.548  18.630  17.857  0.00  0.00    -0.050 A 
ATOM      8  C   UNL     1      49.869  17.637  17.161  0.00  0.00    +0.037 A 
ATOM      9  C   UNL     1      48.513  17.448  17.332  0.00  0.00    +0.072 A 
ATOM     10  C   UNL     1      47.809  18.264  18.214  0.00  0.00    -0.121 A 
ATOM     11  C   UNL     1      48.491  19.267  18.919  0.00  0.00    -0.123 A 
ATOM     12  C   UNL     1      47.759  20.142  19.860  0.00  0.00    +0.433 C 
ATOM     13  C   UNL     1      46.306  19.956  20.055  0.00  0.00    -0.119 A 
ATOM     14  C   UNL     1      45.607  20.774  20.939  0.00  0.00    +0.074 A 
ATOM     15  C   UNL     1      44.246  20.595  21.116  0.00  0.00    +0.040 A 
ATOM     16  C   UNL     1      43.574  19.606  20.422  0.00  0.00    +0.040 A 
ATOM     17  C   UNL     1      44.254  18.783  19.540  0.00  0.00    +0.075 A 
ATOM     18  C   UNL     1      45.622  18.951  19.347  0.00  0.00    -0.120 A 
ATOM     19  O   UNL     1      48.350  21.011  20.469  0.00  0.00    -0.426 OA
ATOM     20  C   UNL     1      46.356  18.078  18.408  0.00  0.00    +0.436 C 
ATOM     21  O   UNL     1      45.764  17.213  17.793  0.00  0.00    -0.430 OA
ATOM     22  C   UNL     1      49.867  19.444  18.737  0.00  0.00    -0.015 A 
ATOM     23  C   UNL     1      50.545  20.531  19.529  0.00  0.00    +0.134 C 
ENDROOT
BRANCH   2   3
ATOM      3  O   UNL     1      51.708  21.515  17.651  0.00  0.00    -0.553 OA
ATOM      4  H   UNL     1      52.119  21.050  16.909  0.00  0.00    +0.375 HD
ENDBRANCH   2   3
TORSDOF 1
ENDMDL
MODEL 3
REMARK VINA RESULT:      -6.2      1.792      5.779
REMARK  Name = ZINC14887523
REMARK  2 active torsions:
REMARK  status: ('A' for Active; 'I' for Inactive)
REMARK    1  A    between atoms: C1_1  and  C2_2
REMARK    2  A    between atoms: C2_2  and  O3_22
REMARK                            x       y       z     vdW  Elec       q    Type
REMARK                         _______ _______ _______ _____ _____    ______ ____
ROOT
ATOM      1  C   UNL     1      52.214  18.801  15.381  0.00  0.00    +0.019 C 
ATOM      2  C   UNL     1      51.680  19.218  16.753  0.00  0.00    +0.126 C 
ATOM      5  C   UNL     1      51.463  20.736  16.782  0.00  0.00    +0.003 C 
ATOM      6  C   UNL     1      51.166  21.152  18.221  0.00  0.00    +0.091 C 
ATOM      7  C   UNL     1      50.063  20.305  18.802  0.00  0.00    -0.050 A 
ATOM      8  C   UNL     1      49.419  20.777  19.940  0.00  0.00    +0.037 A 
ATOM      9  C   UNL     1      48.403  20.054  20.534  0.00  0.00    +0.072 A 
ATOM     10  C   UNL     1      48.015  18.834  19.989  0.00  0.00    -0.121 A 
ATOM     11  C   UNL     1      48.662  18.355  18.840  0.00  0.00    -0.123 A 
ATOM     12  C   UNL     1      48.262  17.060  18.249  0.00  0.00    +0.433 C 
ATOM     13  C   UNL     1      47.177  16.272  18.872  0.00  0.00    -0.119 A 
ATOM     14  C   UNL     1      46.792  15.052  18.322  0.00  0.00    +0.074 A 
ATOM     15  C   UNL     1      45.776  14.320  18.911  0.00  0.00    +0.040 A 
ATOM     16  C   UNL     1      45.138  14.793  20.044  0.00  0.00    +0.040 A 
ATOM     17  C   UNL     1      45.508  16.004  20.602  0.00  0.00    +0.075 A 
ATOM     18  C   UNL     1      46.529  16.753  20.024  0.00  0.00    -0.120 A 
ATOM     19  O   UNL     1      48.823  16.644  17.254  0.00  0.00    -0.426 OA
ATOM     20  C   UNL     1      46.931  18.047  20.614  0.00  0.00    +0.436 C 
ATOM     21  O   UNL     1      46.375  18.459  21.612  0.00  0.00    -0.430 OA
ATOM     22  C   UNL     1      49.688  19.099  18.247  0.00  0.00    -0.015 A 
ATOM     23  C   UNL     1      50.338  18.536  17.011  0.00  0.00    +0.134 C 
ENDROOT
BRANCH   2   3
ATOM      3  O   UNL     1      52.614  18.845  17.767  0.00  0.00    -0.553 OA
ATOM      4  H   UNL     1      53.539  18.943  17.505  0.00  0.00    +0.375 HD
ENDBRANCH   2   3
TORSDOF 1
ENDMDL
MODEL 4
REMARK VINA RESULT:      -5.9     20.949     22.175
REMARK  Name = ZINC14887523
REMARK  2 active torsions:
REMARK  status: ('A' for Active; 'I' for Inactive)
REMARK    1  A    between atoms: C1_1  and  C2_2
REMARK    2  A    between atoms: C2_2  and  O3_22
REMARK                            x       y       z     vdW  Elec       q    Type
REMARK                         _______ _______ _______ _____ _____    ______ ____
ROOT
ATOM      1  C   UNL     1      50.214  32.688   3.688  0.00  0.00    +0.019 C 
ATOM      2  C   UNL     1      51.383  33.426   4.344  0.00  0.00    +0.126 C 
ATOM      5  C   UNL     1      51.141  33.535   5.854  0.00  0.00    +0.003 C 
ATOM      6  C   UNL     1      52.190  34.476   6.443  0.00  0.00    +0.091 C 
ATOM      7  C   UNL     1      53.574  34.066   6.012  0.00  0.00    -0.050 A 
ATOM      8  C   UNL     1      54.649  34.567   6.737  0.00  0.00    +0.037 A 
ATOM      9  C   UNL     1      55.948  34.241   6.400  0.00  0.00    +0.072 A 
ATOM     10  C   UNL     1      56.190  33.401   5.318  0.00  0.00    -0.121 A 
ATOM     11  C   UNL     1      55.107  32.893   4.584  0.00  0.00    -0.123 A 
ATOM     12  C   UNL     1      55.346  31.998   3.431  0.00  0.00    +0.433 C 
ATOM     13  C   UNL     1      56.730  31.640   3.055  0.00  0.00    -0.119 A 
ATOM     14  C   UNL     1      56.965  30.797   1.971  0.00  0.00    +0.074 A 
ATOM     15  C   UNL     1      58.264  30.467   1.624  0.00  0.00    +0.040 A 
ATOM     16  C   UNL     1      59.331  30.968   2.347  0.00  0.00    +0.040 A 
ATOM     17  C   UNL     1      59.114  31.806   3.428  0.00  0.00    +0.075 A 
ATOM     18  C   UNL     1      57.815  32.150   3.790  0.00  0.00    -0.120 A 
ATOM     19  O   UNL     1      54.408  31.559   2.795  0.00  0.00    -0.426 OA
ATOM     20  C   UNL     1      57.574  33.044   4.941  0.00  0.00    +0.436 C 
ATOM     21  O   UNL     1      58.511  33.489   5.573  0.00  0.00    -0.430 OA
ATOM     22  C   UNL     1      53.796  33.229   4.939  0.00  0.00    -0.015 A 
ATOM     23  C   UNL     1      52.676  32.645   4.119  0.00  0.00    +0.134 C 
ENDROOT
BRANCH   2   3
ATOM      3  O   UNL     1      51.505  34.733   3.780  0.00  0.00    -0.553 OA
ATOM      4  H   UNL     1      50.693  35.063   3.372  0.00  0.00    +0.375 HD
ENDBRANCH   2   3
TORSDOF 1
ENDMDL
MODEL 5
REMARK VINA RESULT:      -5.8      2.715      5.070
REMARK  Name = ZINC14887523
REMARK  2 active torsions:
REMARK  status: ('A' for Active; 'I' for Inactive)
REMARK    1  A    between atoms: C1_1  and  C2_2
REMARK    2  A    between atoms: C2_2  and  O3_22
REMARK                            x       y       z     vdW  Elec       q    Type
REMARK                         _______ _______ _______ _____ _____    ______ ____
ROOT
ATOM      1  C   UNL     1      52.589  18.461  18.758  0.00  0.00    +0.019 C 
ATOM      2  C   UNL     1      51.230  18.259  18.085  0.00  0.00    +0.126 C 
ATOM      5  C   UNL     1      50.933  16.759  17.961  0.00  0.00    +0.003 C 
ATOM      6  C   UNL     1      49.699  16.584  17.079  0.00  0.00    +0.091 C 
ATOM      7  C   UNL     1      48.569  17.454  17.566  0.00  0.00    -0.050 A 
ATOM      8  C   UNL     1      47.286  17.151  17.125  0.00  0.00    +0.037 A 
ATOM      9  C   UNL     1      46.200  17.905  17.523  0.00  0.00    +0.072 A 
ATOM     10  C   UNL     1      46.388  18.988  18.376  0.00  0.00    -0.121 A 
ATOM     11  C   UNL     1      47.682  19.297  18.824  0.00  0.00    -0.123 A 
ATOM     12  C   UNL     1      47.899  20.443  19.732  0.00  0.00    +0.433 C 
ATOM     13  C   UNL     1      46.749  21.264  20.167  0.00  0.00    -0.119 A 
ATOM     14  C   UNL     1      46.943  22.345  21.022  0.00  0.00    +0.074 A 
ATOM     15  C   UNL     1      45.861  23.109  21.425  0.00  0.00    +0.040 A 
ATOM     16  C   UNL     1      44.586  22.804  20.984  0.00  0.00    +0.040 A 
ATOM     17  C   UNL     1      44.376  21.732  20.134  0.00  0.00    +0.075 A 
ATOM     18  C   UNL     1      45.453  20.954  19.717  0.00  0.00    -0.120 A 
ATOM     19  O   UNL     1      49.020  20.711  20.119  0.00  0.00    -0.426 OA
ATOM     20  C   UNL     1      45.237  19.808  18.810  0.00  0.00    +0.436 C 
ATOM     21  O   UNL     1      44.119  19.544  18.417  0.00  0.00    -0.430 OA
ATOM     22  C   UNL     1      48.772  18.521  18.415  0.00  0.00    -0.015 A 
ATOM     23  C   UNL     1      50.134  18.896  18.937  0.00  0.00    +0.134 C 
ENDROOT
BRANCH   2   3
ATOM      3  O   UNL     1      51.240  18.856  16.787  0.00  0.00    -0.553 OA
ATOM      4  H   UNL     1      51.353  18.224  16.064  0.00  0.00    +0.375 HD
ENDBRANCH   2   3
TORSDOF 1
ENDMDL
MODEL 6
REMARK VINA RESULT:      -5.7      1.462      2.030
REMARK  Name = ZINC14887523
REMARK  2 active torsions:
REMARK  status: ('A' for Active; 'I' for Inactive)
REMARK    1  A    between atoms: C1_1  and  C2_2
REMARK    2  A    between atoms: C2_2  and  O3_22
REMARK                            x       y       z     vdW  Elec       q    Type
REMARK                         _______ _______ _______ _____ _____    ______ ____
ROOT
ATOM      1  C   UNL     1      51.735  12.407  14.878  0.00  0.00    +0.019 C 
ATOM      2  C   UNL     1      50.515  13.028  15.561  0.00  0.00    +0.126 C 
ATOM      5  C   UNL     1      49.990  12.076  16.644  0.00  0.00    +0.003 C 
ATOM      6  C   UNL     1      48.645  12.604  17.138  0.00  0.00    +0.091 C 
ATOM      7  C   UNL     1      48.750  14.059  17.516  0.00  0.00    -0.050 A 
ATOM      8  C   UNL     1      47.749  14.591  18.319  0.00  0.00    +0.037 A 
ATOM      9  C   UNL     1      47.773  15.917  18.703  0.00  0.00    +0.072 A 
ATOM     10  C   UNL     1      48.813  16.738  18.280  0.00  0.00    -0.121 A 
ATOM     11  C   UNL     1      49.827  16.205  17.469  0.00  0.00    -0.123 A 
ATOM     12  C   UNL     1      50.941  17.064  17.012  0.00  0.00    +0.433 C 
ATOM     13  C   UNL     1      50.982  18.487  17.411  0.00  0.00    -0.119 A 
ATOM     14  C   UNL     1      52.026  19.304  16.986  0.00  0.00    +0.074 A 
ATOM     15  C   UNL     1      52.058  20.635  17.363  0.00  0.00    +0.040 A 
ATOM     16  C   UNL     1      51.059  21.161  18.162  0.00  0.00    +0.040 A 
ATOM     17  C   UNL     1      50.014  20.362  18.594  0.00  0.00    +0.075 A 
ATOM     18  C   UNL     1      49.965  19.021  18.222  0.00  0.00    -0.120 A 
ATOM     19  O   UNL     1      51.818  16.602  16.309  0.00  0.00    -0.426 OA
ATOM     20  C   UNL     1      48.853  18.161  18.679  0.00  0.00    +0.436 C 
ATOM     21  O   UNL     1      47.972  18.624  19.376  0.00  0.00    -0.430 OA
ATOM     22  C   UNL     1      49.791  14.858  17.091  0.00  0.00    -0.015 A 
ATOM     23  C   UNL     1      50.912  14.342  16.228  0.00  0.00    +0.134 C 
ENDROOT
BRANCH   2   3
ATOM      3  O   UNL     1      49.491  13.268  14.594  0.00  0.00    -0.553 OA
ATOM      4  H   UNL     1      48.626  13.468  14.978  0.00  0.00    +0.375 HD
ENDBRANCH   2   3
TORSDOF 1
ENDMDL
MODEL 7
REMARK VINA RESULT:      -5.7      1.553      5.886
REMARK  Name = ZINC14887523
REMARK  2 active torsions:
REMARK  status: ('A' for Active; 'I' for Inactive)
REMARK    1  A    between atoms: C1_1  and  C2_2
REMARK    2  A    between atoms: C2_2  and  O3_22
REMARK                            x       y       z     vdW  Elec       q    Type
REMARK                         _______ _______ _______ _____ _____    ______ ____
ROOT
ATOM      1  C   UNL     1      52.219  19.480  17.051  0.00  0.00    +0.019 C 
ATOM      2  C   UNL     1      51.068  19.438  18.058  0.00  0.00    +0.126 C 
ATOM      5  C   UNL     1      50.325  20.780  18.047  0.00  0.00    +0.003 C 
ATOM      6  C   UNL     1      49.345  20.797  19.219  0.00  0.00    +0.091 C 
ATOM      7  C   UNL     1      48.490  19.556  19.216  0.00  0.00    -0.050 A 
ATOM      8  C   UNL     1      47.321  19.576  19.966  0.00  0.00    +0.037 A 
ATOM      9  C   UNL     1      46.489  18.476  20.018  0.00  0.00    +0.072 A 
ATOM     10  C   UNL     1      46.823  17.325  19.311  0.00  0.00    -0.121 A 
ATOM     11  C   UNL     1      48.002  17.300  18.552  0.00  0.00    -0.123 A 
ATOM     12  C   UNL     1      48.372  16.085  17.794  0.00  0.00    +0.433 C 
ATOM     13  C   UNL     1      47.494  14.897  17.839  0.00  0.00    -0.119 A 
ATOM     14  C   UNL     1      47.833  13.748  17.128  0.00  0.00    +0.074 A 
ATOM     15  C   UNL     1      47.006  12.639  17.176  0.00  0.00    +0.040 A 
ATOM     16  C   UNL     1      45.843  12.664  17.924  0.00  0.00    +0.040 A 
ATOM     17  C   UNL     1      45.492  13.798  18.635  0.00  0.00    +0.075 A 
ATOM     18  C   UNL     1      46.312  14.922  18.601  0.00  0.00    -0.120 A 
ATOM     19  O   UNL     1      49.394  16.064  17.137  0.00  0.00    -0.426 OA
ATOM     20  C   UNL     1      45.945  16.137  19.358  0.00  0.00    +0.436 C 
ATOM     21  O   UNL     1      44.927  16.157  20.020  0.00  0.00    -0.430 OA
ATOM     22  C   UNL     1      48.834  18.424  18.506  0.00  0.00    -0.015 A 
ATOM     23  C   UNL     1      50.082  18.340  17.666  0.00  0.00    +0.134 C 
ENDROOT
BRANCH   2   3
ATOM      3  O   UNL     1      51.580  19.182  19.366  0.00  0.00    -0.553 OA
ATOM      4  H   UNL     1      51.264  19.799  20.040  0.00  0.00    +0.375 HD
ENDBRANCH   2   3
TORSDOF 1
ENDMDL
MODEL 8
REMARK VINA RESULT:      -5.7      1.604      2.168
REMARK  Name = ZINC14887523
REMARK  2 active torsions:
REMARK  status: ('A' for Active; 'I' for Inactive)
REMARK    1  A    between atoms: C1_1  and  C2_2
REMARK    2  A    between atoms: C2_2  and  O3_22
REMARK                            x       y       z     vdW  Elec       q    Type
REMARK                         _______ _______ _______ _____ _____    ______ ____
ROOT
ATOM      1  C   UNL     1      47.361  12.892  18.407  0.00  0.00    +0.019 C 
ATOM      2  C   UNL     1      47.081  14.277  18.994  0.00  0.00    +0.126 C 
ATOM      5  C   UNL     1      46.955  14.176  20.519  0.00  0.00    +0.003 C 
ATOM      6  C   UNL     1      46.441  15.513  21.049  0.00  0.00    +0.091 C 
ATOM      7  C   UNL     1      47.275  16.651  20.518  0.00  0.00    -0.050 A 
ATOM      8  C   UNL     1      47.191  17.873  21.176  0.00  0.00    +0.037 A 
ATOM      9  C   UNL     1      47.919  18.964  20.746  0.00  0.00    +0.072 A 
ATOM     10  C   UNL     1      48.750  18.844  19.636  0.00  0.00    -0.121 A 
ATOM     11  C   UNL     1      48.839  17.612  18.970  0.00  0.00    -0.123 A 
ATOM     12  C   UNL     1      49.718  17.468  17.790  0.00  0.00    +0.433 C 
ATOM     13  C   UNL     1      50.504  18.626  17.314  0.00  0.00    -0.119 A 
ATOM     14  C   UNL     1      51.335  18.500  16.204  0.00  0.00    +0.074 A 
ATOM     15  C   UNL     1      52.067  19.589  15.764  0.00  0.00    +0.040 A 
ATOM     16  C   UNL     1      51.981  20.803  16.420  0.00  0.00    +0.040 A 
ATOM     17  C   UNL     1      51.160  20.944  17.526  0.00  0.00    +0.075 A 
ATOM     18  C   UNL     1      50.414  19.861  17.981  0.00  0.00    -0.120 A 
ATOM     19  O   UNL     1      49.793  16.401  17.213  0.00  0.00    -0.426 OA
ATOM     20  C   UNL     1      49.535  20.003  19.160  0.00  0.00    +0.436 C 
ATOM     21  O   UNL     1      49.454  21.071  19.734  0.00  0.00    -0.430 OA
ATOM     22  C   UNL     1      48.097  16.514  19.420  0.00  0.00    -0.015 A 
ATOM     23  C   UNL     1      48.241  15.217  18.669  0.00  0.00    +0.134 C 
ENDROOT
BRANCH   2   3
ATOM      3  O   UNL     1      45.870  14.799  18.444  0.00  0.00    -0.553 OA
ATOM      4  H   UNL     1      45.995  15.315  17.636  0.00  0.00    +0.375 HD
ENDBRANCH   2   3
TORSDOF 1
ENDMDL
MODEL 9
REMARK VINA RESULT:      -5.5      1.297      1.945
REMARK  Name = ZINC14887523
REMARK  2 active torsions:
REMARK  status: ('A' for Active; 'I' for Inactive)
REMARK    1  A    between atoms: C1_1  and  C2_2
REMARK    2  A    between atoms: C2_2  and  O3_22
REMARK                            x       y       z     vdW  Elec       q    Type
REMARK                         _______ _______ _______ _____ _____    ______ ____
ROOT
ATOM      1  C   UNL     1      49.504  12.872  15.026  0.00  0.00    +0.019 C 
ATOM      2  C   UNL     1      48.291  13.321  15.843  0.00  0.00    +0.126 C 
ATOM      5  C   UNL     1      47.823  12.173  16.745  0.00  0.00    +0.003 C 
ATOM      6  C   UNL     1      46.481  12.562  17.363  0.00  0.00    +0.091 C 
ATOM      7  C   UNL     1      46.565  13.926  18.000  0.00  0.00    -0.050 A 
ATOM      8  C   UNL     1      45.576  14.272  18.913  0.00  0.00    +0.037 A 
ATOM      9  C   UNL     1      45.581  15.505  19.534  0.00  0.00    +0.072 A 
ATOM     10  C   UNL     1      46.588  16.420  19.242  0.00  0.00    -0.121 A 
ATOM     11  C   UNL     1      47.589  16.073  18.321  0.00  0.00    -0.123 A 
ATOM     12  C   UNL     1      48.667  17.033  18.001  0.00  0.00    +0.433 C 
ATOM     13  C   UNL     1      48.688  18.359  18.655  0.00  0.00    -0.119 A 
ATOM     14  C   UNL     1      49.699  19.270  18.360  0.00  0.00    +0.074 A 
ATOM     15  C   UNL     1      49.711  20.510  18.976  0.00  0.00    +0.040 A 
ATOM     16  C   UNL     1      48.725  20.851  19.883  0.00  0.00    +0.040 A 
ATOM     17  C   UNL     1      47.713  19.956  20.188  0.00  0.00    +0.075 A 
ATOM     18  C   UNL     1      47.684  18.706  19.577  0.00  0.00    -0.120 A 
ATOM     19  O   UNL     1      49.533  16.734  17.203  0.00  0.00    -0.426 OA
ATOM     20  C   UNL     1      46.608  17.745  19.896  0.00  0.00    +0.436 C 
ATOM     21  O   UNL     1      45.738  18.047  20.688  0.00  0.00    -0.430 OA
ATOM     22  C   UNL     1      47.573  14.819  17.703  0.00  0.00    -0.015 A 
ATOM     23  C   UNL     1      48.679  14.502  16.731  0.00  0.00    +0.134 C 
ENDROOT
BRANCH   2   3
ATOM      3  O   UNL     1      47.232  13.705  14.964  0.00  0.00    -0.553 OA
ATOM      4  H   UNL     1      46.731  14.475  15.265  0.00  0.00    +0.375 HD
ENDBRANCH   2   3
TORSDOF 1
ENDMDL
