MODEL 1
REMARK VINA RESULT:      -5.8      0.000      0.000
REMARK  Name = ZINC95486019
REMARK  12 active torsions:
REMARK  status: ('A' for Active; 'I' for Inactive)
REMARK    1  A    between atoms: C1_1  and  C2_2
REMARK    2  A    between atoms: C5_6  and  C15_20
REMARK    3  A    between atoms: C6_7  and  O2_18
REMARK    4  A    between atoms: C8_9  and  O1_16
REMARK    5  A    between atoms: C10_11  and  C12_15
REMARK    6  A    between atoms: N1_13  and  C11_14
REMARK    7  A    between atoms: O1_16  and  C13_17
REMARK    8  A    between atoms: O2_18  and  C14_19
REMARK    9  A    between atoms: C18_23  and  O4_32
REMARK   10  A    between atoms: C24_29  and  O3_30
REMARK   11  A    between atoms: O3_30  and  C25_31
REMARK   12  A    between atoms: O4_32  and  C26_33
REMARK                            x       y       z     vdW  Elec       q    Type
REMARK                         _______ _______ _______ _____ _____    ______ ____
ROOT
ATOM      1  C   UNL     1      40.592  19.563  18.611  0.00  0.00    +0.039 C 
ATOM      2  C   UNL     1      41.674  20.277  19.425  0.00  0.00    +0.124 C 
ATOM      3  C   UNL     1      42.927  19.404  19.492  0.00  0.00    +0.107 C 
ATOM      4  C   UNL     1      44.072  20.191  20.077  0.00  0.00    +0.025 A 
ATOM      5  C   UNL     1      45.185  19.491  20.554  0.00  0.00    -0.113 A 
ATOM     20  C   UNL     1      46.269  20.185  21.099  0.00  0.00    +0.183 A 
ATOM     23  C   UNL     1      46.235  21.567  21.164  0.00  0.00    -0.165 A 
ATOM     24  C   UNL     1      45.128  22.252  20.691  0.00  0.00    +0.177 A 
ATOM     27  C   UNL     1      44.044  21.563  20.149  0.00  0.00    -0.141 A 
ATOM     28  C   UNL     1      42.862  22.361  19.662  0.00  0.00    +0.186 C 
ATOM     29  C   UNL     1      43.362  23.589  18.899  0.00  0.00    +0.052 C 
ATOM     30  N   UNL     1      42.022  21.551  18.775  0.00  0.00    -0.529 NA
ATOM     31  C   UNL     1      40.815  22.284  18.374  0.00  0.00    +0.190 C 
ENDROOT
BRANCH   5   6
ATOM      6  C   UNL     1      45.216  18.012  20.480  0.00  0.00    -0.064 A 
ATOM      7  C   UNL     1      44.741  17.252  21.534  0.00  0.00    +0.082 A 
ATOM      8  C   UNL     1      44.765  15.864  21.476  0.00  0.00    -0.104 A 
ATOM      9  C   UNL     1      45.264  15.210  20.370  0.00  0.00    +0.167 A 
ATOM     12  C   UNL     1      45.756  15.954  19.278  0.00  0.00    -0.094 A 
ATOM     13  C   UNL     1      46.271  15.313  18.135  0.00  0.00    +0.166 A 
ATOM     16  C   UNL     1      46.728  16.074  17.081  0.00  0.00    -0.112 A 
ATOM     17  C   UNL     1      46.702  17.463  17.143  0.00  0.00    +0.062 A 
ATOM     18  C   UNL     1      46.214  18.108  18.240  0.00  0.00    -0.026 A 
ATOM     19  C   UNL     1      45.729  17.368  19.328  0.00  0.00    +0.037 A 
BRANCH   9  10
ATOM     10  O   UNL     1      45.280  13.854  20.331  0.00  0.00    -0.291 OA
ATOM     11  C   UNL     1      45.218  13.168  21.583  0.00  0.00    +0.237 C 
ENDBRANCH   9  10
BRANCH  13  14
ATOM     14  O   UNL     1      46.302  13.958  18.064  0.00  0.00    -0.291 OA
ATOM     15  C   UNL     1      46.661  13.381  16.807  0.00  0.00    +0.237 C 
ENDBRANCH  13  14
ENDBRANCH   5   6
BRANCH  20  21
ATOM     21  O   UNL     1      47.351  19.506  21.564  0.00  0.00    -0.302 OA
ATOM     22  C   UNL     1      48.562  19.626  20.814  0.00  0.00    +0.236 C 
ENDBRANCH  20  21
BRANCH  24  25
ATOM     25  O   UNL     1      45.098  23.609  20.757  0.00  0.00    -0.301 OA
ATOM     26  C   UNL     1      46.258  24.259  21.279  0.00  0.00    +0.230 C 
ENDBRANCH  24  25
TORSDOF 5
ENDMDL
MODEL 2
REMARK VINA RESULT:      -5.7      3.040      6.070
REMARK  Name = ZINC95486019
REMARK  12 active torsions:
REMARK  status: ('A' for Active; 'I' for Inactive)
REMARK    1  A    between atoms: C1_1  and  C2_2
REMARK    2  A    between atoms: C5_6  and  C15_20
REMARK    3  A    between atoms: C6_7  and  O2_18
REMARK    4  A    between atoms: C8_9  and  O1_16
REMARK    5  A    between atoms: C10_11  and  C12_15
REMARK    6  A    between atoms: N1_13  and  C11_14
REMARK    7  A    between atoms: O1_16  and  C13_17
REMARK    8  A    between atoms: O2_18  and  C14_19
REMARK    9  A    between atoms: C18_23  and  O4_32
REMARK   10  A    between atoms: C24_29  and  O3_30
REMARK   11  A    between atoms: O3_30  and  C25_31
REMARK   12  A    between atoms: O4_32  and  C26_33
REMARK                            x       y       z     vdW  Elec       q    Type
REMARK                         _______ _______ _______ _____ _____    ______ ____
ROOT
ATOM      1  C   UNL     1      44.096  20.690  19.118  0.00  0.00    +0.039 C 
ATOM      2  C   UNL     1      44.534  19.314  19.624  0.00  0.00    +0.124 C 
ATOM      3  C   UNL     1      45.981  19.383  20.114  0.00  0.00    +0.107 C 
ATOM      4  C   UNL     1      46.343  18.109  20.832  0.00  0.00    +0.025 A 
ATOM      5  C   UNL     1      47.697  17.822  21.036  0.00  0.00    -0.113 A 
ATOM     20  C   UNL     1      48.073  16.652  21.703  0.00  0.00    +0.183 A 
ATOM     23  C   UNL     1      47.099  15.781  22.161  0.00  0.00    -0.165 A 
ATOM     24  C   UNL     1      45.761  16.072  21.952  0.00  0.00    +0.177 A 
ATOM     27  C   UNL     1      45.382  17.236  21.286  0.00  0.00    -0.141 A 
ATOM     28  C   UNL     1      43.912  17.495  21.078  0.00  0.00    +0.186 C 
ATOM     29  C   UNL     1      43.152  17.143  22.358  0.00  0.00    +0.052 C 
ATOM     30  N   UNL     1      43.677  18.903  20.747  0.00  0.00    -0.529 NA
ATOM     31  C   UNL     1      42.261  19.146  20.444  0.00  0.00    +0.190 C 
ENDROOT
BRANCH   5   6
ATOM      6  C   UNL     1      48.734  18.758  20.546  0.00  0.00    -0.064 A 
ATOM      7  C   UNL     1      49.137  19.825  21.331  0.00  0.00    +0.082 A 
ATOM      8  C   UNL     1      50.108  20.709  20.882  0.00  0.00    -0.104 A 
ATOM      9  C   UNL     1      50.694  20.550  19.644  0.00  0.00    +0.167 A 
ATOM     12  C   UNL     1      50.307  19.475  18.819  0.00  0.00    -0.094 A 
ATOM     13  C   UNL     1      50.888  19.286  17.550  0.00  0.00    +0.166 A 
ATOM     16  C   UNL     1      50.497  18.213  16.779  0.00  0.00    -0.112 A 
ATOM     17  C   UNL     1      49.523  17.330  17.233  0.00  0.00    +0.062 A 
ATOM     18  C   UNL     1      48.941  17.492  18.454  0.00  0.00    -0.026 A 
ATOM     19  C   UNL     1      49.322  18.565  19.273  0.00  0.00    +0.037 A 
BRANCH   9  10
ATOM     10  O   UNL     1      51.641  21.425  19.222  0.00  0.00    -0.291 OA
ATOM     11  C   UNL     1      52.633  21.817  20.172  0.00  0.00    +0.237 C 
ENDBRANCH   9  10
BRANCH  13  14
ATOM     14  O   UNL     1      51.839  20.144  17.097  0.00  0.00    -0.291 OA
ATOM     15  C   UNL     1      52.271  19.978  15.745  0.00  0.00    +0.237 C 
ENDBRANCH  13  14
ENDBRANCH   5   6
BRANCH  20  21
ATOM     21  O   UNL     1      49.387  16.371  21.901  0.00  0.00    -0.302 OA
ATOM     22  C   UNL     1      49.907  15.209  21.251  0.00  0.00    +0.236 C 
ENDBRANCH  20  21
BRANCH  24  25
ATOM     25  O   UNL     1      44.808  15.214  22.403  0.00  0.00    -0.301 OA
ATOM     26  C   UNL     1      45.116  13.820  22.355  0.00  0.00    +0.230 C 
ENDBRANCH  24  25
TORSDOF 5
ENDMDL
MODEL 3
REMARK VINA RESULT:      -5.6      1.903      3.997
REMARK  Name = ZINC95486019
REMARK  12 active torsions:
REMARK  status: ('A' for Active; 'I' for Inactive)
REMARK    1  A    between atoms: C1_1  and  C2_2
REMARK    2  A    between atoms: C5_6  and  C15_20
REMARK    3  A    between atoms: C6_7  and  O2_18
REMARK    4  A    between atoms: C8_9  and  O1_16
REMARK    5  A    between atoms: C10_11  and  C12_15
REMARK    6  A    between atoms: N1_13  and  C11_14
REMARK    7  A    between atoms: O1_16  and  C13_17
REMARK    8  A    between atoms: O2_18  and  C14_19
REMARK    9  A    between atoms: C18_23  and  O4_32
REMARK   10  A    between atoms: C24_29  and  O3_30
REMARK   11  A    between atoms: O3_30  and  C25_31
REMARK   12  A    between atoms: O4_32  and  C26_33
REMARK                            x       y       z     vdW  Elec       q    Type
REMARK                         _______ _______ _______ _____ _____    ______ ____
ROOT
ATOM      1  C   UNL     1      49.834  19.073  22.345  0.00  0.00    +0.039 C 
ATOM      2  C   UNL     1      48.710  19.764  21.570  0.00  0.00    +0.124 C 
ATOM      3  C   UNL     1      47.453  18.894  21.602  0.00  0.00    +0.107 C 
ATOM      4  C   UNL     1      46.278  19.666  21.057  0.00  0.00    +0.025 A 
ATOM      5  C   UNL     1      45.139  18.955  20.668  0.00  0.00    -0.113 A 
ATOM     20  C   UNL     1      44.027  19.635  20.162  0.00  0.00    +0.183 A 
ATOM     23  C   UNL     1      44.060  21.015  20.050  0.00  0.00    -0.165 A 
ATOM     24  C   UNL     1      45.194  21.710  20.436  0.00  0.00    +0.177 A 
ATOM     27  C   UNL     1      46.305  21.035  20.939  0.00  0.00    -0.141 A 
ATOM     28  C   UNL     1      47.515  21.843  21.332  0.00  0.00    +0.186 C 
ATOM     29  C   UNL     1      47.061  23.098  22.081  0.00  0.00    +0.052 C 
ATOM     30  N   UNL     1      48.401  21.059  22.196  0.00  0.00    -0.529 NA
ATOM     31  C   UNL     1      49.631  21.801  22.504  0.00  0.00    +0.190 C 
ENDROOT
BRANCH   5   6
ATOM      6  C   UNL     1      45.109  17.480  20.792  0.00  0.00    -0.064 A 
ATOM      7  C   UNL     1      44.653  16.887  21.957  0.00  0.00    +0.082 A 
ATOM      8  C   UNL     1      44.621  15.505  22.084  0.00  0.00    -0.104 A 
ATOM      9  C   UNL     1      45.042  14.689  21.056  0.00  0.00    +0.167 A 
ATOM     12  C   UNL     1      45.512  15.258  19.856  0.00  0.00    -0.094 A 
ATOM     13  C   UNL     1      45.948  14.450  18.788  0.00  0.00    +0.166 A 
ATOM     16  C   UNL     1      46.384  15.043  17.624  0.00  0.00    -0.112 A 
ATOM     17  C   UNL     1      46.415  16.428  17.501  0.00  0.00    +0.062 A 
ATOM     18  C   UNL     1      46.004  17.233  18.520  0.00  0.00    -0.026 A 
ATOM     19  C   UNL     1      45.542  16.666  19.716  0.00  0.00    +0.037 A 
BRANCH   9  10
ATOM     10  O   UNL     1      45.003  13.339  21.200  0.00  0.00    -0.291 OA
ATOM     11  C   UNL     1      45.259  12.818  22.505  0.00  0.00    +0.237 C 
ENDBRANCH   9  10
BRANCH  13  14
ATOM     14  O   UNL     1      45.922  13.097  18.899  0.00  0.00    -0.291 OA
ATOM     15  C   UNL     1      45.804  12.348  17.687  0.00  0.00    +0.237 C 
ENDBRANCH  13  14
ENDBRANCH   5   6
BRANCH  20  21
ATOM     21  O   UNL     1      42.919  18.945  19.782  0.00  0.00    -0.302 OA
ATOM     22  C   UNL     1      41.681  19.661  19.774  0.00  0.00    +0.236 C 
ENDBRANCH  20  21
BRANCH  24  25
ATOM     25  O   UNL     1      45.222  23.064  20.324  0.00  0.00    -0.301 OA
ATOM     26  C   UNL     1      44.361  23.653  19.349  0.00  0.00    +0.230 C 
ENDBRANCH  24  25
TORSDOF 5
ENDMDL
MODEL 4
REMARK VINA RESULT:      -5.4      3.387      7.702
REMARK  Name = ZINC95486019
REMARK  12 active torsions:
REMARK  status: ('A' for Active; 'I' for Inactive)
REMARK    1  A    between atoms: C1_1  and  C2_2
REMARK    2  A    between atoms: C5_6  and  C15_20
REMARK    3  A    between atoms: C6_7  and  O2_18
REMARK    4  A    between atoms: C8_9  and  O1_16
REMARK    5  A    between atoms: C10_11  and  C12_15
REMARK    6  A    between atoms: N1_13  and  C11_14
REMARK    7  A    between atoms: O1_16  and  C13_17
REMARK    8  A    between atoms: O2_18  and  C14_19
REMARK    9  A    between atoms: C18_23  and  O4_32
REMARK   10  A    between atoms: C24_29  and  O3_30
REMARK   11  A    between atoms: O3_30  and  C25_31
REMARK   12  A    between atoms: O4_32  and  C26_33
REMARK                            x       y       z     vdW  Elec       q    Type
REMARK                         _______ _______ _______ _____ _____    ______ ____
ROOT
ATOM      1  C   UNL     1      51.095  21.519  16.656  0.00  0.00    +0.039 C 
ATOM      2  C   UNL     1      51.110  20.353  17.647  0.00  0.00    +0.124 C 
ATOM      3  C   UNL     1      49.791  20.317  18.419  0.00  0.00    +0.107 C 
ATOM      4  C   UNL     1      49.695  19.041  19.217  0.00  0.00    +0.025 A 
ATOM      5  C   UNL     1      48.759  18.974  20.253  0.00  0.00    -0.113 A 
ATOM     20  C   UNL     1      48.636  17.806  21.013  0.00  0.00    +0.183 A 
ATOM     23  C   UNL     1      49.446  16.719  20.732  0.00  0.00    -0.165 A 
ATOM     24  C   UNL     1      50.373  16.796  19.706  0.00  0.00    +0.177 A 
ATOM     27  C   UNL     1      50.499  17.959  18.948  0.00  0.00    -0.141 A 
ATOM     28  C   UNL     1      51.532  17.989  17.851  0.00  0.00    +0.186 C 
ATOM     29  C   UNL     1      51.502  16.660  17.094  0.00  0.00    +0.052 C 
ATOM     30  N   UNL     1      51.262  19.084  16.917  0.00  0.00    -0.529 NA
ATOM     31  C   UNL     1      52.318  19.186  15.901  0.00  0.00    +0.190 C 
ENDROOT
BRANCH   5   6
ATOM      6  C   UNL     1      47.894  20.139  20.546  0.00  0.00    -0.064 A 
ATOM      7  C   UNL     1      48.342  21.147  21.382  0.00  0.00    +0.082 A 
ATOM      8  C   UNL     1      47.539  22.245  21.664  0.00  0.00    -0.104 A 
ATOM      9  C   UNL     1      46.278  22.358  21.120  0.00  0.00    +0.167 A 
ATOM     12  C   UNL     1      45.790  21.351  20.264  0.00  0.00    -0.094 A 
ATOM     13  C   UNL     1      44.506  21.440  19.693  0.00  0.00    +0.166 A 
ATOM     16  C   UNL     1      44.070  20.444  18.848  0.00  0.00    -0.112 A 
ATOM     17  C   UNL     1      44.877  19.345  18.568  0.00  0.00    +0.062 A 
ATOM     18  C   UNL     1      46.121  19.232  19.111  0.00  0.00    -0.026 A 
ATOM     19  C   UNL     1      46.605  20.232  19.967  0.00  0.00    +0.037 A 
BRANCH   9  10
ATOM     10  O   UNL     1      45.508  23.438  21.408  0.00  0.00    -0.291 OA
ATOM     11  C   UNL     1      46.018  24.718  21.031  0.00  0.00    +0.237 C 
ENDBRANCH   9  10
BRANCH  13  14
ATOM     14  O   UNL     1      43.710  22.507  19.961  0.00  0.00    -0.291 OA
ATOM     15  C   UNL     1      42.531  22.654  19.166  0.00  0.00    +0.237 C 
ENDBRANCH  13  14
ENDBRANCH   5   6
BRANCH  20  21
ATOM     21  O   UNL     1      47.727  17.739  22.020  0.00  0.00    -0.302 OA
ATOM     22  C   UNL     1      46.716  16.735  21.915  0.00  0.00    +0.236 C 
ENDBRANCH  20  21
BRANCH  24  25
ATOM     25  O   UNL     1      51.166  15.726  19.435  0.00  0.00    -0.301 OA
ATOM     26  C   UNL     1      51.938  15.201  20.516  0.00  0.00    +0.230 C 
ENDBRANCH  24  25
TORSDOF 5
ENDMDL
MODEL 5
REMARK VINA RESULT:      -5.3      3.026      6.559
REMARK  Name = ZINC95486019
REMARK  12 active torsions:
REMARK  status: ('A' for Active; 'I' for Inactive)
REMARK    1  A    between atoms: C1_1  and  C2_2
REMARK    2  A    between atoms: C5_6  and  C15_20
REMARK    3  A    between atoms: C6_7  and  O2_18
REMARK    4  A    between atoms: C8_9  and  O1_16
REMARK    5  A    between atoms: C10_11  and  C12_15
REMARK    6  A    between atoms: N1_13  and  C11_14
REMARK    7  A    between atoms: O1_16  and  C13_17
REMARK    8  A    between atoms: O2_18  and  C14_19
REMARK    9  A    between atoms: C18_23  and  O4_32
REMARK   10  A    between atoms: C24_29  and  O3_30
REMARK   11  A    between atoms: O3_30  and  C25_31
REMARK   12  A    between atoms: O4_32  and  C26_33
REMARK                            x       y       z     vdW  Elec       q    Type
REMARK                         _______ _______ _______ _____ _____    ______ ____
ROOT
ATOM      1  C   UNL     1      44.062  20.151  18.829  0.00  0.00    +0.039 C 
ATOM      2  C   UNL     1      44.455  18.766  19.349  0.00  0.00    +0.124 C 
ATOM      3  C   UNL     1      45.969  18.704  19.551  0.00  0.00    +0.107 C 
ATOM      4  C   UNL     1      46.339  17.441  20.286  0.00  0.00    +0.025 A 
ATOM      5  C   UNL     1      47.672  17.018  20.253  0.00  0.00    -0.113 A 
ATOM     20  C   UNL     1      48.055  15.855  20.926  0.00  0.00    +0.183 A 
ATOM     23  C   UNL     1      47.109  15.124  21.625  0.00  0.00    -0.165 A 
ATOM     24  C   UNL     1      45.791  15.548  21.650  0.00  0.00    +0.177 A 
ATOM     27  C   UNL     1      45.405  16.707  20.978  0.00  0.00    -0.141 A 
ATOM     28  C   UNL     1      43.954  17.114  21.030  0.00  0.00    +0.186 C 
ATOM     29  C   UNL     1      43.428  16.923  22.454  0.00  0.00    +0.052 C 
ATOM     30  N   UNL     1      43.797  18.518  20.642  0.00  0.00    -0.529 NA
ATOM     31  C   UNL     1      42.379  18.897  20.592  0.00  0.00    +0.190 C 
ENDROOT
BRANCH   5   6
ATOM      6  C   UNL     1      48.679  17.805  19.506  0.00  0.00    -0.064 A 
ATOM      7  C   UNL     1      48.986  17.480  18.196  0.00  0.00    +0.082 A 
ATOM      8  C   UNL     1      49.929  18.211  17.486  0.00  0.00    -0.104 A 
ATOM      9  C   UNL     1      50.584  19.277  18.066  0.00  0.00    +0.167 A 
ATOM     12  C   UNL     1      50.296  19.635  19.398  0.00  0.00    -0.094 A 
ATOM     13  C   UNL     1      50.948  20.719  20.018  0.00  0.00    +0.166 A 
ATOM     16  C   UNL     1      50.627  21.050  21.316  0.00  0.00    -0.112 A 
ATOM     17  C   UNL     1      49.682  20.315  22.024  0.00  0.00    +0.062 A 
ATOM     18  C   UNL     1      49.040  19.259  21.450  0.00  0.00    -0.026 A 
ATOM     19  C   UNL     1      49.331  18.899  20.127  0.00  0.00    +0.037 A 
BRANCH   9  10
ATOM     10  O   UNL     1      51.503  19.979  17.356  0.00  0.00    -0.291 OA
ATOM     11  C   UNL     1      51.902  19.437  16.096  0.00  0.00    +0.237 C 
ENDBRANCH   9  10
BRANCH  13  14
ATOM     14  O   UNL     1      51.873  21.442  19.335  0.00  0.00    -0.291 OA
ATOM     15  C   UNL     1      52.952  21.995  20.092  0.00  0.00    +0.237 C 
ENDBRANCH  13  14
ENDBRANCH   5   6
BRANCH  20  21
ATOM     21  O   UNL     1      49.350  15.443  20.895  0.00  0.00    -0.302 OA
ATOM     22  C   UNL     1      50.100  15.569  22.106  0.00  0.00    +0.236 C 
ENDBRANCH  20  21
BRANCH  24  25
ATOM     25  O   UNL     1      44.866  14.828  22.336  0.00  0.00    -0.301 OA
ATOM     26  C   UNL     1      45.124  13.433  22.505  0.00  0.00    +0.230 C 
ENDBRANCH  24  25
TORSDOF 5
ENDMDL
MODEL 6
REMARK VINA RESULT:      -5.0      4.289      9.012
REMARK  Name = ZINC95486019
REMARK  12 active torsions:
REMARK  status: ('A' for Active; 'I' for Inactive)
REMARK    1  A    between atoms: C1_1  and  C2_2
REMARK    2  A    between atoms: C5_6  and  C15_20
REMARK    3  A    between atoms: C6_7  and  O2_18
REMARK    4  A    between atoms: C8_9  and  O1_16
REMARK    5  A    between atoms: C10_11  and  C12_15
REMARK    6  A    between atoms: N1_13  and  C11_14
REMARK    7  A    between atoms: O1_16  and  C13_17
REMARK    8  A    between atoms: O2_18  and  C14_19
REMARK    9  A    between atoms: C18_23  and  O4_32
REMARK   10  A    between atoms: C24_29  and  O3_30
REMARK   11  A    between atoms: O3_30  and  C25_31
REMARK   12  A    between atoms: O4_32  and  C26_33
REMARK                            x       y       z     vdW  Elec       q    Type
REMARK                         _______ _______ _______ _____ _____    ______ ____
ROOT
ATOM      1  C   UNL     1      52.523  13.620  19.708  0.00  0.00    +0.039 C 
ATOM      2  C   UNL     1      51.010  13.834  19.630  0.00  0.00    +0.124 C 
ATOM      3  C   UNL     1      50.705  15.026  18.722  0.00  0.00    +0.107 C 
ATOM      4  C   UNL     1      49.225  15.096  18.444  0.00  0.00    +0.025 A 
ATOM      5  C   UNL     1      48.699  16.292  17.945  0.00  0.00    -0.113 A 
ATOM     20  C   UNL     1      47.332  16.396  17.670  0.00  0.00    +0.183 A 
ATOM     23  C   UNL     1      46.504  15.309  17.893  0.00  0.00    -0.165 A 
ATOM     24  C   UNL     1      47.034  14.129  18.389  0.00  0.00    +0.177 A 
ATOM     27  C   UNL     1      48.396  14.023  18.667  0.00  0.00    -0.141 A 
ATOM     28  C   UNL     1      48.914  12.719  19.216  0.00  0.00    +0.186 C 
ATOM     29  C   UNL     1      48.261  11.559  18.462  0.00  0.00    +0.052 C 
ATOM     30  N   UNL     1      50.369  12.636  19.065  0.00  0.00    -0.529 NA
ATOM     31  C   UNL     1      50.897  11.415  19.687  0.00  0.00    +0.190 C 
ENDROOT
BRANCH   5   6
ATOM      6  C   UNL     1      49.590  17.450  17.707  0.00  0.00    -0.064 A 
ATOM      7  C   UNL     1      50.256  17.581  16.500  0.00  0.00    +0.082 A 
ATOM      8  C   UNL     1      51.095  18.663  16.266  0.00  0.00    -0.104 A 
ATOM      9  C   UNL     1      51.286  19.632  17.227  0.00  0.00    +0.167 A 
ATOM     12  C   UNL     1      50.623  19.531  18.467  0.00  0.00    -0.094 A 
ATOM     13  C   UNL     1      50.799  20.506  19.468  0.00  0.00    +0.166 A 
ATOM     16  C   UNL     1      50.121  20.382  20.661  0.00  0.00    -0.112 A 
ATOM     17  C   UNL     1      49.282  19.296  20.891  0.00  0.00    +0.062 A 
ATOM     18  C   UNL     1      49.099  18.336  19.942  0.00  0.00    -0.026 A 
ATOM     19  C   UNL     1      49.762  18.434  18.711  0.00  0.00    +0.037 A 
BRANCH   9  10
ATOM     10  O   UNL     1      52.110  20.682  16.980  0.00  0.00    -0.291 OA
ATOM     11  C   UNL     1      51.839  21.459  15.813  0.00  0.00    +0.237 C 
ENDBRANCH   9  10
BRANCH  13  14
ATOM     14  O   UNL     1      51.616  21.569  19.253  0.00  0.00    -0.291 OA
ATOM     15  C   UNL     1      52.588  21.855  20.261  0.00  0.00    +0.237 C 
ENDBRANCH  13  14
ENDBRANCH   5   6
BRANCH  20  21
ATOM     21  O   UNL     1      46.819  17.557  17.186  0.00  0.00    -0.302 OA
ATOM     22  C   UNL     1      45.877  18.245  18.014  0.00  0.00    +0.236 C 
ENDBRANCH  20  21
BRANCH  24  25
ATOM     25  O   UNL     1      46.217  13.065  18.607  0.00  0.00    -0.301 OA
ATOM     26  C   UNL     1      45.088  13.277  19.456  0.00  0.00    +0.230 C 
ENDBRANCH  24  25
TORSDOF 5
ENDMDL
MODEL 7
REMARK VINA RESULT:      -5.0      2.322      2.976
REMARK  Name = ZINC95486019
REMARK  12 active torsions:
REMARK  status: ('A' for Active; 'I' for Inactive)
REMARK    1  A    between atoms: C1_1  and  C2_2
REMARK    2  A    between atoms: C5_6  and  C15_20
REMARK    3  A    between atoms: C6_7  and  O2_18
REMARK    4  A    between atoms: C8_9  and  O1_16
REMARK    5  A    between atoms: C10_11  and  C12_15
REMARK    6  A    between atoms: N1_13  and  C11_14
REMARK    7  A    between atoms: O1_16  and  C13_17
REMARK    8  A    between atoms: O2_18  and  C14_19
REMARK    9  A    between atoms: C18_23  and  O4_32
REMARK   10  A    between atoms: C24_29  and  O3_30
REMARK   11  A    between atoms: O3_30  and  C25_31
REMARK   12  A    between atoms: O4_32  and  C26_33
REMARK                            x       y       z     vdW  Elec       q    Type
REMARK                         _______ _______ _______ _____ _____    ______ ____
ROOT
ATOM      1  C   UNL     1      42.853  16.786  22.135  0.00  0.00    +0.039 C 
ATOM      2  C   UNL     1      43.575  18.040  21.637  0.00  0.00    +0.124 C 
ATOM      3  C   UNL     1      44.833  17.638  20.868  0.00  0.00    +0.107 C 
ATOM      4  C   UNL     1      45.417  18.840  20.170  0.00  0.00    +0.025 A 
ATOM      5  C   UNL     1      46.739  18.771  19.720  0.00  0.00    -0.113 A 
ATOM     20  C   UNL     1      47.315  19.863  19.065  0.00  0.00    +0.183 A 
ATOM     23  C   UNL     1      46.569  21.012  18.863  0.00  0.00    -0.165 A 
ATOM     24  C   UNL     1      45.261  21.073  19.314  0.00  0.00    +0.177 A 
ATOM     27  C   UNL     1      44.685  19.986  19.970  0.00  0.00    -0.141 A 
ATOM     28  C   UNL     1      43.261  20.114  20.450  0.00  0.00    +0.186 C 
ATOM     29  C   UNL     1      42.425  20.802  19.369  0.00  0.00    +0.052 C 
ATOM     30  N   UNL     1      42.692  18.794  20.733  0.00  0.00    -0.529 NA
ATOM     31  C   UNL     1      41.340  18.911  21.296  0.00  0.00    +0.190 C 
ENDROOT
BRANCH   5   6
ATOM      6  C   UNL     1      47.531  17.538  19.937  0.00  0.00    -0.064 A 
ATOM      7  C   UNL     1      48.287  17.388  21.087  0.00  0.00    +0.082 A 
ATOM      8  C   UNL     1      49.033  16.237  21.300  0.00  0.00    -0.104 A 
ATOM      9  C   UNL     1      49.041  15.216  20.374  0.00  0.00    +0.167 A 
ATOM     12  C   UNL     1      48.283  15.335  19.192  0.00  0.00    -0.094 A 
ATOM     13  C   UNL     1      48.272  14.309  18.228  0.00  0.00    +0.166 A 
ATOM     16  C   UNL     1      47.505  14.454  17.093  0.00  0.00    -0.112 A 
ATOM     17  C   UNL     1      46.759  15.610  16.883  0.00  0.00    +0.062 A 
ATOM     18  C   UNL     1      46.756  16.620  17.797  0.00  0.00    -0.026 A 
ATOM     19  C   UNL     1      47.515  16.503  18.970  0.00  0.00    +0.037 A 
BRANCH   9  10
ATOM     10  O   UNL     1      49.778  14.098  20.600  0.00  0.00    -0.291 OA
ATOM     11  C   UNL     1      49.635  13.475  21.877  0.00  0.00    +0.237 C 
ENDBRANCH   9  10
BRANCH  13  14
ATOM     14  O   UNL     1      48.998  13.178  18.423  0.00  0.00    -0.291 OA
ATOM     15  C   UNL     1      48.335  11.933  18.188  0.00  0.00    +0.237 C 
ENDBRANCH  13  14
ENDBRANCH   5   6
BRANCH  20  21
ATOM     21  O   UNL     1      48.600  19.798  18.628  0.00  0.00    -0.302 OA
ATOM     22  C   UNL     1      49.541  20.677  19.248  0.00  0.00    +0.236 C 
ENDBRANCH  20  21
BRANCH  24  25
ATOM     25  O   UNL     1      44.533  22.203  19.115  0.00  0.00    -0.301 OA
ATOM     26  C   UNL     1      44.913  23.359  19.861  0.00  0.00    +0.230 C 
ENDBRANCH  24  25
TORSDOF 5
ENDMDL
MODEL 8
REMARK VINA RESULT:      -5.0      3.041      5.635
REMARK  Name = ZINC95486019
REMARK  12 active torsions:
REMARK  status: ('A' for Active; 'I' for Inactive)
REMARK    1  A    between atoms: C1_1  and  C2_2
REMARK    2  A    between atoms: C5_6  and  C15_20
REMARK    3  A    between atoms: C6_7  and  O2_18
REMARK    4  A    between atoms: C8_9  and  O1_16
REMARK    5  A    between atoms: C10_11  and  C12_15
REMARK    6  A    between atoms: N1_13  and  C11_14
REMARK    7  A    between atoms: O1_16  and  C13_17
REMARK    8  A    between atoms: O2_18  and  C14_19
REMARK    9  A    between atoms: C18_23  and  O4_32
REMARK   10  A    between atoms: C24_29  and  O3_30
REMARK   11  A    between atoms: O3_30  and  C25_31
REMARK   12  A    between atoms: O4_32  and  C26_33
REMARK                            x       y       z     vdW  Elec       q    Type
REMARK                         _______ _______ _______ _____ _____    ______ ____
ROOT
ATOM      1  C   UNL     1      51.845  18.352  17.185  0.00  0.00    +0.039 C 
ATOM      2  C   UNL     1      50.551  18.949  17.742  0.00  0.00    +0.124 C 
ATOM      3  C   UNL     1      49.558  17.828  18.049  0.00  0.00    +0.107 C 
ATOM      4  C   UNL     1      48.384  18.376  18.819  0.00  0.00    +0.025 A 
ATOM      5  C   UNL     1      47.215  17.611  18.882  0.00  0.00    -0.113 A 
ATOM     20  C   UNL     1      46.105  18.083  19.590  0.00  0.00    +0.183 A 
ATOM     23  C   UNL     1      46.172  19.310  20.228  0.00  0.00    -0.165 A 
ATOM     24  C   UNL     1      47.332  20.062  20.158  0.00  0.00    +0.177 A 
ATOM     27  C   UNL     1      48.439  19.596  19.451  0.00  0.00    -0.141 A 
ATOM     28  C   UNL     1      49.671  20.462  19.399  0.00  0.00    +0.186 C 
ATOM     29  C   UNL     1      49.927  21.059  20.784  0.00  0.00    +0.052 C 
ATOM     30  N   UNL     1      50.838  19.677  18.988  0.00  0.00    -0.529 NA
ATOM     31  C   UNL     1      52.024  20.531  18.837  0.00  0.00    +0.190 C 
ENDROOT
BRANCH   5   6
ATOM      6  C   UNL     1      47.152  16.299  18.200  0.00  0.00    -0.064 A 
ATOM      7  C   UNL     1      46.779  16.222  16.869  0.00  0.00    +0.082 A 
ATOM      8  C   UNL     1      46.716  14.996  16.220  0.00  0.00    -0.104 A 
ATOM      9  C   UNL     1      47.021  13.827  16.882  0.00  0.00    +0.167 A 
ATOM     12  C   UNL     1      47.405  13.868  18.237  0.00  0.00    -0.094 A 
ATOM     13  C   UNL     1      47.723  12.689  18.940  0.00  0.00    +0.166 A 
ATOM     16  C   UNL     1      48.110  12.772  20.260  0.00  0.00    -0.112 A 
ATOM     17  C   UNL     1      48.171  14.001  20.907  0.00  0.00    +0.062 A 
ATOM     18  C   UNL     1      47.864  15.156  20.252  0.00  0.00    -0.026 A 
ATOM     19  C   UNL     1      47.477  15.114  18.905  0.00  0.00    +0.037 A 
BRANCH   9  10
ATOM     10  O   UNL     1      46.954  12.638  16.230  0.00  0.00    -0.291 OA
ATOM     11  C   UNL     1      47.725  12.508  15.035  0.00  0.00    +0.237 C 
ENDBRANCH   9  10
BRANCH  13  14
ATOM     14  O   UNL     1      47.665  11.484  18.318  0.00  0.00    -0.291 OA
ATOM     15  C   UNL     1      48.737  10.572  18.568  0.00  0.00    +0.237 C 
ENDBRANCH  13  14
ENDBRANCH   5   6
BRANCH  20  21
ATOM     21  O   UNL     1      44.969  17.341  19.652  0.00  0.00    -0.302 OA
ATOM     22  C   UNL     1      44.601  16.824  20.933  0.00  0.00    +0.236 C 
ENDBRANCH  20  21
BRANCH  24  25
ATOM     25  O   UNL     1      47.392  21.267  20.784  0.00  0.00    -0.301 OA
ATOM     26  C   UNL     1      46.159  21.961  20.974  0.00  0.00    +0.230 C 
ENDBRANCH  24  25
TORSDOF 5
ENDMDL
MODEL 9
REMARK VINA RESULT:      -4.9      4.812      9.233
REMARK  Name = ZINC95486019
REMARK  12 active torsions:
REMARK  status: ('A' for Active; 'I' for Inactive)
REMARK    1  A    between atoms: C1_1  and  C2_2
REMARK    2  A    between atoms: C5_6  and  C15_20
REMARK    3  A    between atoms: C6_7  and  O2_18
REMARK    4  A    between atoms: C8_9  and  O1_16
REMARK    5  A    between atoms: C10_11  and  C12_15
REMARK    6  A    between atoms: N1_13  and  C11_14
REMARK    7  A    between atoms: O1_16  and  C13_17
REMARK    8  A    between atoms: O2_18  and  C14_19
REMARK    9  A    between atoms: C18_23  and  O4_32
REMARK   10  A    between atoms: C24_29  and  O3_30
REMARK   11  A    between atoms: O3_30  and  C25_31
REMARK   12  A    between atoms: O4_32  and  C26_33
REMARK                            x       y       z     vdW  Elec       q    Type
REMARK                         _______ _______ _______ _____ _____    ______ ____
ROOT
ATOM      1  C   UNL     1      53.203  13.664  19.366  0.00  0.00    +0.039 C 
ATOM      2  C   UNL     1      51.773  13.567  18.829  0.00  0.00    +0.124 C 
ATOM      3  C   UNL     1      51.188  14.970  18.669  0.00  0.00    +0.107 C 
ATOM      4  C   UNL     1      49.882  14.901  17.919  0.00  0.00    +0.025 A 
ATOM      5  C   UNL     1      49.021  16.002  17.980  0.00  0.00    -0.113 A 
ATOM     20  C   UNL     1      47.803  15.978  17.294  0.00  0.00    +0.183 A 
ATOM     23  C   UNL     1      47.455  14.861  16.555  0.00  0.00    -0.165 A 
ATOM     24  C   UNL     1      48.312  13.775  16.501  0.00  0.00    +0.177 A 
ATOM     27  C   UNL     1      49.527  13.794  17.186  0.00  0.00    -0.141 A 
ATOM     28  C   UNL     1      50.414  12.579  17.101  0.00  0.00    +0.186 C 
ATOM     29  C   UNL     1      50.432  12.067  15.659  0.00  0.00    +0.052 C 
ATOM     30  N   UNL     1      51.781  12.908  17.514  0.00  0.00    -0.529 NA
ATOM     31  C   UNL     1      52.631  11.710  17.531  0.00  0.00    +0.190 C 
ENDROOT
BRANCH   5   6
ATOM      6  C   UNL     1      49.400  17.194  18.771  0.00  0.00    -0.064 A 
ATOM      7  C   UNL     1      49.004  17.309  20.092  0.00  0.00    +0.082 A 
ATOM      8  C   UNL     1      49.354  18.424  20.844  0.00  0.00    -0.104 A 
ATOM      9  C   UNL     1      50.102  19.442  20.294  0.00  0.00    +0.167 A 
ATOM     12  C   UNL     1      50.523  19.358  18.952  0.00  0.00    -0.094 A 
ATOM     13  C   UNL     1      51.289  20.383  18.363  0.00  0.00    +0.166 A 
ATOM     16  C   UNL     1      51.695  20.257  17.053  0.00  0.00    -0.112 A 
ATOM     17  C   UNL     1      51.343  19.140  16.304  0.00  0.00    +0.062 A 
ATOM     18  C   UNL     1      50.598  18.136  16.847  0.00  0.00    -0.026 A 
ATOM     19  C   UNL     1      50.175  18.223  18.181  0.00  0.00    +0.037 A 
BRANCH   9  10
ATOM     10  O   UNL     1      50.434  20.524  21.044  0.00  0.00    -0.291 OA
ATOM     11  C   UNL     1      50.723  20.293  22.424  0.00  0.00    +0.237 C 
ENDBRANCH   9  10
BRANCH  13  14
ATOM     14  O   UNL     1      51.637  21.479  19.086  0.00  0.00    -0.291 OA
ATOM     15  C   UNL     1      53.005  21.584  19.486  0.00  0.00    +0.237 C 
ENDBRANCH  13  14
ENDBRANCH   5   6
BRANCH  20  21
ATOM     21  O   UNL     1      46.965  17.046  17.354  0.00  0.00    -0.302 OA
ATOM     22  C   UNL     1      45.849  16.946  18.242  0.00  0.00    +0.236 C 
ENDBRANCH  20  21
BRANCH  24  25
ATOM     25  O   UNL     1      47.966  12.680  15.775  0.00  0.00    -0.301 OA
ATOM     26  C   UNL     1      46.797  11.971  16.187  0.00  0.00    +0.230 C 
ENDBRANCH  24  25
TORSDOF 5
ENDMDL
