MODEL 1
REMARK VINA RESULT:      -5.5      0.000      0.000
REMARK  Name = ZINC00607911
REMARK  9 active torsions:
REMARK  status: ('A' for Active; 'I' for Inactive)
REMARK    1  A    between atoms: C1_1  and  N1_2
REMARK    2  A    between atoms: C6_7  and  O4_26
REMARK    3  A    between atoms: C7_8  and  O3_24
REMARK    4  A    between atoms: C15_17  and  O2_22
REMARK    5  A    between atoms: C16_18  and  O1_20
REMARK    6  A    between atoms: O1_20  and  C18_21
REMARK    7  A    between atoms: O2_22  and  C19_23
REMARK    8  A    between atoms: O3_24  and  C20_25
REMARK    9  A    between atoms: O4_26  and  C21_27
REMARK                            x       y       z     vdW  Elec       q    Type
REMARK                         _______ _______ _______ _____ _____    ______ ____
ROOT
ATOM      1  C   UNL     1      44.200  19.558  19.032  0.00  0.00    +0.196 C 
ATOM      2  N   UNL     1      45.617  19.939  18.960  0.00  0.00    -0.535 NA
ATOM      3  C   UNL     1      45.997  20.765  20.106  0.00  0.00    +0.177 C 
ATOM      4  C   UNL     1      47.381  21.363  19.907  0.00  0.00    +0.090 C 
ATOM      5  C   UNL     1      48.327  20.406  19.240  0.00  0.00    -0.023 A 
ATOM      6  C   UNL     1      49.664  20.776  19.137  0.00  0.00    -0.069 A 
ATOM      7  C   UNL     1      50.591  19.932  18.556  0.00  0.00    +0.119 A 
ATOM     10  C   UNL     1      50.186  18.698  18.061  0.00  0.00    +0.068 A 
ATOM     13  C   UNL     1      48.844  18.334  18.144  0.00  0.00    -0.005 A 
ATOM     14  C   UNL     1      48.390  17.025  17.616  0.00  0.00    -0.050 A 
ATOM     15  C   UNL     1      49.305  16.008  17.357  0.00  0.00    +0.017 A 
ATOM     16  C   UNL     1      48.857  14.788  16.881  0.00  0.00    +0.091 A 
ATOM     19  C   UNL     1      47.498  14.581  16.666  0.00  0.00    +0.111 A 
ATOM     22  C   UNL     1      46.589  15.597  16.919  0.00  0.00    -0.036 A 
ATOM     23  C   UNL     1      47.031  16.818  17.385  0.00  0.00    -0.061 A 
ATOM     24  C   UNL     1      46.055  17.934  17.643  0.00  0.00    +0.103 C 
ATOM     25  C   UNL     1      47.916  19.188  18.745  0.00  0.00    -0.089 A 
ATOM     26  C   UNL     1      46.479  18.751  18.862  0.00  0.00    +0.194 C 
ENDROOT
BRANCH   7   8
ATOM      8  O   UNL     1      51.896  20.307  18.469  0.00  0.00    -0.306 OA
ATOM      9  C   UNL     1      52.399  21.152  19.505  0.00  0.00    +0.240 C 
ENDBRANCH   7   8
BRANCH  10  11
ATOM     11  O   UNL     1      51.092  17.854  17.500  0.00  0.00    -0.319 OA
ATOM     12  C   UNL     1      51.571  18.190  16.196  0.00  0.00    +0.222 C 
ENDBRANCH  10  11
BRANCH  16  17
ATOM     17  O   UNL     1      49.747  13.791  16.624  0.00  0.00    -0.306 OA
ATOM     18  C   UNL     1      51.079  14.181  16.286  0.00  0.00    +0.238 C 
ENDBRANCH  16  17
BRANCH  19  20
ATOM     20  O   UNL     1      47.059  13.378  16.205  0.00  0.00    -0.304 OA
ATOM     21  C   UNL     1      46.223  12.616  17.078  0.00  0.00    +0.237 C 
ENDBRANCH  19  20
TORSDOF 4
ENDMDL
MODEL 2
REMARK VINA RESULT:      -5.5      2.214      5.373
REMARK  Name = ZINC00607911
REMARK  9 active torsions:
REMARK  status: ('A' for Active; 'I' for Inactive)
REMARK    1  A    between atoms: C1_1  and  N1_2
REMARK    2  A    between atoms: C6_7  and  O4_26
REMARK    3  A    between atoms: C7_8  and  O3_24
REMARK    4  A    between atoms: C15_17  and  O2_22
REMARK    5  A    between atoms: C16_18  and  O1_20
REMARK    6  A    between atoms: O1_20  and  C18_21
REMARK    7  A    between atoms: O2_22  and  C19_23
REMARK    8  A    between atoms: O3_24  and  C20_25
REMARK    9  A    between atoms: O4_26  and  C21_27
REMARK                            x       y       z     vdW  Elec       q    Type
REMARK                         _______ _______ _______ _____ _____    ______ ____
ROOT
ATOM      1  C   UNL     1      44.766  22.402  19.516  0.00  0.00    +0.196 C 
ATOM      2  N   UNL     1      44.767  20.967  19.829  0.00  0.00    -0.535 NA
ATOM      3  C   UNL     1      43.491  20.350  19.466  0.00  0.00    +0.177 C 
ATOM      4  C   UNL     1      43.399  18.935  20.015  0.00  0.00    +0.090 C 
ATOM      5  C   UNL     1      44.710  18.205  19.939  0.00  0.00    -0.023 A 
ATOM      6  C   UNL     1      44.724  16.854  20.268  0.00  0.00    -0.069 A 
ATOM      7  C   UNL     1      45.893  16.119  20.197  0.00  0.00    +0.119 A 
ATOM     10  C   UNL     1      47.073  16.735  19.796  0.00  0.00    +0.068 A 
ATOM     13  C   UNL     1      47.065  18.093  19.486  0.00  0.00    -0.005 A 
ATOM     14  C   UNL     1      48.314  18.771  19.063  0.00  0.00    -0.050 A 
ATOM     15  C   UNL     1      49.412  18.031  18.633  0.00  0.00    +0.017 A 
ATOM     16  C   UNL     1      50.562  18.685  18.226  0.00  0.00    +0.091 A 
ATOM     19  C   UNL     1      50.616  20.076  18.246  0.00  0.00    +0.111 A 
ATOM     22  C   UNL     1      49.523  20.810  18.680  0.00  0.00    -0.036 A 
ATOM     23  C   UNL     1      48.378  20.163  19.096  0.00  0.00    -0.061 A 
ATOM     24  C   UNL     1      47.194  20.950  19.589  0.00  0.00    +0.103 C 
ATOM     25  C   UNL     1      45.877  18.826  19.549  0.00  0.00    -0.089 A 
ATOM     26  C   UNL     1      45.887  20.282  19.164  0.00  0.00    +0.194 C 
ENDROOT
BRANCH   7   8
ATOM      8  O   UNL     1      45.888  14.797  20.517  0.00  0.00    -0.306 OA
ATOM      9  C   UNL     1      45.400  13.891  19.526  0.00  0.00    +0.240 C 
ENDBRANCH   7   8
BRANCH  10  11
ATOM     11  O   UNL     1      48.225  16.018  19.709  0.00  0.00    -0.319 OA
ATOM     12  C   UNL     1      48.833  15.617  20.938  0.00  0.00    +0.222 C 
ENDBRANCH  10  11
BRANCH  16  17
ATOM     17  O   UNL     1      51.639  17.968  17.807  0.00  0.00    -0.306 OA
ATOM     18  C   UNL     1      51.551  17.359  16.518  0.00  0.00    +0.238 C 
ENDBRANCH  16  17
BRANCH  19  20
ATOM     20  O   UNL     1      51.745  20.717  17.838  0.00  0.00    -0.304 OA
ATOM     21  C   UNL     1      51.799  21.128  16.471  0.00  0.00    +0.237 C 
ENDBRANCH  19  20
TORSDOF 4
ENDMDL
MODEL 3
REMARK VINA RESULT:      -5.5      3.201      6.037
REMARK  Name = ZINC00607911
REMARK  9 active torsions:
REMARK  status: ('A' for Active; 'I' for Inactive)
REMARK    1  A    between atoms: C1_1  and  N1_2
REMARK    2  A    between atoms: C6_7  and  O4_26
REMARK    3  A    between atoms: C7_8  and  O3_24
REMARK    4  A    between atoms: C15_17  and  O2_22
REMARK    5  A    between atoms: C16_18  and  O1_20
REMARK    6  A    between atoms: O1_20  and  C18_21
REMARK    7  A    between atoms: O2_22  and  C19_23
REMARK    8  A    between atoms: O3_24  and  C20_25
REMARK    9  A    between atoms: O4_26  and  C21_27
REMARK                            x       y       z     vdW  Elec       q    Type
REMARK                         _______ _______ _______ _____ _____    ______ ____
ROOT
ATOM      1  C   UNL     1      46.674  15.749  16.952  0.00  0.00    +0.196 C 
ATOM      2  N   UNL     1      47.605  16.572  17.735  0.00  0.00    -0.535 NA
ATOM      3  C   UNL     1      48.939  16.571  17.135  0.00  0.00    +0.177 C 
ATOM      4  C   UNL     1      49.954  17.208  18.071  0.00  0.00    +0.090 C 
ATOM      5  C   UNL     1      49.390  18.390  18.807  0.00  0.00    -0.023 A 
ATOM      6  C   UNL     1      50.260  19.152  19.580  0.00  0.00    -0.069 A 
ATOM      7  C   UNL     1      49.810  20.266  20.264  0.00  0.00    +0.119 A 
ATOM     10  C   UNL     1      48.470  20.630  20.187  0.00  0.00    +0.068 A 
ATOM     13  C   UNL     1      47.593  19.855  19.431  0.00  0.00    -0.005 A 
ATOM     14  C   UNL     1      46.159  20.221  19.340  0.00  0.00    -0.050 A 
ATOM     15  C   UNL     1      45.729  21.496  19.698  0.00  0.00    +0.017 A 
ATOM     16  C   UNL     1      44.388  21.822  19.590  0.00  0.00    +0.091 A 
ATOM     19  C   UNL     1      43.478  20.878  19.123  0.00  0.00    +0.111 A 
ATOM     22  C   UNL     1      43.908  19.607  18.774  0.00  0.00    -0.036 A 
ATOM     23  C   UNL     1      45.242  19.274  18.888  0.00  0.00    -0.061 A 
ATOM     24  C   UNL     1      45.716  17.891  18.532  0.00  0.00    +0.103 C 
ATOM     25  C   UNL     1      48.059  18.738  18.732  0.00  0.00    -0.089 A 
ATOM     26  C   UNL     1      47.099  17.945  17.885  0.00  0.00    +0.194 C 
ENDROOT
BRANCH   7   8
ATOM      8  O   UNL     1      50.675  21.004  21.010  0.00  0.00    -0.306 OA
ATOM      9  C   UNL     1      52.059  20.660  20.928  0.00  0.00    +0.240 C 
ENDBRANCH   7   8
BRANCH  10  11
ATOM     11  O   UNL     1      48.020  21.731  20.845  0.00  0.00    -0.319 OA
ATOM     12  C   UNL     1      47.934  21.645  22.269  0.00  0.00    +0.222 C 
ENDBRANCH  10  11
BRANCH  16  17
ATOM     17  O   UNL     1      43.961  23.066  19.939  0.00  0.00    -0.306 OA
ATOM     18  C   UNL     1      44.466  24.163  19.177  0.00  0.00    +0.238 C 
ENDBRANCH  16  17
BRANCH  19  20
ATOM     20  O   UNL     1      42.161  21.203  19.009  0.00  0.00    -0.304 OA
ATOM     21  C   UNL     1      41.317  20.266  18.339  0.00  0.00    +0.237 C 
ENDBRANCH  19  20
TORSDOF 4
ENDMDL
MODEL 4
REMARK VINA RESULT:      -5.4      2.712      6.030
REMARK  Name = ZINC00607911
REMARK  9 active torsions:
REMARK  status: ('A' for Active; 'I' for Inactive)
REMARK    1  A    between atoms: C1_1  and  N1_2
REMARK    2  A    between atoms: C6_7  and  O4_26
REMARK    3  A    between atoms: C7_8  and  O3_24
REMARK    4  A    between atoms: C15_17  and  O2_22
REMARK    5  A    between atoms: C16_18  and  O1_20
REMARK    6  A    between atoms: O1_20  and  C18_21
REMARK    7  A    between atoms: O2_22  and  C19_23
REMARK    8  A    between atoms: O3_24  and  C20_25
REMARK    9  A    between atoms: O4_26  and  C21_27
REMARK                            x       y       z     vdW  Elec       q    Type
REMARK                         _______ _______ _______ _____ _____    ______ ____
ROOT
ATOM      1  C   UNL     1      47.905  13.360  17.794  0.00  0.00    +0.196 C 
ATOM      2  N   UNL     1      47.012  14.385  18.350  0.00  0.00    -0.535 NA
ATOM      3  C   UNL     1      46.247  13.857  19.480  0.00  0.00    +0.177 C 
ATOM      4  C   UNL     1      45.152  14.828  19.892  0.00  0.00    +0.090 C 
ATOM      5  C   UNL     1      45.593  16.261  19.802  0.00  0.00    -0.023 A 
ATOM      6  C   UNL     1      44.736  17.239  20.295  0.00  0.00    -0.069 A 
ATOM      7  C   UNL     1      45.092  18.575  20.264  0.00  0.00    +0.119 A 
ATOM     10  C   UNL     1      46.319  18.950  19.729  0.00  0.00    +0.068 A 
ATOM     13  C   UNL     1      47.170  17.974  19.215  0.00  0.00    -0.005 A 
ATOM     14  C   UNL     1      48.480  18.353  18.635  0.00  0.00    -0.050 A 
ATOM     15  C   UNL     1      49.037  19.603  18.896  0.00  0.00    +0.017 A 
ATOM     16  C   UNL     1      50.269  19.930  18.358  0.00  0.00    +0.091 A 
ATOM     19  C   UNL     1      50.947  19.011  17.561  0.00  0.00    +0.111 A 
ATOM     22  C   UNL     1      50.387  17.770  17.297  0.00  0.00    -0.036 A 
ATOM     23  C   UNL     1      49.155  17.443  17.824  0.00  0.00    -0.061 A 
ATOM     24  C   UNL     1      48.530  16.107  17.527  0.00  0.00    +0.103 C 
ATOM     25  C   UNL     1      46.808  16.625  19.263  0.00  0.00    -0.089 A 
ATOM     26  C   UNL     1      47.766  15.586  18.742  0.00  0.00    +0.194 C 
ENDROOT
BRANCH   7   8
ATOM      8  O   UNL     1      44.244  19.518  20.755  0.00  0.00    -0.306 OA
ATOM      9  C   UNL     1      42.883  19.453  20.328  0.00  0.00    +0.240 C 
ENDBRANCH   7   8
BRANCH  10  11
ATOM     11  O   UNL     1      46.685  20.259  19.706  0.00  0.00    -0.319 OA
ATOM     12  C   UNL     1      45.997  21.109  18.785  0.00  0.00    +0.222 C 
ENDBRANCH  10  11
BRANCH  16  17
ATOM     17  O   UNL     1      50.818  21.149  18.608  0.00  0.00    -0.306 OA
ATOM     18  C   UNL     1      51.667  21.256  19.751  0.00  0.00    +0.238 C 
ENDBRANCH  16  17
BRANCH  19  20
ATOM     20  O   UNL     1      52.162  19.332  17.039  0.00  0.00    -0.304 OA
ATOM     21  C   UNL     1      52.182  19.830  15.700  0.00  0.00    +0.237 C 
ENDBRANCH  19  20
TORSDOF 4
ENDMDL
MODEL 5
REMARK VINA RESULT:      -5.4      2.762      5.599
REMARK  Name = ZINC00607911
REMARK  9 active torsions:
REMARK  status: ('A' for Active; 'I' for Inactive)
REMARK    1  A    between atoms: C1_1  and  N1_2
REMARK    2  A    between atoms: C6_7  and  O4_26
REMARK    3  A    between atoms: C7_8  and  O3_24
REMARK    4  A    between atoms: C15_17  and  O2_22
REMARK    5  A    between atoms: C16_18  and  O1_20
REMARK    6  A    between atoms: O1_20  and  C18_21
REMARK    7  A    between atoms: O2_22  and  C19_23
REMARK    8  A    between atoms: O3_24  and  C20_25
REMARK    9  A    between atoms: O4_26  and  C21_27
REMARK                            x       y       z     vdW  Elec       q    Type
REMARK                         _______ _______ _______ _____ _____    ______ ____
ROOT
ATOM      1  C   UNL     1      46.229  14.206  17.648  0.00  0.00    +0.196 C 
ATOM      2  N   UNL     1      47.416  15.049  17.844  0.00  0.00    -0.535 NA
ATOM      3  C   UNL     1      48.460  14.718  16.873  0.00  0.00    +0.177 C 
ATOM      4  C   UNL     1      49.767  15.406  17.230  0.00  0.00    +0.090 C 
ATOM      5  C   UNL     1      49.557  16.795  17.763  0.00  0.00    -0.023 A 
ATOM      6  C   UNL     1      50.680  17.586  17.984  0.00  0.00    -0.069 A 
ATOM      7  C   UNL     1      50.554  18.880  18.451  0.00  0.00    +0.119 A 
ATOM     10  C   UNL     1      49.292  19.402  18.709  0.00  0.00    +0.068 A 
ATOM     13  C   UNL     1      48.167  18.605  18.509  0.00  0.00    -0.005 A 
ATOM     14  C   UNL     1      46.812  19.139  18.785  0.00  0.00    -0.050 A 
ATOM     15  C   UNL     1      46.601  20.510  18.906  0.00  0.00    +0.017 A 
ATOM     16  C   UNL     1      45.325  20.988  19.147  0.00  0.00    +0.091 A 
ATOM     19  C   UNL     1      44.260  20.100  19.265  0.00  0.00    +0.111 A 
ATOM     22  C   UNL     1      44.473  18.735  19.151  0.00  0.00    -0.036 A 
ATOM     23  C   UNL     1      45.745  18.253  18.920  0.00  0.00    -0.061 A 
ATOM     24  C   UNL     1      45.991  16.772  18.816  0.00  0.00    +0.103 C 
ATOM     25  C   UNL     1      48.302  17.301  18.025  0.00  0.00    -0.089 A 
ATOM     26  C   UNL     1      47.068  16.476  17.773  0.00  0.00    +0.194 C 
ENDROOT
BRANCH   7   8
ATOM      8  O   UNL     1      51.663  19.642  18.656  0.00  0.00    -0.306 OA
ATOM      9  C   UNL     1      52.303  20.181  17.498  0.00  0.00    +0.240 C 
ENDBRANCH   7   8
BRANCH  10  11
ATOM     11  O   UNL     1      49.157  20.679  19.156  0.00  0.00    -0.319 OA
ATOM     12  C   UNL     1      49.476  20.924  20.528  0.00  0.00    +0.222 C 
ENDBRANCH  10  11
BRANCH  16  17
ATOM     17  O   UNL     1      45.113  22.327  19.267  0.00  0.00    -0.306 OA
ATOM     18  C   UNL     1      45.388  22.916  20.538  0.00  0.00    +0.238 C 
ENDBRANCH  16  17
BRANCH  19  20
ATOM     20  O   UNL     1      43.005  20.573  19.494  0.00  0.00    -0.304 OA
ATOM     21  C   UNL     1      42.019  20.306  18.495  0.00  0.00    +0.237 C 
ENDBRANCH  19  20
TORSDOF 4
ENDMDL
MODEL 6
REMARK VINA RESULT:      -5.3      2.308      4.479
REMARK  Name = ZINC00607911
REMARK  9 active torsions:
REMARK  status: ('A' for Active; 'I' for Inactive)
REMARK    1  A    between atoms: C1_1  and  N1_2
REMARK    2  A    between atoms: C6_7  and  O4_26
REMARK    3  A    between atoms: C7_8  and  O3_24
REMARK    4  A    between atoms: C15_17  and  O2_22
REMARK    5  A    between atoms: C16_18  and  O1_20
REMARK    6  A    between atoms: O1_20  and  C18_21
REMARK    7  A    between atoms: O2_22  and  C19_23
REMARK    8  A    between atoms: O3_24  and  C20_25
REMARK    9  A    between atoms: O4_26  and  C21_27
REMARK                            x       y       z     vdW  Elec       q    Type
REMARK                         _______ _______ _______ _____ _____    ______ ____
ROOT
ATOM      1  C   UNL     1      52.636  19.211  18.206  0.00  0.00    +0.196 C 
ATOM      2  N   UNL     1      51.229  19.364  18.600  0.00  0.00    -0.535 NA
ATOM      3  C   UNL     1      50.782  20.746  18.422  0.00  0.00    +0.177 C 
ATOM      4  C   UNL     1      49.418  20.959  19.059  0.00  0.00    +0.090 C 
ATOM      5  C   UNL     1      48.510  19.777  18.877  0.00  0.00    -0.023 A 
ATOM      6  C   UNL     1      47.185  19.904  19.280  0.00  0.00    -0.069 A 
ATOM      7  C   UNL     1      46.291  18.862  19.119  0.00  0.00    +0.119 A 
ATOM     10  C   UNL     1      46.719  17.667  18.551  0.00  0.00    +0.068 A 
ATOM     13  C   UNL     1      48.051  17.530  18.165  0.00  0.00    -0.005 A 
ATOM     14  C   UNL     1      48.529  16.263  17.564  0.00  0.00    -0.050 A 
ATOM     15  C   UNL     1      47.625  15.333  17.055  0.00  0.00    +0.017 A 
ATOM     16  C   UNL     1      48.094  14.164  16.482  0.00  0.00    +0.091 A 
ATOM     19  C   UNL     1      49.464  13.922  16.414  0.00  0.00    +0.111 A 
ATOM     22  C   UNL     1      50.361  14.846  16.927  0.00  0.00    -0.036 A 
ATOM     23  C   UNL     1      49.898  16.010  17.508  0.00  0.00    -0.061 A 
ATOM     24  C   UNL     1      50.863  17.009  18.086  0.00  0.00    +0.103 C 
ATOM     25  C   UNL     1      48.944  18.593  18.320  0.00  0.00    -0.089 A 
ATOM     26  C   UNL     1      50.367  18.435  17.853  0.00  0.00    +0.194 C 
ENDROOT
BRANCH   7   8
ATOM      8  O   UNL     1      44.997  19.005  19.514  0.00  0.00    -0.306 OA
ATOM      9  C   UNL     1      44.162  19.840  18.710  0.00  0.00    +0.240 C 
ENDBRANCH   7   8
BRANCH  10  11
ATOM     11  O   UNL     1      45.845  16.641  18.374  0.00  0.00    -0.319 OA
ATOM     12  C   UNL     1      45.476  15.896  19.538  0.00  0.00    +0.222 C 
ENDBRANCH  10  11
BRANCH  16  17
ATOM     17  O   UNL     1      47.217  13.251  15.985  0.00  0.00    -0.306 OA
ATOM     18  C   UNL     1      46.322  12.638  16.914  0.00  0.00    +0.238 C 
ENDBRANCH  16  17
BRANCH  19  20
ATOM     20  O   UNL     1      49.923  12.776  15.844  0.00  0.00    -0.304 OA
ATOM     21  C   UNL     1      50.458  12.878  14.523  0.00  0.00    +0.237 C 
ENDBRANCH  19  20
TORSDOF 4
ENDMDL
MODEL 7
REMARK VINA RESULT:      -5.3      3.041      5.778
REMARK  Name = ZINC00607911
REMARK  9 active torsions:
REMARK  status: ('A' for Active; 'I' for Inactive)
REMARK    1  A    between atoms: C1_1  and  N1_2
REMARK    2  A    between atoms: C6_7  and  O4_26
REMARK    3  A    between atoms: C7_8  and  O3_24
REMARK    4  A    between atoms: C15_17  and  O2_22
REMARK    5  A    between atoms: C16_18  and  O1_20
REMARK    6  A    between atoms: O1_20  and  C18_21
REMARK    7  A    between atoms: O2_22  and  C19_23
REMARK    8  A    between atoms: O3_24  and  C20_25
REMARK    9  A    between atoms: O4_26  and  C21_27
REMARK                            x       y       z     vdW  Elec       q    Type
REMARK                         _______ _______ _______ _____ _____    ______ ____
ROOT
ATOM      1  C   UNL     1      45.573  13.242  18.313  0.00  0.00    +0.196 C 
ATOM      2  N   UNL     1      46.694  14.176  18.144  0.00  0.00    -0.535 NA
ATOM      3  C   UNL     1      47.404  13.923  16.890  0.00  0.00    +0.177 C 
ATOM      4  C   UNL     1      48.702  14.713  16.835  0.00  0.00    +0.090 C 
ATOM      5  C   UNL     1      48.564  16.083  17.433  0.00  0.00    -0.023 A 
ATOM      6  C   UNL     1      49.637  16.960  17.308  0.00  0.00    -0.069 A 
ATOM      7  C   UNL     1      49.566  18.244  17.817  0.00  0.00    +0.119 A 
ATOM     10  C   UNL     1      48.413  18.667  18.467  0.00  0.00    +0.068 A 
ATOM     13  C   UNL     1      47.345  17.783  18.612  0.00  0.00    -0.005 A 
ATOM     14  C   UNL     1      46.108  18.211  19.308  0.00  0.00    -0.050 A 
ATOM     15  C   UNL     1      45.843  19.563  19.515  0.00  0.00    +0.017 A 
ATOM     16  C   UNL     1      44.674  19.941  20.152  0.00  0.00    +0.091 A 
ATOM     19  C   UNL     1      43.769  18.974  20.580  0.00  0.00    +0.111 A 
ATOM     22  C   UNL     1      44.039  17.629  20.378  0.00  0.00    -0.036 A 
ATOM     23  C   UNL     1      45.207  17.245  19.752  0.00  0.00    -0.061 A 
ATOM     24  C   UNL     1      45.519  15.788  19.546  0.00  0.00    +0.103 C 
ATOM     25  C   UNL     1      47.420  16.491  18.084  0.00  0.00    -0.089 A 
ATOM     26  C   UNL     1      46.235  15.571  18.214  0.00  0.00    +0.194 C 
ENDROOT
BRANCH   7   8
ATOM      8  O   UNL     1      50.622  19.090  17.681  0.00  0.00    -0.306 OA
ATOM      9  C   UNL     1      51.493  18.868  16.570  0.00  0.00    +0.240 C 
ENDBRANCH   7   8
BRANCH  10  11
ATOM     11  O   UNL     1      48.328  19.931  18.959  0.00  0.00    -0.319 OA
ATOM     12  C   UNL     1      49.123  20.236  20.107  0.00  0.00    +0.222 C 
ENDBRANCH  10  11
BRANCH  16  17
ATOM     17  O   UNL     1      44.409  21.259  20.359  0.00  0.00    -0.306 OA
ATOM     18  C   UNL     1      45.188  22.202  19.620  0.00  0.00    +0.238 C 
ENDBRANCH  16  17
BRANCH  19  20
ATOM     20  O   UNL     1      42.617  19.348  21.198  0.00  0.00    -0.304 OA
ATOM     21  C   UNL     1      41.407  19.220  20.449  0.00  0.00    +0.237 C 
ENDBRANCH  19  20
TORSDOF 4
ENDMDL
MODEL 8
REMARK VINA RESULT:      -5.1      1.619      5.648
REMARK  Name = ZINC00607911
REMARK  9 active torsions:
REMARK  status: ('A' for Active; 'I' for Inactive)
REMARK    1  A    between atoms: C1_1  and  N1_2
REMARK    2  A    between atoms: C6_7  and  O4_26
REMARK    3  A    between atoms: C7_8  and  O3_24
REMARK    4  A    between atoms: C15_17  and  O2_22
REMARK    5  A    between atoms: C16_18  and  O1_20
REMARK    6  A    between atoms: O1_20  and  C18_21
REMARK    7  A    between atoms: O2_22  and  C19_23
REMARK    8  A    between atoms: O3_24  and  C20_25
REMARK    9  A    between atoms: O4_26  and  C21_27
REMARK                            x       y       z     vdW  Elec       q    Type
REMARK                         _______ _______ _______ _____ _____    ______ ____
ROOT
ATOM      1  C   UNL     1      45.608  19.203  21.953  0.00  0.00    +0.196 C 
ATOM      2  N   UNL     1      45.976  18.114  21.038  0.00  0.00    -0.535 NA
ATOM      3  C   UNL     1      44.791  17.539  20.402  0.00  0.00    +0.177 C 
ATOM      4  C   UNL     1      45.143  16.261  19.658  0.00  0.00    +0.090 C 
ATOM      5  C   UNL     1      46.476  16.347  18.972  0.00  0.00    -0.023 A 
ATOM      6  C   UNL     1      46.846  15.302  18.132  0.00  0.00    -0.069 A 
ATOM      7  C   UNL     1      48.050  15.330  17.454  0.00  0.00    +0.119 A 
ATOM     10  C   UNL     1      48.908  16.411  17.613  0.00  0.00    +0.068 A 
ATOM     13  C   UNL     1      48.549  17.449  18.470  0.00  0.00    -0.005 A 
ATOM     14  C   UNL     1      49.452  18.610  18.660  0.00  0.00    -0.050 A 
ATOM     15  C   UNL     1      50.480  18.864  17.755  0.00  0.00    +0.017 A 
ATOM     16  C   UNL     1      51.301  19.962  17.942  0.00  0.00    +0.091 A 
ATOM     19  C   UNL     1      51.096  20.808  19.029  0.00  0.00    +0.111 A 
ATOM     22  C   UNL     1      50.076  20.549  19.932  0.00  0.00    -0.036 A 
ATOM     23  C   UNL     1      49.260  19.450  19.755  0.00  0.00    -0.061 A 
ATOM     24  C   UNL     1      48.164  19.149  20.740  0.00  0.00    +0.103 C 
ATOM     25  C   UNL     1      47.324  17.419  19.143  0.00  0.00    -0.089 A 
ATOM     26  C   UNL     1      46.940  18.576  20.028  0.00  0.00    +0.194 C 
ENDROOT
BRANCH   7   8
ATOM      8  O   UNL     1      48.394  14.301  16.632  0.00  0.00    -0.306 OA
ATOM      9  C   UNL     1      47.342  13.436  16.200  0.00  0.00    +0.240 C 
ENDBRANCH   7   8
BRANCH  10  11
ATOM     11  O   UNL     1      50.088  16.455  16.940  0.00  0.00    -0.319 OA
ATOM     12  C   UNL     1      51.115  15.560  17.372  0.00  0.00    +0.222 C 
ENDBRANCH  10  11
BRANCH  16  17
ATOM     17  O   UNL     1      52.308  20.216  17.063  0.00  0.00    -0.306 OA
ATOM     18  C   UNL     1      52.232  19.576  15.788  0.00  0.00    +0.238 C 
ENDBRANCH  16  17
BRANCH  19  20
ATOM     20  O   UNL     1      51.899  21.892  19.206  0.00  0.00    -0.304 OA
ATOM     21  C   UNL     1      52.712  21.912  20.381  0.00  0.00    +0.237 C 
ENDBRANCH  19  20
TORSDOF 4
ENDMDL
MODEL 9
REMARK VINA RESULT:      -5.1      2.550      4.278
REMARK  Name = ZINC00607911
REMARK  9 active torsions:
REMARK  status: ('A' for Active; 'I' for Inactive)
REMARK    1  A    between atoms: C1_1  and  N1_2
REMARK    2  A    between atoms: C6_7  and  O4_26
REMARK    3  A    between atoms: C7_8  and  O3_24
REMARK    4  A    between atoms: C15_17  and  O2_22
REMARK    5  A    between atoms: C16_18  and  O1_20
REMARK    6  A    between atoms: O1_20  and  C18_21
REMARK    7  A    between atoms: O2_22  and  C19_23
REMARK    8  A    between atoms: O3_24  and  C20_25
REMARK    9  A    between atoms: O4_26  and  C21_27
REMARK                            x       y       z     vdW  Elec       q    Type
REMARK                         _______ _______ _______ _____ _____    ______ ____
ROOT
ATOM      1  C   UNL     1      52.175  18.640  15.657  0.00  0.00    +0.196 C 
ATOM      2  N   UNL     1      51.568  19.160  16.890  0.00  0.00    -0.535 NA
ATOM      3  C   UNL     1      51.484  20.620  16.858  0.00  0.00    +0.177 C 
ATOM      4  C   UNL     1      51.094  21.169  18.221  0.00  0.00    +0.090 C 
ATOM      5  C   UNL     1      50.079  20.307  18.916  0.00  0.00    -0.023 A 
ATOM      6  C   UNL     1      49.527  20.778  20.103  0.00  0.00    -0.069 A 
ATOM      7  C   UNL     1      48.571  20.044  20.780  0.00  0.00    +0.119 A 
ATOM     10  C   UNL     1      48.157  18.817  20.276  0.00  0.00    +0.068 A 
ATOM     13  C   UNL     1      48.724  18.333  19.099  0.00  0.00    -0.005 A 
ATOM     14  C   UNL     1      48.301  17.024  18.547  0.00  0.00    -0.050 A 
ATOM     15  C   UNL     1      47.119  16.423  18.971  0.00  0.00    +0.017 A 
ATOM     16  C   UNL     1      46.735  15.209  18.431  0.00  0.00    +0.091 A 
ATOM     19  C   UNL     1      47.528  14.594  17.466  0.00  0.00    +0.111 A 
ATOM     22  C   UNL     1      48.708  15.191  17.050  0.00  0.00    -0.036 A 
ATOM     23  C   UNL     1      49.100  16.398  17.592  0.00  0.00    -0.061 A 
ATOM     24  C   UNL     1      50.389  17.043  17.162  0.00  0.00    +0.103 C 
ATOM     25  C   UNL     1      49.680  19.087  18.413  0.00  0.00    -0.089 A 
ATOM     26  C   UNL     1      50.244  18.563  17.119  0.00  0.00    +0.194 C 
ENDROOT
BRANCH   7   8
ATOM      8  O   UNL     1      48.037  20.522  21.936  0.00  0.00    -0.306 OA
ATOM      9  C   UNL     1      47.522  21.854  21.911  0.00  0.00    +0.240 C 
ENDBRANCH   7   8
BRANCH  10  11
ATOM     11  O   UNL     1      47.207  18.093  20.927  0.00  0.00    -0.319 OA
ATOM     12  C   UNL     1      47.597  17.462  22.149  0.00  0.00    +0.222 C 
ENDBRANCH  10  11
BRANCH  16  17
ATOM     17  O   UNL     1      45.581  14.616  18.842  0.00  0.00    -0.306 OA
ATOM     18  C   UNL     1      45.218  14.784  20.213  0.00  0.00    +0.238 C 
ENDBRANCH  16  17
BRANCH  19  20
ATOM     20  O   UNL     1      47.144  13.404  16.930  0.00  0.00    -0.304 OA
ATOM     21  C   UNL     1      47.643  13.088  15.629  0.00  0.00    +0.237 C 
ENDBRANCH  19  20
TORSDOF 4
ENDMDL
