MODEL 1
REMARK VINA RESULT:      -7.5      0.000      0.000
REMARK  Name = ZINC95486113
REMARK  9 active torsions:
REMARK  status: ('A' for Active; 'I' for Inactive)
REMARK    1  A    between atoms: C1_1  and  C2_2
REMARK    2  A    between atoms: C6_7  and  C29_36
REMARK    3  A    between atoms: C6_7  and  O4_37
REMARK    4  A    between atoms: C9_10  and  O3_35
REMARK    5  A    between atoms: C10_12  and  C28_34
REMARK    6  A    between atoms: C14_17  and  C27_33
REMARK    7  A    between atoms: C18_21  and  C26_30
REMARK    8  A    between atoms: C21_25  and  C24_28
REMARK    9  A    between atoms: C21_25  and  C25_29
REMARK                            x       y       z     vdW  Elec       q    Type
REMARK                         _______ _______ _______ _____ _____    ______ ____
ROOT
ATOM      1  C   UNL     1      47.968  18.058  21.522  0.00  0.00    +0.031 C 
ATOM      2  C   UNL     1      47.787  19.361  20.720  0.00  0.00    +0.002 C 
ATOM      3  C   UNL     1      48.367  20.531  21.519  0.00  0.00    +0.009 C 
ATOM      4  C   UNL     1      49.898  20.462  21.522  0.00  0.00    +0.020 C 
ATOM      5  C   UNL     1      50.409  20.497  20.085  0.00  0.00    +0.015 C 
ATOM      6  C   UNL     1      51.906  20.729  20.014  0.00  0.00    +0.144 C 
ATOM      9  C   UNL     1      52.255  22.074  20.673  0.00  0.00    -0.001 C 
ATOM     10  C   UNL     1      52.343  20.815  18.546  0.00  0.00    -0.012 C 
ATOM     11  C   UNL     1      51.936  19.540  17.816  0.00  0.00    -0.013 C 
ATOM     12  C   UNL     1      50.423  19.344  17.869  0.00  0.00    +0.164 C 
ATOM     15  C   UNL     1      49.934  19.257  19.323  0.00  0.00    -0.022 C 
ATOM     16  C   UNL     1      50.484  17.969  19.914  0.00  0.00    +0.043 C 
ATOM     17  C   UNL     1      46.279  19.569  20.594  0.00  0.00    -0.116 C 
ATOM     18  C   UNL     1      45.625  19.774  21.705  0.00  0.00    -0.015 C 
ATOM     19  C   UNL     1      44.123  19.872  21.717  0.00  0.00    +0.047 C 
ATOM     20  C   UNL     1      43.624  18.883  20.652  0.00  0.00    -0.112 C 
ATOM     24  C   UNL     1      44.106  19.383  19.297  0.00  0.00    +0.019 C 
ATOM     25  C   UNL     1      43.428  20.693  18.924  0.00  0.00    +0.017 C 
ATOM     26  C   UNL     1      41.901  20.609  19.014  0.00  0.00    -0.066 C 
ATOM     27  C   UNL     1      41.325  22.015  18.772  0.00  0.00    +0.006 C 
ATOM     28  C   UNL     1      41.365  19.673  17.930  0.00  0.00    +0.017 C 
ATOM     29  C   UNL     1      41.471  20.135  20.396  0.00  0.00    +0.002 C 
ATOM     30  C   UNL     1      42.103  18.786  20.712  0.00  0.00    +0.014 C 
ATOM     31  C   UNL     1      45.631  19.502  19.246  0.00  0.00    +0.013 C 
ATOM     32  C   UNL     1      45.943  20.802  18.495  0.00  0.00    +0.003 C 
ATOM     33  C   UNL     1      46.214  18.345  18.441  0.00  0.00    +0.009 C 
ATOM     34  C   UNL     1      47.737  18.279  18.452  0.00  0.00    +0.022 C 
ATOM     35  C   UNL     1      48.402  19.308  19.335  0.00  0.00    -0.001 C 
ENDROOT
BRANCH  20  21
ATOM     21  C   UNL     1      44.182  17.510  20.944  0.00  0.00    +0.513 C 
ATOM     22  O   UNL     1      44.384  17.167  22.095  0.00  0.00    -0.704 OA
ATOM     23  O   UNL     1      44.428  16.745  20.027  0.00  0.00    -0.686 OA
ENDBRANCH  20  21
BRANCH   6   7
ATOM      7  O   UNL     1      52.638  19.701  20.676  0.00  0.00    -0.544 OA
ATOM      8  H   UNL     1      53.188  19.168  20.086  0.00  0.00    +0.367 HD
ENDBRANCH   6   7
BRANCH  12  13
ATOM     13  O   UNL     1      50.132  18.105  17.204  0.00  0.00    -0.553 OA
ATOM     14  H   UNL     1      50.657  17.357  17.521  0.00  0.00    +0.365 HD
ENDBRANCH  12  13
TORSDOF 3
ENDMDL
MODEL 2
REMARK VINA RESULT:      -6.9      1.823      7.470
REMARK  Name = ZINC95486113
REMARK  9 active torsions:
REMARK  status: ('A' for Active; 'I' for Inactive)
REMARK    1  A    between atoms: C1_1  and  C2_2
REMARK    2  A    between atoms: C6_7  and  C29_36
REMARK    3  A    between atoms: C6_7  and  O4_37
REMARK    4  A    between atoms: C9_10  and  O3_35
REMARK    5  A    between atoms: C10_12  and  C28_34
REMARK    6  A    between atoms: C14_17  and  C27_33
REMARK    7  A    between atoms: C18_21  and  C26_30
REMARK    8  A    between atoms: C21_25  and  C24_28
REMARK    9  A    between atoms: C21_25  and  C25_29
REMARK                            x       y       z     vdW  Elec       q    Type
REMARK                         _______ _______ _______ _____ _____    ______ ____
ROOT
ATOM      1  C   UNL     1      47.358  20.139  22.126  0.00  0.00    +0.031 C 
ATOM      2  C   UNL     1      46.955  19.143  21.022  0.00  0.00    +0.002 C 
ATOM      3  C   UNL     1      46.304  17.914  21.662  0.00  0.00    +0.009 C 
ATOM      4  C   UNL     1      44.909  18.268  22.188  0.00  0.00    +0.020 C 
ATOM      5  C   UNL     1      44.050  18.782  21.038  0.00  0.00    +0.015 C 
ATOM      6  C   UNL     1      42.583  18.872  21.413  0.00  0.00    +0.144 C 
ATOM      9  C   UNL     1      42.061  17.481  21.808  0.00  0.00    -0.001 C 
ATOM     10  C   UNL     1      41.770  19.335  20.197  0.00  0.00    -0.012 C 
ATOM     11  C   UNL     1      42.307  20.674  19.702  0.00  0.00    -0.013 C 
ATOM     12  C   UNL     1      43.774  20.552  19.296  0.00  0.00    +0.164 C 
ATOM     15  C   UNL     1      44.632  20.085  20.482  0.00  0.00    -0.022 C 
ATOM     16  C   UNL     1      44.636  21.203  21.512  0.00  0.00    +0.043 C 
ATOM     17  C   UNL     1      48.258  18.703  20.357  0.00  0.00    -0.116 C 
ATOM     18  C   UNL     1      49.097  18.040  21.105  0.00  0.00    -0.015 C 
ATOM     19  C   UNL     1      50.461  17.660  20.596  0.00  0.00    +0.047 C 
ATOM     20  C   UNL     1      50.917  18.818  19.696  0.00  0.00    -0.112 C 
ATOM     24  C   UNL     1      49.977  18.870  18.500  0.00  0.00    +0.019 C 
ATOM     25  C   UNL     1      50.143  17.639  17.620  0.00  0.00    +0.017 C 
ATOM     26  C   UNL     1      51.602  17.399  17.217  0.00  0.00    -0.066 C 
ATOM     27  C   UNL     1      51.681  16.058  16.469  0.00  0.00    +0.006 C 
ATOM     28  C   UNL     1      52.071  18.508  16.275  0.00  0.00    +0.017 C 
ATOM     29  C   UNL     1      52.493  17.325  18.450  0.00  0.00    +0.002 C 
ATOM     30  C   UNL     1      52.366  18.602  19.271  0.00  0.00    +0.014 C 
ATOM     31  C   UNL     1      48.521  19.065  18.929  0.00  0.00    +0.013 C 
ATOM     32  C   UNL     1      47.676  18.149  18.035  0.00  0.00    +0.003 C 
ATOM     33  C   UNL     1      48.092  20.504  18.665  0.00  0.00    +0.009 C 
ATOM     34  C   UNL     1      46.704  20.851  19.195  0.00  0.00    +0.022 C 
ATOM     35  C   UNL     1      46.037  19.743  19.974  0.00  0.00    -0.001 C 
ENDROOT
BRANCH  20  21
ATOM     21  C   UNL     1      50.858  20.111  20.476  0.00  0.00    +0.513 C 
ATOM     22  O   UNL     1      50.900  20.089  21.694  0.00  0.00    -0.704 OA
ATOM     23  O   UNL     1      50.770  21.175  19.888  0.00  0.00    -0.686 OA
ENDBRANCH  20  21
BRANCH   6   7
ATOM      7  O   UNL     1      42.365  19.761  22.505  0.00  0.00    -0.544 OA
ATOM      8  H   UNL     1      43.059  19.735  23.178  0.00  0.00    +0.367 HD
ENDBRANCH   6   7
BRANCH  12  13
ATOM     13  O   UNL     1      44.212  21.858  18.891  0.00  0.00    -0.553 OA
ATOM     14  H   UNL     1      43.541  22.368  18.415  0.00  0.00    +0.365 HD
ENDBRANCH  12  13
TORSDOF 3
ENDMDL
MODEL 3
REMARK VINA RESULT:      -6.7      3.738      7.270
REMARK  Name = ZINC95486113
REMARK  9 active torsions:
REMARK  status: ('A' for Active; 'I' for Inactive)
REMARK    1  A    between atoms: C1_1  and  C2_2
REMARK    2  A    between atoms: C6_7  and  C29_36
REMARK    3  A    between atoms: C6_7  and  O4_37
REMARK    4  A    between atoms: C9_10  and  O3_35
REMARK    5  A    between atoms: C10_12  and  C28_34
REMARK    6  A    between atoms: C14_17  and  C27_33
REMARK    7  A    between atoms: C18_21  and  C26_30
REMARK    8  A    between atoms: C21_25  and  C24_28
REMARK    9  A    between atoms: C21_25  and  C25_29
REMARK                            x       y       z     vdW  Elec       q    Type
REMARK                         _______ _______ _______ _____ _____    ______ ____
ROOT
ATOM      1  C   UNL     1      47.100  16.681  21.320  0.00  0.00    +0.031 C 
ATOM      2  C   UNL     1      46.319  16.615  19.994  0.00  0.00    +0.002 C 
ATOM      3  C   UNL     1      44.856  16.273  20.285  0.00  0.00    +0.009 C 
ATOM      4  C   UNL     1      44.148  17.475  20.921  0.00  0.00    +0.020 C 
ATOM      5  C   UNL     1      44.234  18.670  19.977  0.00  0.00    +0.015 C 
ATOM      6  C   UNL     1      43.314  19.800  20.397  0.00  0.00    +0.144 C 
ATOM      9  C   UNL     1      41.857  19.308  20.404  0.00  0.00    -0.001 C 
ATOM     10  C   UNL     1      43.403  20.941  19.376  0.00  0.00    -0.012 C 
ATOM     11  C   UNL     1      44.850  21.409  19.257  0.00  0.00    -0.013 C 
ATOM     12  C   UNL     1      45.754  20.266  18.799  0.00  0.00    +0.164 C 
ATOM     15  C   UNL     1      45.694  19.093  19.790  0.00  0.00    -0.022 C 
ATOM     16  C   UNL     1      46.333  19.559  21.088  0.00  0.00    +0.043 C 
ATOM     17  C   UNL     1      46.932  15.461  19.204  0.00  0.00    -0.116 C 
ATOM     18  C   UNL     1      46.802  14.269  19.719  0.00  0.00    -0.015 C 
ATOM     19  C   UNL     1      47.467  13.073  19.093  0.00  0.00    +0.047 C 
ATOM     20  C   UNL     1      48.809  13.574  18.538  0.00  0.00    -0.112 C 
ATOM     24  C   UNL     1      48.505  14.567  17.424  0.00  0.00    +0.019 C 
ATOM     25  C   UNL     1      47.855  13.874  16.236  0.00  0.00    +0.017 C 
ATOM     26  C   UNL     1      48.664  12.667  15.748  0.00  0.00    -0.066 C 
ATOM     27  C   UNL     1      47.850  11.951  14.657  0.00  0.00    +0.006 C 
ATOM     28  C   UNL     1      49.985  13.136  15.138  0.00  0.00    +0.017 C 
ATOM     29  C   UNL     1      48.913  11.692  16.891  0.00  0.00    +0.002 C 
ATOM     30  C   UNL     1      49.633  12.393  18.035  0.00  0.00    +0.014 C 
ATOM     31  C   UNL     1      47.659  15.740  17.925  0.00  0.00    +0.013 C 
ATOM     32  C   UNL     1      46.621  16.028  16.833  0.00  0.00    +0.003 C 
ATOM     33  C   UNL     1      48.532  16.980  18.078  0.00  0.00    +0.009 C 
ATOM     34  C   UNL     1      47.824  18.171  18.716  0.00  0.00    +0.022 C 
ATOM     35  C   UNL     1      46.413  17.888  19.174  0.00  0.00    -0.001 C 
ENDROOT
BRANCH  20  21
ATOM     21  C   UNL     1      49.591  14.240  19.646  0.00  0.00    +0.513 C 
ATOM     22  O   UNL     1      49.360  13.958  20.809  0.00  0.00    -0.704 OA
ATOM     23  O   UNL     1      50.455  15.057  19.377  0.00  0.00    -0.686 OA
ENDBRANCH  20  21
BRANCH   6   7
ATOM      7  O   UNL     1      43.629  20.291  21.697  0.00  0.00    -0.544 OA
ATOM      8  H   UNL     1      43.061  19.941  22.398  0.00  0.00    +0.367 HD
ENDBRANCH   6   7
BRANCH  12  13
ATOM     13  O   UNL     1      47.095  20.776  18.761  0.00  0.00    -0.553 OA
ATOM     14  H   UNL     1      47.292  21.419  19.457  0.00  0.00    +0.365 HD
ENDBRANCH  12  13
TORSDOF 3
ENDMDL
MODEL 4
REMARK VINA RESULT:      -6.4      3.328      5.181
REMARK  Name = ZINC95486113
REMARK  9 active torsions:
REMARK  status: ('A' for Active; 'I' for Inactive)
REMARK    1  A    between atoms: C1_1  and  C2_2
REMARK    2  A    between atoms: C6_7  and  C29_36
REMARK    3  A    between atoms: C6_7  and  O4_37
REMARK    4  A    between atoms: C9_10  and  O3_35
REMARK    5  A    between atoms: C10_12  and  C28_34
REMARK    6  A    between atoms: C14_17  and  C27_33
REMARK    7  A    between atoms: C18_21  and  C26_30
REMARK    8  A    between atoms: C21_25  and  C24_28
REMARK    9  A    between atoms: C21_25  and  C25_29
REMARK                            x       y       z     vdW  Elec       q    Type
REMARK                         _______ _______ _______ _____ _____    ______ ____
ROOT
ATOM      1  C   UNL     1      45.089  15.030  20.270  0.00  0.00    +0.031 C 
ATOM      2  C   UNL     1      46.421  15.782  20.094  0.00  0.00    +0.002 C 
ATOM      3  C   UNL     1      47.493  15.121  20.965  0.00  0.00    +0.009 C 
ATOM      4  C   UNL     1      47.900  13.769  20.368  0.00  0.00    +0.020 C 
ATOM      5  C   UNL     1      48.424  13.978  18.951  0.00  0.00    +0.015 C 
ATOM      6  C   UNL     1      49.115  12.743  18.407  0.00  0.00    +0.144 C 
ATOM      9  C   UNL     1      50.309  12.378  19.304  0.00  0.00    -0.001 C 
ATOM     10  C   UNL     1      49.671  13.040  17.008  0.00  0.00    -0.012 C 
ATOM     11  C   UNL     1      48.539  13.500  16.095  0.00  0.00    -0.013 C 
ATOM     12  C   UNL     1      47.880  14.764  16.643  0.00  0.00    +0.164 C 
ATOM     15  C   UNL     1      47.311  14.518  18.049  0.00  0.00    -0.022 C 
ATOM     16  C   UNL     1      46.154  13.542  17.909  0.00  0.00    +0.043 C 
ATOM     17  C   UNL     1      46.179  17.194  20.624  0.00  0.00    -0.116 C 
ATOM     18  C   UNL     1      45.909  17.300  21.896  0.00  0.00    -0.015 C 
ATOM     19  C   UNL     1      45.535  18.624  22.505  0.00  0.00    +0.047 C 
ATOM     20  C   UNL     1      44.717  19.367  21.438  0.00  0.00    -0.112 C 
ATOM     24  C   UNL     1      45.642  19.646  20.260  0.00  0.00    +0.019 C 
ATOM     25  C   UNL     1      46.729  20.640  20.643  0.00  0.00    +0.017 C 
ATOM     26  C   UNL     1      46.161  21.920  21.266  0.00  0.00    -0.066 C 
ATOM     27  C   UNL     1      47.337  22.781  21.755  0.00  0.00    +0.006 C 
ATOM     28  C   UNL     1      45.385  22.712  20.213  0.00  0.00    +0.017 C 
ATOM     29  C   UNL     1      45.270  21.586  22.455  0.00  0.00    +0.002 C 
ATOM     30  C   UNL     1      44.146  20.652  22.027  0.00  0.00    +0.014 C 
ATOM     31  C   UNL     1      46.232  18.357  19.684  0.00  0.00    +0.013 C 
ATOM     32  C   UNL     1      47.702  18.655  19.365  0.00  0.00    +0.003 C 
ATOM     33  C   UNL     1      45.532  18.007  18.376  0.00  0.00    +0.009 C 
ATOM     34  C   UNL     1      45.937  16.659  17.789  0.00  0.00    +0.022 C 
ATOM     35  C   UNL     1      46.885  15.861  18.652  0.00  0.00    -0.001 C 
ENDROOT
BRANCH  20  21
ATOM     21  C   UNL     1      43.554  18.504  21.008  0.00  0.00    +0.513 C 
ATOM     22  O   UNL     1      43.021  18.694  19.929  0.00  0.00    -0.704 OA
ATOM     23  O   UNL     1      43.150  17.617  21.741  0.00  0.00    -0.686 OA
ENDBRANCH  20  21
BRANCH   6   7
ATOM      7  O   UNL     1      48.237  11.622  18.349  0.00  0.00    -0.544 OA
ATOM      8  H   UNL     1      48.534  10.920  17.753  0.00  0.00    +0.367 HD
ENDBRANCH   6   7
BRANCH  12  13
ATOM     13  O   UNL     1      46.802  15.099  15.755  0.00  0.00    -0.553 OA
ATOM     14  H   UNL     1      46.127  14.410  15.680  0.00  0.00    +0.365 HD
ENDBRANCH  12  13
TORSDOF 3
ENDMDL
MODEL 5
REMARK VINA RESULT:      -6.4      4.405      8.246
REMARK  Name = ZINC95486113
REMARK  9 active torsions:
REMARK  status: ('A' for Active; 'I' for Inactive)
REMARK    1  A    between atoms: C1_1  and  C2_2
REMARK    2  A    between atoms: C6_7  and  C29_36
REMARK    3  A    between atoms: C6_7  and  O4_37
REMARK    4  A    between atoms: C9_10  and  O3_35
REMARK    5  A    between atoms: C10_12  and  C28_34
REMARK    6  A    between atoms: C14_17  and  C27_33
REMARK    7  A    between atoms: C18_21  and  C26_30
REMARK    8  A    between atoms: C21_25  and  C24_28
REMARK    9  A    between atoms: C21_25  and  C25_29
REMARK                            x       y       z     vdW  Elec       q    Type
REMARK                         _______ _______ _______ _____ _____    ______ ____
ROOT
ATOM      1  C   UNL     1      50.122  13.902  19.879  0.00  0.00    +0.031 C 
ATOM      2  C   UNL     1      49.788  14.460  18.482  0.00  0.00    +0.002 C 
ATOM      3  C   UNL     1      50.416  13.560  17.415  0.00  0.00    +0.009 C 
ATOM      4  C   UNL     1      49.657  12.232  17.330  0.00  0.00    +0.020 C 
ATOM      5  C   UNL     1      48.194  12.504  16.998  0.00  0.00    +0.015 C 
ATOM      6  C   UNL     1      47.448  11.242  16.609  0.00  0.00    +0.144 C 
ATOM      9  C   UNL     1      48.105  10.612  15.370  0.00  0.00    -0.001 C 
ATOM     10  C   UNL     1      46.005  11.595  16.229  0.00  0.00    -0.012 C 
ATOM     11  C   UNL     1      45.330  12.311  17.394  0.00  0.00    -0.013 C 
ATOM     12  C   UNL     1      46.075  13.596  17.746  0.00  0.00    +0.164 C 
ATOM     15  C   UNL     1      47.532  13.295  18.130  0.00  0.00    -0.022 C 
ATOM     16  C   UNL     1      47.509  12.523  19.439  0.00  0.00    +0.043 C 
ATOM     17  C   UNL     1      50.458  15.831  18.407  0.00  0.00    -0.116 C 
ATOM     18  C   UNL     1      51.762  15.844  18.462  0.00  0.00    -0.015 C 
ATOM     19  C   UNL     1      52.526  17.140  18.518  0.00  0.00    +0.047 C 
ATOM     20  C   UNL     1      51.669  18.103  19.354  0.00  0.00    -0.112 C 
ATOM     24  C   UNL     1      50.380  18.360  18.584  0.00  0.00    +0.019 C 
ATOM     25  C   UNL     1      50.655  19.135  17.303  0.00  0.00    +0.017 C 
ATOM     26  C   UNL     1      51.460  20.415  17.553  0.00  0.00    -0.066 C 
ATOM     27  C   UNL     1      51.815  21.035  16.191  0.00  0.00    +0.006 C 
ATOM     28  C   UNL     1      50.615  21.418  18.337  0.00  0.00    +0.017 C 
ATOM     29  C   UNL     1      52.751  20.098  18.297  0.00  0.00    +0.002 C 
ATOM     30  C   UNL     1      52.443  19.391  19.611  0.00  0.00    +0.014 C 
ATOM     31  C   UNL     1      49.616  17.064  18.306  0.00  0.00    +0.013 C 
ATOM     32  C   UNL     1      49.084  17.169  16.872  0.00  0.00    +0.003 C 
ATOM     33  C   UNL     1      48.418  16.959  19.243  0.00  0.00    +0.009 C 
ATOM     34  C   UNL     1      47.670  15.632  19.158  0.00  0.00    +0.022 C 
ATOM     35  C   UNL     1      48.300  14.617  18.235  0.00  0.00    -0.001 C 
ENDROOT
BRANCH  20  21
ATOM     21  C   UNL     1      51.371  17.472  20.694  0.00  0.00    +0.513 C 
ATOM     22  O   UNL     1      50.402  17.837  21.336  0.00  0.00    -0.704 OA
ATOM     23  O   UNL     1      52.100  16.598  21.132  0.00  0.00    -0.686 OA
ENDBRANCH  20  21
BRANCH   6   7
ATOM      7  O   UNL     1      47.449  10.277  17.658  0.00  0.00    -0.544 OA
ATOM      8  H   UNL     1      47.997   9.501  17.477  0.00  0.00    +0.367 HD
ENDBRANCH   6   7
BRANCH  12  13
ATOM     13  O   UNL     1      45.406  14.178  18.876  0.00  0.00    -0.553 OA
ATOM     14  H   UNL     1      44.660  14.747  18.641  0.00  0.00    +0.365 HD
ENDBRANCH  12  13
TORSDOF 3
ENDMDL
MODEL 6
REMARK VINA RESULT:      -6.2      4.216      5.928
REMARK  Name = ZINC95486113
REMARK  9 active torsions:
REMARK  status: ('A' for Active; 'I' for Inactive)
REMARK    1  A    between atoms: C1_1  and  C2_2
REMARK    2  A    between atoms: C6_7  and  C29_36
REMARK    3  A    between atoms: C6_7  and  O4_37
REMARK    4  A    between atoms: C9_10  and  O3_35
REMARK    5  A    between atoms: C10_12  and  C28_34
REMARK    6  A    between atoms: C14_17  and  C27_33
REMARK    7  A    between atoms: C18_21  and  C26_30
REMARK    8  A    between atoms: C21_25  and  C24_28
REMARK    9  A    between atoms: C21_25  and  C25_29
REMARK                            x       y       z     vdW  Elec       q    Type
REMARK                         _______ _______ _______ _____ _____    ______ ____
ROOT
ATOM      1  C   UNL     1      49.089  14.122  19.484  0.00  0.00    +0.031 C 
ATOM      2  C   UNL     1      48.923  15.086  18.294  0.00  0.00    +0.002 C 
ATOM      3  C   UNL     1      50.305  15.462  17.751  0.00  0.00    +0.009 C 
ATOM      4  C   UNL     1      50.925  14.271  17.012  0.00  0.00    +0.020 C 
ATOM      5  C   UNL     1      50.006  13.849  15.870  0.00  0.00    +0.015 C 
ATOM      6  C   UNL     1      50.680  12.880  14.918  0.00  0.00    +0.144 C 
ATOM      9  C   UNL     1      51.926  13.539  14.304  0.00  0.00    -0.001 C 
ATOM     10  C   UNL     1      49.726  12.546  13.765  0.00  0.00    -0.012 C 
ATOM     11  C   UNL     1      48.428  11.973  14.325  0.00  0.00    -0.013 C 
ATOM     12  C   UNL     1      47.747  12.978  15.252  0.00  0.00    +0.164 C 
ATOM     15  C   UNL     1      48.668  13.350  16.424  0.00  0.00    -0.022 C 
ATOM     16  C   UNL     1      48.827  12.111  17.291  0.00  0.00    +0.043 C 
ATOM     17  C   UNL     1      48.273  16.346  18.861  0.00  0.00    -0.116 C 
ATOM     18  C   UNL     1      48.973  17.019  19.733  0.00  0.00    -0.015 C 
ATOM     19  C   UNL     1      48.390  18.208  20.448  0.00  0.00    +0.047 C 
ATOM     20  C   UNL     1      46.907  17.880  20.678  0.00  0.00    -0.112 C 
ATOM     24  C   UNL     1      46.237  17.790  19.313  0.00  0.00    +0.019 C 
ATOM     25  C   UNL     1      46.208  19.149  18.628  0.00  0.00    +0.017 C 
ATOM     26  C   UNL     1      45.598  20.240  19.515  0.00  0.00    -0.066 C 
ATOM     27  C   UNL     1      45.758  21.590  18.798  0.00  0.00    +0.006 C 
ATOM     28  C   UNL     1      44.107  19.973  19.720  0.00  0.00    +0.017 C 
ATOM     29  C   UNL     1      46.323  20.308  20.854  0.00  0.00    +0.002 C 
ATOM     30  C   UNL     1      46.270  18.956  21.552  0.00  0.00    +0.014 C 
ATOM     31  C   UNL     1      46.892  16.726  18.429  0.00  0.00    +0.013 C 
ATOM     32  C   UNL     1      46.974  17.321  17.018  0.00  0.00    +0.003 C 
ATOM     33  C   UNL     1      46.003  15.489  18.364  0.00  0.00    +0.009 C 
ATOM     34  C   UNL     1      46.627  14.306  17.631  0.00  0.00    +0.022 C 
ATOM     35  C   UNL     1      48.052  14.529  17.184  0.00  0.00    -0.001 C 
ENDROOT
BRANCH  20  21
ATOM     21  C   UNL     1      46.793  16.566  21.415  0.00  0.00    +0.513 C 
ATOM     22  O   UNL     1      47.727  16.161  22.084  0.00  0.00    -0.704 OA
ATOM     23  O   UNL     1      45.767  15.912  21.340  0.00  0.00    -0.686 OA
ENDBRANCH  20  21
BRANCH   6   7
ATOM      7  O   UNL     1      51.083  11.681  15.574  0.00  0.00    -0.544 OA
ATOM      8  H   UNL     1      52.037  11.609  15.712  0.00  0.00    +0.367 HD
ENDBRANCH   6   7
BRANCH  12  13
ATOM     13  O   UNL     1      46.567  12.345  15.769  0.00  0.00    -0.553 OA
ATOM     14  H   UNL     1      45.745  12.804  15.546  0.00  0.00    +0.365 HD
ENDBRANCH  12  13
TORSDOF 3
ENDMDL
MODEL 7
REMARK VINA RESULT:      -6.1      4.698      7.028
REMARK  Name = ZINC95486113
REMARK  9 active torsions:
REMARK  status: ('A' for Active; 'I' for Inactive)
REMARK    1  A    between atoms: C1_1  and  C2_2
REMARK    2  A    between atoms: C6_7  and  C29_36
REMARK    3  A    between atoms: C6_7  and  O4_37
REMARK    4  A    between atoms: C9_10  and  O3_35
REMARK    5  A    between atoms: C10_12  and  C28_34
REMARK    6  A    between atoms: C14_17  and  C27_33
REMARK    7  A    between atoms: C18_21  and  C26_30
REMARK    8  A    between atoms: C21_25  and  C24_28
REMARK    9  A    between atoms: C21_25  and  C25_29
REMARK                            x       y       z     vdW  Elec       q    Type
REMARK                         _______ _______ _______ _____ _____    ______ ____
ROOT
ATOM      1  C   UNL     1      51.823  15.624  19.885  0.00  0.00    +0.031 C 
ATOM      2  C   UNL     1      50.495  15.997  19.199  0.00  0.00    +0.002 C 
ATOM      3  C   UNL     1      49.583  16.697  20.210  0.00  0.00    +0.009 C 
ATOM      4  C   UNL     1      50.105  18.107  20.506  0.00  0.00    +0.020 C 
ATOM      5  C   UNL     1      50.167  18.906  19.208  0.00  0.00    +0.015 C 
ATOM      6  C   UNL     1      50.389  20.386  19.455  0.00  0.00    +0.144 C 
ATOM      9  C   UNL     1      49.236  20.949  20.303  0.00  0.00    -0.001 C 
ATOM     10  C   UNL     1      50.380  21.137  18.118  0.00  0.00    -0.012 C 
ATOM     11  C   UNL     1      51.447  20.555  17.197  0.00  0.00    -0.013 C 
ATOM     12  C   UNL     1      51.185  19.074  16.932  0.00  0.00    +0.164 C 
ATOM     15  C   UNL     1      51.179  18.277  18.246  0.00  0.00    -0.022 C 
ATOM     16  C   UNL     1      52.595  18.298  18.800  0.00  0.00    +0.043 C 
ATOM     17  C   UNL     1      49.843  14.674  18.801  0.00  0.00    -0.116 C 
ATOM     18  C   UNL     1      49.496  13.880  19.777  0.00  0.00    -0.015 C 
ATOM     19  C   UNL     1      48.955  12.503  19.505  0.00  0.00    +0.047 C 
ATOM     20  C   UNL     1      49.708  11.987  18.269  0.00  0.00    -0.112 C 
ATOM     24  C   UNL     1      49.323  12.873  17.092  0.00  0.00    +0.019 C 
ATOM     25  C   UNL     1      47.856  12.691  16.727  0.00  0.00    +0.017 C 
ATOM     26  C   UNL     1      47.485  11.221  16.507  0.00  0.00    -0.066 C 
ATOM     27  C   UNL     1      45.964  11.134  16.301  0.00  0.00    +0.006 C 
ATOM     28  C   UNL     1      48.176  10.691  15.251  0.00  0.00    +0.017 C 
ATOM     29  C   UNL     1      47.863  10.386  17.724  0.00  0.00    +0.002 C 
ATOM     30  C   UNL     1      49.350  10.526  18.019  0.00  0.00    +0.014 C 
ATOM     31  C   UNL     1      49.661  14.343  17.353  0.00  0.00    +0.013 C 
ATOM     32  C   UNL     1      48.485  15.165  16.813  0.00  0.00    +0.003 C 
ATOM     33  C   UNL     1      50.907  14.735  16.565  0.00  0.00    +0.009 C 
ATOM     34  C   UNL     1      51.424  16.137  16.867  0.00  0.00    +0.022 C 
ATOM     35  C   UNL     1      50.675  16.858  17.963  0.00  0.00    -0.001 C 
ENDROOT
BRANCH  20  21
ATOM     21  C   UNL     1      51.195  12.057  18.524  0.00  0.00    +0.513 C 
ATOM     22  O   UNL     1      51.618  12.058  19.667  0.00  0.00    -0.704 OA
ATOM     23  O   UNL     1      51.973  12.111  17.586  0.00  0.00    -0.686 OA
ENDBRANCH  20  21
BRANCH   6   7
ATOM      7  O   UNL     1      51.613  20.635  20.140  0.00  0.00    -0.544 OA
ATOM      8  H   UNL     1      51.806  21.574  20.273  0.00  0.00    +0.367 HD
ENDBRANCH   6   7
BRANCH  12  13
ATOM     13  O   UNL     1      52.255  18.596  16.103  0.00  0.00    -0.553 OA
ATOM     14  H   UNL     1      52.042  17.788  15.614  0.00  0.00    +0.365 HD
ENDBRANCH  12  13
TORSDOF 3
ENDMDL
MODEL 8
REMARK VINA RESULT:      -6.1      4.138      7.221
REMARK  Name = ZINC95486113
REMARK  9 active torsions:
REMARK  status: ('A' for Active; 'I' for Inactive)
REMARK    1  A    between atoms: C1_1  and  C2_2
REMARK    2  A    between atoms: C6_7  and  C29_36
REMARK    3  A    between atoms: C6_7  and  O4_37
REMARK    4  A    between atoms: C9_10  and  O3_35
REMARK    5  A    between atoms: C10_12  and  C28_34
REMARK    6  A    between atoms: C14_17  and  C27_33
REMARK    7  A    between atoms: C18_21  and  C26_30
REMARK    8  A    between atoms: C21_25  and  C24_28
REMARK    9  A    between atoms: C21_25  and  C25_29
REMARK                            x       y       z     vdW  Elec       q    Type
REMARK                         _______ _______ _______ _____ _____    ______ ____
ROOT
ATOM      1  C   UNL     1      46.678  15.405  19.546  0.00  0.00    +0.031 C 
ATOM      2  C   UNL     1      48.118  15.301  19.009  0.00  0.00    +0.002 C 
ATOM      3  C   UNL     1      48.891  14.267  19.832  0.00  0.00    +0.009 C 
ATOM      4  C   UNL     1      48.405  12.853  19.496  0.00  0.00    +0.020 C 
ATOM      5  C   UNL     1      48.598  12.593  18.005  0.00  0.00    +0.015 C 
ATOM      6  C   UNL     1      48.420  11.129  17.650  0.00  0.00    +0.144 C 
ATOM      9  C   UNL     1      49.449  10.280  18.415  0.00  0.00    -0.001 C 
ATOM     10  C   UNL     1      48.687  10.928  16.153  0.00  0.00    -0.012 C 
ATOM     11  C   UNL     1      47.754  11.821  15.343  0.00  0.00    -0.013 C 
ATOM     12  C   UNL     1      47.974  13.291  15.689  0.00  0.00    +0.164 C 
ATOM     15  C   UNL     1      47.723  13.544  17.184  0.00  0.00    -0.022 C 
ATOM     16  C   UNL     1      46.239  13.332  17.441  0.00  0.00    +0.043 C 
ATOM     17  C   UNL     1      48.753  16.670  19.243  0.00  0.00    -0.116 C 
ATOM     18  C   UNL     1      48.893  17.042  20.486  0.00  0.00    -0.015 C 
ATOM     19  C   UNL     1      49.395  18.416  20.836  0.00  0.00    +0.047 C 
ATOM     20  C   UNL     1      48.826  19.361  19.766  0.00  0.00    -0.112 C 
ATOM     24  C   UNL     1      49.444  18.971  18.430  0.00  0.00    +0.019 C 
ATOM     25  C   UNL     1      50.938  19.261  18.414  0.00  0.00    +0.017 C 
ATOM     26  C   UNL     1      51.260  20.705  18.816  0.00  0.00    -0.066 C 
ATOM     27  C   UNL     1      52.787  20.848  18.920  0.00  0.00    +0.006 C 
ATOM     28  C   UNL     1      50.754  21.670  17.744  0.00  0.00    +0.017 C 
ATOM     29  C   UNL     1      50.645  21.033  20.171  0.00  0.00    +0.002 C 
ATOM     30  C   UNL     1      49.139  20.807  20.136  0.00  0.00    +0.014 C 
ATOM     31  C   UNL     1      49.148  17.513  18.072  0.00  0.00    +0.013 C 
ATOM     32  C   UNL     1      50.440  16.939  17.477  0.00  0.00    +0.003 C 
ATOM     33  C   UNL     1      48.071  17.454  16.994  0.00  0.00    +0.009 C 
ATOM     34  C   UNL     1      47.589  16.044  16.667  0.00  0.00    +0.022 C 
ATOM     35  C   UNL     1      48.188  14.962  17.532  0.00  0.00    -0.001 C 
ENDROOT
BRANCH  20  21
ATOM     21  C   UNL     1      47.323  19.216  19.719  0.00  0.00    +0.513 C 
ATOM     22  O   UNL     1      46.722  18.789  20.689  0.00  0.00    -0.704 OA
ATOM     23  O   UNL     1      46.711  19.527  18.711  0.00  0.00    -0.686 OA
ENDBRANCH  20  21
BRANCH   6   7
ATOM      7  O   UNL     1      47.116  10.655  17.975  0.00  0.00    -0.544 OA
ATOM      8  H   UNL     1      46.489  10.694  17.240  0.00  0.00    +0.367 HD
ENDBRANCH   6   7
BRANCH  12  13
ATOM     13  O   UNL     1      47.028  14.054  14.923  0.00  0.00    -0.553 OA
ATOM     14  H   UNL     1      46.197  13.590  14.751  0.00  0.00    +0.365 HD
ENDBRANCH  12  13
TORSDOF 3
ENDMDL
MODEL 9
REMARK VINA RESULT:      -6.0      4.126      6.268
REMARK  Name = ZINC95486113
REMARK  9 active torsions:
REMARK  status: ('A' for Active; 'I' for Inactive)
REMARK    1  A    between atoms: C1_1  and  C2_2
REMARK    2  A    between atoms: C6_7  and  C29_36
REMARK    3  A    between atoms: C6_7  and  O4_37
REMARK    4  A    between atoms: C9_10  and  O3_35
REMARK    5  A    between atoms: C10_12  and  C28_34
REMARK    6  A    between atoms: C14_17  and  C27_33
REMARK    7  A    between atoms: C18_21  and  C26_30
REMARK    8  A    between atoms: C21_25  and  C24_28
REMARK    9  A    between atoms: C21_25  and  C25_29
REMARK                            x       y       z     vdW  Elec       q    Type
REMARK                         _______ _______ _______ _____ _____    ______ ____
ROOT
ATOM      1  C   UNL     1      48.875  16.338  17.624  0.00  0.00    +0.031 C 
ATOM      2  C   UNL     1      47.548  15.622  17.940  0.00  0.00    +0.002 C 
ATOM      3  C   UNL     1      46.936  15.093  16.640  0.00  0.00    +0.009 C 
ATOM      4  C   UNL     1      47.740  13.893  16.128  0.00  0.00    +0.020 C 
ATOM      5  C   UNL     1      47.750  12.799  17.191  0.00  0.00    +0.015 C 
ATOM      6  C   UNL     1      48.267  11.479  16.652  0.00  0.00    +0.144 C 
ATOM      9  C   UNL     1      47.373  11.005  15.495  0.00  0.00    -0.001 C 
ATOM     10  C   UNL     1      48.194  10.412  17.751  0.00  0.00    -0.012 C 
ATOM     11  C   UNL     1      48.990  10.873  18.966  0.00  0.00    -0.013 C 
ATOM     12  C   UNL     1      48.432  12.184  19.515  0.00  0.00    +0.164 C 
ATOM     15  C   UNL     1      48.479  13.287  18.446  0.00  0.00    -0.022 C 
ATOM     16  C   UNL     1      49.942  13.604  18.181  0.00  0.00    +0.043 C 
ATOM     17  C   UNL     1      46.618  16.694  18.505  0.00  0.00    -0.116 C 
ATOM     18  C   UNL     1      46.283  17.660  17.693  0.00  0.00    -0.015 C 
ATOM     19  C   UNL     1      45.471  18.833  18.172  0.00  0.00    +0.047 C 
ATOM     20  C   UNL     1      45.927  19.106  19.614  0.00  0.00    -0.112 C 
ATOM     24  C   UNL     1      45.536  17.900  20.457  0.00  0.00    +0.019 C 
ATOM     25  C   UNL     1      44.022  17.779  20.570  0.00  0.00    +0.017 C 
ATOM     26  C   UNL     1      43.366  19.077  21.053  0.00  0.00    -0.066 C 
ATOM     27  C   UNL     1      41.840  18.900  20.983  0.00  0.00    +0.006 C 
ATOM     28  C   UNL     1      43.756  19.350  22.505  0.00  0.00    +0.017 C 
ATOM     29  C   UNL     1      43.765  20.244  20.159  0.00  0.00    +0.002 C 
ATOM     30  C   UNL     1      45.280  20.389  20.125  0.00  0.00    +0.014 C 
ATOM     31  C   UNL     1      46.166  16.609  19.929  0.00  0.00    +0.013 C 
ATOM     32  C   UNL     1      45.089  15.523  20.031  0.00  0.00    +0.003 C 
ATOM     33  C   UNL     1      47.330  16.198  20.825  0.00  0.00    +0.009 C 
ATOM     34  C   UNL     1      48.129  15.007  20.307  0.00  0.00    +0.022 C 
ATOM     35  C   UNL     1      47.693  14.502  18.953  0.00  0.00    -0.001 C 
ENDROOT
BRANCH  20  21
ATOM     21  C   UNL     1      47.424  19.307  19.635  0.00  0.00    +0.513 C 
ATOM     22  O   UNL     1      48.005  19.664  18.625  0.00  0.00    -0.704 OA
ATOM     23  O   UNL     1      48.050  19.115  20.663  0.00  0.00    -0.686 OA
ENDBRANCH  20  21
BRANCH   6   7
ATOM      7  O   UNL     1      49.605  11.586  16.172  0.00  0.00    -0.544 OA
ATOM      8  H   UNL     1      49.672  11.912  15.264  0.00  0.00    +0.367 HD
ENDBRANCH   6   7
BRANCH  12  13
ATOM     13  O   UNL     1      49.263  12.570  20.620  0.00  0.00    -0.553 OA
ATOM     14  H   UNL     1      49.858  11.872  20.927  0.00  0.00    +0.365 HD
ENDBRANCH  12  13
TORSDOF 3
ENDMDL
