MODEL 1
REMARK VINA RESULT:      -4.3      0.000      0.000
REMARK  Name = ZINC95486240
REMARK  16 active torsions:
REMARK  status: ('A' for Active; 'I' for Inactive)
REMARK    1  A    between atoms: C1_1  and  C2_2
REMARK    2  A    between atoms: C1_1  and  C13_15
REMARK    3  A    between atoms: C2_2  and  C3_3
REMARK    4  A    between atoms: C3_3  and  C4_4
REMARK    5  A    between atoms: C4_4  and  C5_5
REMARK    6  A    between atoms: C5_5  and  C6_7
REMARK    7  A    between atoms: C6_7  and  C7_8
REMARK    8  A    between atoms: C7_8  and  C8_9
REMARK    9  A    between atoms: C8_9  and  C9_10
REMARK   10  A    between atoms: C9_10  and  C10_11
REMARK   11  A    between atoms: C10_11  and  C11_12
REMARK   12  A    between atoms: C11_12  and  C12_13
REMARK   13  A    between atoms: C12_13  and  O2_14
REMARK   14  A    between atoms: C13_15  and  C14_16
REMARK   15  A    between atoms: C14_16  and  C15_17
REMARK   16  A    between atoms: C15_17  and  C16_18
REMARK                            x       y       z     vdW  Elec       q    Type
REMARK                         _______ _______ _______ _____ _____    ______ ____
ROOT
ATOM     11  C   UNL     1      45.624  17.303  19.146  0.00  0.00    +0.351 C 
ATOM     21  O   UNL     1      45.797  16.780  18.071  0.00  0.00    -0.450 OA
ENDROOT
BRANCH  11  10
ATOM     10  C   UNL     1      44.875  16.571  20.228  0.00  0.00    +0.021 C 
BRANCH  10   9
ATOM      9  C   UNL     1      44.592  17.524  21.390  0.00  0.00    +0.020 C 
BRANCH   9   8
ATOM      8  C   UNL     1      43.198  17.245  21.953  0.00  0.00    +0.001 C 
BRANCH   8   1
ATOM      1  C   UNL     1      42.393  18.546  21.991  0.00  0.00    +0.001 C 
BRANCH   1   2
ATOM      2  C   UNL     1      42.674  19.356  20.723  0.00  0.00    -0.012 C 
BRANCH   2   3
ATOM      3  C   UNL     1      41.472  19.260  19.781  0.00  0.00    +0.021 C 
BRANCH   3   4
ATOM      4  C   UNL     1      41.732  20.109  18.535  0.00  0.00    -0.076 C 
BRANCH   4   5
ATOM      5  C   UNL     1      40.814  21.304  18.540  0.00  0.00    +0.487 C 
ATOM      6  O   UNL     1      39.612  21.149  18.412  0.00  0.00    -0.710 OA
ATOM      7  O   UNL     1      41.274  22.425  18.670  0.00  0.00    -0.700 OA
ENDBRANCH   4   5
ENDBRANCH   3   4
ENDBRANCH   2   3
ENDBRANCH   1   2
ENDBRANCH   8   1
ENDBRANCH   9   8
ENDBRANCH  10   9
ENDBRANCH  11  10
BRANCH  11  12
ATOM     12  C   UNL     1      46.157  18.689  19.403  0.00  0.00    +0.020 C 
BRANCH  12  13
ATOM     13  C   UNL     1      45.667  19.637  18.306  0.00  0.00    +0.022 C 
BRANCH  13  14
ATOM     14  C   UNL     1      46.101  21.067  18.637  0.00  0.00    +0.005 C 
BRANCH  14  15
ATOM     15  C   UNL     1      45.767  21.376  20.097  0.00  0.00    +0.007 C 
BRANCH  15  16
ATOM     16  C   UNL     1      44.553  22.305  20.157  0.00  0.00    +0.010 C 
BRANCH  16  17
ATOM     17  C   UNL     1      45.026  23.760  20.189  0.00  0.00    +0.016 C 
BRANCH  17  18
ATOM     18  C   UNL     1      44.584  24.468  18.907  0.00  0.00    +0.163 C 
BRANCH  18  19
ATOM     19  O   UNL     1      43.163  24.389  18.786  0.00  0.00    -0.577 OA
ATOM     20  H   UNL     1      42.683  24.967  19.395  0.00  0.00    +0.380 HD
ENDBRANCH  18  19
ENDBRANCH  17  18
ENDBRANCH  16  17
ENDBRANCH  15  16
ENDBRANCH  14  15
ENDBRANCH  13  14
ENDBRANCH  12  13
ENDBRANCH  11  12
TORSDOF 16
ENDMDL
MODEL 2
REMARK VINA RESULT:      -4.2      4.175      6.650
REMARK  Name = ZINC95486240
REMARK  16 active torsions:
REMARK  status: ('A' for Active; 'I' for Inactive)
REMARK    1  A    between atoms: C1_1  and  C2_2
REMARK    2  A    between atoms: C1_1  and  C13_15
REMARK    3  A    between atoms: C2_2  and  C3_3
REMARK    4  A    between atoms: C3_3  and  C4_4
REMARK    5  A    between atoms: C4_4  and  C5_5
REMARK    6  A    between atoms: C5_5  and  C6_7
REMARK    7  A    between atoms: C6_7  and  C7_8
REMARK    8  A    between atoms: C7_8  and  C8_9
REMARK    9  A    between atoms: C8_9  and  C9_10
REMARK   10  A    between atoms: C9_10  and  C10_11
REMARK   11  A    between atoms: C10_11  and  C11_12
REMARK   12  A    between atoms: C11_12  and  C12_13
REMARK   13  A    between atoms: C12_13  and  O2_14
REMARK   14  A    between atoms: C13_15  and  C14_16
REMARK   15  A    between atoms: C14_16  and  C15_17
REMARK   16  A    between atoms: C15_17  and  C16_18
REMARK                            x       y       z     vdW  Elec       q    Type
REMARK                         _______ _______ _______ _____ _____    ______ ____
ROOT
ATOM     11  C   UNL     1      51.697  20.865  16.646  0.00  0.00    +0.351 C 
ATOM     21  O   UNL     1      51.355  21.767  15.920  0.00  0.00    -0.450 OA
ENDROOT
BRANCH  11  10
ATOM     10  C   UNL     1      51.579  21.015  18.140  0.00  0.00    +0.021 C 
BRANCH  10   9
ATOM      9  C   UNL     1      50.103  21.032  18.538  0.00  0.00    +0.020 C 
BRANCH   9   8
ATOM      8  C   UNL     1      49.917  20.261  19.846  0.00  0.00    +0.001 C 
BRANCH   8   1
ATOM      1  C   UNL     1      48.424  20.147  20.163  0.00  0.00    +0.001 C 
BRANCH   1   2
ATOM      2  C   UNL     1      47.611  20.721  19.000  0.00  0.00    -0.012 C 
BRANCH   2   3
ATOM      3  C   UNL     1      46.123  20.691  19.356  0.00  0.00    +0.021 C 
BRANCH   3   4
ATOM      4  C   UNL     1      45.784  21.899  20.232  0.00  0.00    -0.076 C 
BRANCH   4   5
ATOM      5  C   UNL     1      44.564  22.592  19.682  0.00  0.00    +0.487 C 
ATOM      6  O   UNL     1      44.634  23.753  19.321  0.00  0.00    -0.710 OA
ATOM      7  O   UNL     1      43.506  21.990  19.600  0.00  0.00    -0.700 OA
ENDBRANCH   4   5
ENDBRANCH   3   4
ENDBRANCH   2   3
ENDBRANCH   1   2
ENDBRANCH   8   1
ENDBRANCH   9   8
ENDBRANCH  10   9
ENDBRANCH  11  10
BRANCH  11  12
ATOM     12  C   UNL     1      52.240  19.589  16.057  0.00  0.00    +0.020 C 
BRANCH  12  13
ATOM     13  C   UNL     1      51.164  18.502  16.111  0.00  0.00    +0.022 C 
BRANCH  13  14
ATOM     14  C   UNL     1      51.557  17.445  17.145  0.00  0.00    +0.005 C 
BRANCH  14  15
ATOM     15  C   UNL     1      50.340  17.094  18.002  0.00  0.00    +0.007 C 
BRANCH  15  16
ATOM     16  C   UNL     1      49.065  17.536  17.282  0.00  0.00    +0.010 C 
BRANCH  16  17
ATOM     17  C   UNL     1      47.845  17.138  18.115  0.00  0.00    +0.016 C 
BRANCH  17  18
ATOM     18  C   UNL     1      46.569  17.418  17.318  0.00  0.00    +0.163 C 
BRANCH  18  19
ATOM     19  O   UNL     1      46.619  16.712  16.077  0.00  0.00    -0.577 OA
ATOM     20  H   UNL     1      47.467  16.780  15.619  0.00  0.00    +0.380 HD
ENDBRANCH  18  19
ENDBRANCH  17  18
ENDBRANCH  16  17
ENDBRANCH  15  16
ENDBRANCH  14  15
ENDBRANCH  13  14
ENDBRANCH  12  13
ENDBRANCH  11  12
TORSDOF 16
ENDMDL
MODEL 3
REMARK VINA RESULT:      -4.0      1.762      2.063
REMARK  Name = ZINC95486240
REMARK  16 active torsions:
REMARK  status: ('A' for Active; 'I' for Inactive)
REMARK    1  A    between atoms: C1_1  and  C2_2
REMARK    2  A    between atoms: C1_1  and  C13_15
REMARK    3  A    between atoms: C2_2  and  C3_3
REMARK    4  A    between atoms: C3_3  and  C4_4
REMARK    5  A    between atoms: C4_4  and  C5_5
REMARK    6  A    between atoms: C5_5  and  C6_7
REMARK    7  A    between atoms: C6_7  and  C7_8
REMARK    8  A    between atoms: C7_8  and  C8_9
REMARK    9  A    between atoms: C8_9  and  C9_10
REMARK   10  A    between atoms: C9_10  and  C10_11
REMARK   11  A    between atoms: C10_11  and  C11_12
REMARK   12  A    between atoms: C11_12  and  C12_13
REMARK   13  A    between atoms: C12_13  and  O2_14
REMARK   14  A    between atoms: C13_15  and  C14_16
REMARK   15  A    between atoms: C14_16  and  C15_17
REMARK   16  A    between atoms: C15_17  and  C16_18
REMARK                            x       y       z     vdW  Elec       q    Type
REMARK                         _______ _______ _______ _____ _____    ______ ____
ROOT
ATOM     11  C   UNL     1      46.984  18.627  20.658  0.00  0.00    +0.351 C 
ATOM     21  O   UNL     1      47.475  19.290  21.540  0.00  0.00    -0.450 OA
ENDROOT
BRANCH  11  10
ATOM     10  C   UNL     1      46.116  17.444  20.999  0.00  0.00    +0.021 C 
BRANCH  10   9
ATOM      9  C   UNL     1      45.015  17.881  21.966  0.00  0.00    +0.020 C 
BRANCH   9   8
ATOM      8  C   UNL     1      43.661  17.828  21.256  0.00  0.00    +0.001 C 
BRANCH   8   1
ATOM      1  C   UNL     1      42.619  18.581  22.087  0.00  0.00    +0.001 C 
BRANCH   1   2
ATOM      2  C   UNL     1      41.371  18.826  21.236  0.00  0.00    -0.012 C 
BRANCH   2   3
ATOM      3  C   UNL     1      41.788  19.149  19.800  0.00  0.00    +0.021 C 
BRANCH   3   4
ATOM      4  C   UNL     1      41.379  20.583  19.460  0.00  0.00    -0.076 C 
BRANCH   4   5
ATOM      5  C   UNL     1      40.376  20.567  18.335  0.00  0.00    +0.487 C 
ATOM      6  O   UNL     1      40.349  19.631  17.556  0.00  0.00    -0.710 OA
ATOM      7  O   UNL     1      39.592  21.492  18.205  0.00  0.00    -0.700 OA
ENDBRANCH   4   5
ENDBRANCH   3   4
ENDBRANCH   2   3
ENDBRANCH   1   2
ENDBRANCH   8   1
ENDBRANCH   9   8
ENDBRANCH  10   9
ENDBRANCH  11  10
BRANCH  11  12
ATOM     12  C   UNL     1      47.240  18.985  19.217  0.00  0.00    +0.020 C 
BRANCH  12  13
ATOM     13  C   UNL     1      45.952  18.813  18.410  0.00  0.00    +0.022 C 
BRANCH  13  14
ATOM     14  C   UNL     1      45.037  20.016  18.646  0.00  0.00    +0.005 C 
BRANCH  14  15
ATOM     15  C   UNL     1      45.875  21.296  18.668  0.00  0.00    +0.007 C 
BRANCH  15  16
ATOM     16  C   UNL     1      45.280  22.278  19.680  0.00  0.00    +0.010 C 
BRANCH  16  17
ATOM     17  C   UNL     1      44.667  21.499  20.846  0.00  0.00    +0.016 C 
BRANCH  17  18
ATOM     18  C   UNL     1      44.902  22.265  22.149  0.00  0.00    +0.163 C 
BRANCH  18  19
ATOM     19  O   UNL     1      44.038  23.402  22.196  0.00  0.00    -0.577 OA
ATOM     20  H   UNL     1      44.010  23.909  21.373  0.00  0.00    +0.380 HD
ENDBRANCH  18  19
ENDBRANCH  17  18
ENDBRANCH  16  17
ENDBRANCH  15  16
ENDBRANCH  14  15
ENDBRANCH  13  14
ENDBRANCH  12  13
ENDBRANCH  11  12
TORSDOF 16
ENDMDL
MODEL 4
REMARK VINA RESULT:      -4.0      3.536      5.005
REMARK  Name = ZINC95486240
REMARK  16 active torsions:
REMARK  status: ('A' for Active; 'I' for Inactive)
REMARK    1  A    between atoms: C1_1  and  C2_2
REMARK    2  A    between atoms: C1_1  and  C13_15
REMARK    3  A    between atoms: C2_2  and  C3_3
REMARK    4  A    between atoms: C3_3  and  C4_4
REMARK    5  A    between atoms: C4_4  and  C5_5
REMARK    6  A    between atoms: C5_5  and  C6_7
REMARK    7  A    between atoms: C6_7  and  C7_8
REMARK    8  A    between atoms: C7_8  and  C8_9
REMARK    9  A    between atoms: C8_9  and  C9_10
REMARK   10  A    between atoms: C9_10  and  C10_11
REMARK   11  A    between atoms: C10_11  and  C11_12
REMARK   12  A    between atoms: C11_12  and  C12_13
REMARK   13  A    between atoms: C12_13  and  O2_14
REMARK   14  A    between atoms: C13_15  and  C14_16
REMARK   15  A    between atoms: C14_16  and  C15_17
REMARK   16  A    between atoms: C15_17  and  C16_18
REMARK                            x       y       z     vdW  Elec       q    Type
REMARK                         _______ _______ _______ _____ _____    ______ ____
ROOT
ATOM     11  C   UNL     1      46.719  21.209  20.248  0.00  0.00    +0.351 C 
ATOM     21  O   UNL     1      46.085  21.538  21.222  0.00  0.00    -0.450 OA
ENDROOT
BRANCH  11  10
ATOM     10  C   UNL     1      46.111  21.334  18.875  0.00  0.00    +0.021 C 
BRANCH  10   9
ATOM      9  C   UNL     1      44.693  20.761  18.890  0.00  0.00    +0.020 C 
BRANCH   9   8
ATOM      8  C   UNL     1      44.759  19.233  18.841  0.00  0.00    +0.001 C 
BRANCH   8   1
ATOM      1  C   UNL     1      43.749  18.647  19.829  0.00  0.00    +0.001 C 
BRANCH   1   2
ATOM      2  C   UNL     1      42.866  19.768  20.381  0.00  0.00    -0.012 C 
BRANCH   2   3
ATOM      3  C   UNL     1      41.399  19.460  20.073  0.00  0.00    +0.021 C 
BRANCH   3   4
ATOM      4  C   UNL     1      41.071  19.913  18.649  0.00  0.00    -0.076 C 
BRANCH   4   5
ATOM      5  C   UNL     1      40.537  21.322  18.680  0.00  0.00    +0.487 C 
ATOM      6  O   UNL     1      39.344  21.518  18.833  0.00  0.00    -0.710 OA
ATOM      7  O   UNL     1      41.298  22.266  18.551  0.00  0.00    -0.700 OA
ENDBRANCH   4   5
ENDBRANCH   3   4
ENDBRANCH   2   3
ENDBRANCH   1   2
ENDBRANCH   8   1
ENDBRANCH   9   8
ENDBRANCH  10   9
ENDBRANCH  11  10
BRANCH  11  12
ATOM     12  C   UNL     1      48.119  20.673  20.407  0.00  0.00    +0.020 C 
BRANCH  12  13
ATOM     13  C   UNL     1      48.792  20.585  19.036  0.00  0.00    +0.022 C 
BRANCH  13  14
ATOM     14  C   UNL     1      49.070  19.119  18.697  0.00  0.00    +0.005 C 
BRANCH  14  15
ATOM     15  C   UNL     1      50.555  18.943  18.375  0.00  0.00    +0.007 C 
BRANCH  15  16
ATOM     16  C   UNL     1      50.708  18.414  16.948  0.00  0.00    +0.010 C 
BRANCH  16  17
ATOM     17  C   UNL     1      51.780  19.223  16.216  0.00  0.00    +0.016 C 
BRANCH  17  18
ATOM     18  C   UNL     1      51.602  20.710  16.534  0.00  0.00    +0.163 C 
BRANCH  18  19
ATOM     19  O   UNL     1      52.507  21.478  15.739  0.00  0.00    -0.577 OA
ATOM     20  H   UNL     1      53.426  21.433  16.034  0.00  0.00    +0.380 HD
ENDBRANCH  18  19
ENDBRANCH  17  18
ENDBRANCH  16  17
ENDBRANCH  15  16
ENDBRANCH  14  15
ENDBRANCH  13  14
ENDBRANCH  12  13
ENDBRANCH  11  12
TORSDOF 16
ENDMDL
MODEL 5
REMARK VINA RESULT:      -4.0      3.907      7.444
REMARK  Name = ZINC95486240
REMARK  16 active torsions:
REMARK  status: ('A' for Active; 'I' for Inactive)
REMARK    1  A    between atoms: C1_1  and  C2_2
REMARK    2  A    between atoms: C1_1  and  C13_15
REMARK    3  A    between atoms: C2_2  and  C3_3
REMARK    4  A    between atoms: C3_3  and  C4_4
REMARK    5  A    between atoms: C4_4  and  C5_5
REMARK    6  A    between atoms: C5_5  and  C6_7
REMARK    7  A    between atoms: C6_7  and  C7_8
REMARK    8  A    between atoms: C7_8  and  C8_9
REMARK    9  A    between atoms: C8_9  and  C9_10
REMARK   10  A    between atoms: C9_10  and  C10_11
REMARK   11  A    between atoms: C10_11  and  C11_12
REMARK   12  A    between atoms: C11_12  and  C12_13
REMARK   13  A    between atoms: C12_13  and  O2_14
REMARK   14  A    between atoms: C13_15  and  C14_16
REMARK   15  A    between atoms: C14_16  and  C15_17
REMARK   16  A    between atoms: C15_17  and  C16_18
REMARK                            x       y       z     vdW  Elec       q    Type
REMARK                         _______ _______ _______ _____ _____    ______ ____
ROOT
ATOM     11  C   UNL     1      47.668  19.409  19.064  0.00  0.00    +0.351 C 
ATOM     21  O   UNL     1      47.042  18.535  18.512  0.00  0.00    -0.450 OA
ENDROOT
BRANCH  11  10
ATOM     10  C   UNL     1      49.174  19.359  19.083  0.00  0.00    +0.021 C 
BRANCH  10   9
ATOM      9  C   UNL     1      49.719  20.645  19.705  0.00  0.00    +0.020 C 
BRANCH   9   8
ATOM      8  C   UNL     1      50.983  21.078  18.959  0.00  0.00    +0.001 C 
BRANCH   8   1
ATOM      1  C   UNL     1      50.678  21.193  17.464  0.00  0.00    +0.001 C 
BRANCH   1   2
ATOM      2  C   UNL     1      51.909  20.770  16.659  0.00  0.00    -0.012 C 
BRANCH   2   3
ATOM      3  C   UNL     1      52.308  19.346  17.050  0.00  0.00    +0.021 C 
BRANCH   3   4
ATOM      4  C   UNL     1      51.583  18.347  16.147  0.00  0.00    -0.076 C 
BRANCH   4   5
ATOM      5  C   UNL     1      51.259  17.102  16.932  0.00  0.00    +0.487 C 
ATOM      6  O   UNL     1      50.107  16.714  17.011  0.00  0.00    -0.710 OA
ATOM      7  O   UNL     1      52.150  16.484  17.489  0.00  0.00    -0.700 OA
ENDBRANCH   4   5
ENDBRANCH   3   4
ENDBRANCH   2   3
ENDBRANCH   1   2
ENDBRANCH   8   1
ENDBRANCH   9   8
ENDBRANCH  10   9
ENDBRANCH  11  10
BRANCH  11  12
ATOM     12  C   UNL     1      46.942  20.547  19.733  0.00  0.00    +0.020 C 
BRANCH  12  13
ATOM     13  C   UNL     1      45.986  21.201  18.733  0.00  0.00    +0.022 C 
BRANCH  13  14
ATOM     14  C   UNL     1      44.574  21.229  19.321  0.00  0.00    +0.005 C 
BRANCH  14  15
ATOM     15  C   UNL     1      43.804  19.991  18.858  0.00  0.00    +0.007 C 
BRANCH  15  16
ATOM     16  C   UNL     1      42.379  20.039  19.413  0.00  0.00    +0.010 C 
BRANCH  16  17
ATOM     17  C   UNL     1      41.405  20.388  18.286  0.00  0.00    +0.016 C 
BRANCH  17  18
ATOM     18  C   UNL     1      40.835  21.788  18.521  0.00  0.00    +0.163 C 
BRANCH  18  19
ATOM     19  O   UNL     1      39.521  21.867  17.965  0.00  0.00    -0.577 OA
ATOM     20  H   UNL     1      39.217  22.769  17.798  0.00  0.00    +0.380 HD
ENDBRANCH  18  19
ENDBRANCH  17  18
ENDBRANCH  16  17
ENDBRANCH  15  16
ENDBRANCH  14  15
ENDBRANCH  13  14
ENDBRANCH  12  13
ENDBRANCH  11  12
TORSDOF 16
ENDMDL
MODEL 6
REMARK VINA RESULT:      -3.9      4.182      7.045
REMARK  Name = ZINC95486240
REMARK  16 active torsions:
REMARK  status: ('A' for Active; 'I' for Inactive)
REMARK    1  A    between atoms: C1_1  and  C2_2
REMARK    2  A    between atoms: C1_1  and  C13_15
REMARK    3  A    between atoms: C2_2  and  C3_3
REMARK    4  A    between atoms: C3_3  and  C4_4
REMARK    5  A    between atoms: C4_4  and  C5_5
REMARK    6  A    between atoms: C5_5  and  C6_7
REMARK    7  A    between atoms: C6_7  and  C7_8
REMARK    8  A    between atoms: C7_8  and  C8_9
REMARK    9  A    between atoms: C8_9  and  C9_10
REMARK   10  A    between atoms: C9_10  and  C10_11
REMARK   11  A    between atoms: C10_11  and  C11_12
REMARK   12  A    between atoms: C11_12  and  C12_13
REMARK   13  A    between atoms: C12_13  and  O2_14
REMARK   14  A    between atoms: C13_15  and  C14_16
REMARK   15  A    between atoms: C14_16  and  C15_17
REMARK   16  A    between atoms: C15_17  and  C16_18
REMARK                            x       y       z     vdW  Elec       q    Type
REMARK                         _______ _______ _______ _____ _____    ______ ____
ROOT
ATOM     11  C   UNL     1      51.672  20.952  18.672  0.00  0.00    +0.351 C 
ATOM     21  O   UNL     1      52.783  21.037  19.138  0.00  0.00    -0.450 OA
ENDROOT
BRANCH  11  10
ATOM     10  C   UNL     1      51.471  21.051  17.182  0.00  0.00    +0.021 C 
BRANCH  10   9
ATOM      9  C   UNL     1      52.236  19.924  16.488  0.00  0.00    +0.020 C 
BRANCH   9   8
ATOM      8  C   UNL     1      51.259  18.824  16.069  0.00  0.00    +0.001 C 
BRANCH   8   1
ATOM      1  C   UNL     1      51.497  17.578  16.924  0.00  0.00    +0.001 C 
BRANCH   1   2
ATOM      2  C   UNL     1      50.378  17.450  17.960  0.00  0.00    -0.012 C 
BRANCH   2   3
ATOM      3  C   UNL     1      49.025  17.407  17.247  0.00  0.00    +0.021 C 
BRANCH   3   4
ATOM      4  C   UNL     1      48.400  16.022  17.421  0.00  0.00    -0.076 C 
BRANCH   4   5
ATOM      5  C   UNL     1      46.899  16.132  17.334  0.00  0.00    +0.487 C 
ATOM      6  O   UNL     1      46.367  16.367  16.264  0.00  0.00    -0.710 OA
ATOM      7  O   UNL     1      46.219  15.988  18.336  0.00  0.00    -0.700 OA
ENDBRANCH   4   5
ENDBRANCH   3   4
ENDBRANCH   2   3
ENDBRANCH   1   2
ENDBRANCH   8   1
ENDBRANCH   9   8
ENDBRANCH  10   9
ENDBRANCH  11  10
BRANCH  11  12
ATOM     12  C   UNL     1      50.487  20.748  19.581  0.00  0.00    +0.020 C 
BRANCH  12  13
ATOM     13  C   UNL     1      49.194  20.904  18.779  0.00  0.00    +0.022 C 
BRANCH  13  14
ATOM     14  C   UNL     1      48.035  20.271  19.552  0.00  0.00    +0.005 C 
BRANCH  14  15
ATOM     15  C   UNL     1      46.707  20.745  18.957  0.00  0.00    +0.007 C 
BRANCH  15  16
ATOM     16  C   UNL     1      45.964  19.551  18.354  0.00  0.00    +0.010 C 
BRANCH  16  17
ATOM     17  C   UNL     1      44.461  19.714  18.590  0.00  0.00    +0.016 C 
BRANCH  17  18
ATOM     18  C   UNL     1      44.219  20.885  19.545  0.00  0.00    +0.163 C 
BRANCH  18  19
ATOM     19  O   UNL     1      43.234  21.757  18.990  0.00  0.00    -0.577 OA
ATOM     20  H   UNL     1      42.447  21.301  18.659  0.00  0.00    +0.380 HD
ENDBRANCH  18  19
ENDBRANCH  17  18
ENDBRANCH  16  17
ENDBRANCH  15  16
ENDBRANCH  14  15
ENDBRANCH  13  14
ENDBRANCH  12  13
ENDBRANCH  11  12
TORSDOF 16
ENDMDL
MODEL 7
REMARK VINA RESULT:      -3.9      3.584      7.113
REMARK  Name = ZINC95486240
REMARK  16 active torsions:
REMARK  status: ('A' for Active; 'I' for Inactive)
REMARK    1  A    between atoms: C1_1  and  C2_2
REMARK    2  A    between atoms: C1_1  and  C13_15
REMARK    3  A    between atoms: C2_2  and  C3_3
REMARK    4  A    between atoms: C3_3  and  C4_4
REMARK    5  A    between atoms: C4_4  and  C5_5
REMARK    6  A    between atoms: C5_5  and  C6_7
REMARK    7  A    between atoms: C6_7  and  C7_8
REMARK    8  A    between atoms: C7_8  and  C8_9
REMARK    9  A    between atoms: C8_9  and  C9_10
REMARK   10  A    between atoms: C9_10  and  C10_11
REMARK   11  A    between atoms: C10_11  and  C11_12
REMARK   12  A    between atoms: C11_12  and  C12_13
REMARK   13  A    between atoms: C12_13  and  O2_14
REMARK   14  A    between atoms: C13_15  and  C14_16
REMARK   15  A    between atoms: C14_16  and  C15_17
REMARK   16  A    between atoms: C15_17  and  C16_18
REMARK                            x       y       z     vdW  Elec       q    Type
REMARK                         _______ _______ _______ _____ _____    ______ ____
ROOT
ATOM     11  C   UNL     1      45.118  21.937  21.337  0.00  0.00    +0.351 C 
ATOM     21  O   UNL     1      44.276  22.803  21.327  0.00  0.00    -0.450 OA
ENDROOT
BRANCH  11  10
ATOM     10  C   UNL     1      46.470  22.194  20.724  0.00  0.00    +0.021 C 
BRANCH  10   9
ATOM      9  C   UNL     1      47.564  21.738  21.691  0.00  0.00    +0.020 C 
BRANCH   9   8
ATOM      8  C   UNL     1      48.662  21.010  20.913  0.00  0.00    +0.001 C 
BRANCH   8   1
ATOM      1  C   UNL     1      48.083  20.459  19.608  0.00  0.00    +0.001 C 
BRANCH   1   2
ATOM      2  C   UNL     1      49.221  19.943  18.724  0.00  0.00    -0.012 C 
BRANCH   2   3
ATOM      3  C   UNL     1      50.487  20.758  18.997  0.00  0.00    +0.021 C 
BRANCH   3   4
ATOM      4  C   UNL     1      51.177  21.088  17.672  0.00  0.00    -0.076 C 
BRANCH   4   5
ATOM      5  C   UNL     1      52.146  19.988  17.322  0.00  0.00    +0.487 C 
ATOM      6  O   UNL     1      52.173  19.538  16.190  0.00  0.00    -0.710 OA
ATOM      7  O   UNL     1      52.902  19.550  18.171  0.00  0.00    -0.700 OA
ENDBRANCH   4   5
ENDBRANCH   3   4
ENDBRANCH   2   3
ENDBRANCH   1   2
ENDBRANCH   8   1
ENDBRANCH   9   8
ENDBRANCH  10   9
ENDBRANCH  11  10
BRANCH  11  12
ATOM     12  C   UNL     1      44.815  20.600  21.963  0.00  0.00    +0.020 C 
BRANCH  12  13
ATOM     13  C   UNL     1      43.681  19.921  21.193  0.00  0.00    +0.022 C 
BRANCH  13  14
ATOM     14  C   UNL     1      44.233  19.311  19.903  0.00  0.00    +0.005 C 
BRANCH  14  15
ATOM     15  C   UNL     1      43.599  20.008  18.697  0.00  0.00    +0.007 C 
BRANCH  15  16
ATOM     16  C   UNL     1      42.324  20.729  19.139  0.00  0.00    +0.010 C 
BRANCH  16  17
ATOM     17  C   UNL     1      41.123  20.143  18.393  0.00  0.00    +0.016 C 
BRANCH  17  18
ATOM     18  C   UNL     1      39.965  21.143  18.426  0.00  0.00    +0.163 C 
BRANCH  18  19
ATOM     19  O   UNL     1      40.458  22.452  18.135  0.00  0.00    -0.577 OA
ATOM     20  H   UNL     1      41.411  22.486  17.972  0.00  0.00    +0.380 HD
ENDBRANCH  18  19
ENDBRANCH  17  18
ENDBRANCH  16  17
ENDBRANCH  15  16
ENDBRANCH  14  15
ENDBRANCH  13  14
ENDBRANCH  12  13
ENDBRANCH  11  12
TORSDOF 16
ENDMDL
MODEL 8
REMARK VINA RESULT:      -3.9      1.253      4.298
REMARK  Name = ZINC95486240
REMARK  16 active torsions:
REMARK  status: ('A' for Active; 'I' for Inactive)
REMARK    1  A    between atoms: C1_1  and  C2_2
REMARK    2  A    between atoms: C1_1  and  C13_15
REMARK    3  A    between atoms: C2_2  and  C3_3
REMARK    4  A    between atoms: C3_3  and  C4_4
REMARK    5  A    between atoms: C4_4  and  C5_5
REMARK    6  A    between atoms: C5_5  and  C6_7
REMARK    7  A    between atoms: C6_7  and  C7_8
REMARK    8  A    between atoms: C7_8  and  C8_9
REMARK    9  A    between atoms: C8_9  and  C9_10
REMARK   10  A    between atoms: C9_10  and  C10_11
REMARK   11  A    between atoms: C10_11  and  C11_12
REMARK   12  A    between atoms: C11_12  and  C12_13
REMARK   13  A    between atoms: C12_13  and  O2_14
REMARK   14  A    between atoms: C13_15  and  C14_16
REMARK   15  A    between atoms: C14_16  and  C15_17
REMARK   16  A    between atoms: C15_17  and  C16_18
REMARK                            x       y       z     vdW  Elec       q    Type
REMARK                         _______ _______ _______ _____ _____    ______ ____
ROOT
ATOM     11  C   UNL     1      45.311  17.708  19.763  0.00  0.00    +0.351 C 
ATOM     21  O   UNL     1      44.882  18.179  18.736  0.00  0.00    -0.450 OA
ENDROOT
BRANCH  11  10
ATOM     10  C   UNL     1      46.768  17.341  19.872  0.00  0.00    +0.021 C 
BRANCH  10   9
ATOM      9  C   UNL     1      47.565  18.556  20.349  0.00  0.00    +0.020 C 
BRANCH   9   8
ATOM      8  C   UNL     1      47.965  19.410  19.144  0.00  0.00    +0.001 C 
BRANCH   8   1
ATOM      1  C   UNL     1      47.316  20.791  19.260  0.00  0.00    +0.001 C 
BRANCH   1   2
ATOM      2  C   UNL     1      47.071  21.117  20.735  0.00  0.00    -0.012 C 
BRANCH   2   3
ATOM      3  C   UNL     1      45.741  21.858  20.879  0.00  0.00    +0.021 C 
BRANCH   3   4
ATOM      4  C   UNL     1      45.044  21.925  19.518  0.00  0.00    -0.076 C 
BRANCH   4   5
ATOM      5  C   UNL     1      44.215  23.181  19.439  0.00  0.00    +0.487 C 
ATOM      6  O   UNL     1      42.999  23.112  19.487  0.00  0.00    -0.710 OA
ATOM      7  O   UNL     1      44.761  24.265  19.325  0.00  0.00    -0.700 OA
ENDBRANCH   4   5
ENDBRANCH   3   4
ENDBRANCH   2   3
ENDBRANCH   1   2
ENDBRANCH   8   1
ENDBRANCH   9   8
ENDBRANCH  10   9
ENDBRANCH  11  10
BRANCH  11  12
ATOM     12  C   UNL     1      44.387  17.487  20.932  0.00  0.00    +0.020 C 
BRANCH  12  13
ATOM     13  C   UNL     1      43.617  18.776  21.226  0.00  0.00    +0.022 C 
BRANCH  13  14
ATOM     14  C   UNL     1      42.176  18.433  21.612  0.00  0.00    +0.005 C 
BRANCH  14  15
ATOM     15  C   UNL     1      41.211  19.137  20.656  0.00  0.00    +0.007 C 
BRANCH  15  16
ATOM     16  C   UNL     1      42.008  19.853  19.564  0.00  0.00    +0.010 C 
BRANCH  16  17
ATOM     17  C   UNL     1      41.081  20.188  18.394  0.00  0.00    +0.016 C 
BRANCH  17  18
ATOM     18  C   UNL     1      40.052  21.228  18.840  0.00  0.00    +0.163 C 
BRANCH  18  19
ATOM     19  O   UNL     1      40.235  22.430  18.090  0.00  0.00    -0.577 OA
ATOM     20  H   UNL     1      39.437  22.970  18.011  0.00  0.00    +0.380 HD
ENDBRANCH  18  19
ENDBRANCH  17  18
ENDBRANCH  16  17
ENDBRANCH  15  16
ENDBRANCH  14  15
ENDBRANCH  13  14
ENDBRANCH  12  13
ENDBRANCH  11  12
TORSDOF 16
ENDMDL
MODEL 9
REMARK VINA RESULT:      -3.8      3.300      4.201
REMARK  Name = ZINC95486240
REMARK  16 active torsions:
REMARK  status: ('A' for Active; 'I' for Inactive)
REMARK    1  A    between atoms: C1_1  and  C2_2
REMARK    2  A    between atoms: C1_1  and  C13_15
REMARK    3  A    between atoms: C2_2  and  C3_3
REMARK    4  A    between atoms: C3_3  and  C4_4
REMARK    5  A    between atoms: C4_4  and  C5_5
REMARK    6  A    between atoms: C5_5  and  C6_7
REMARK    7  A    between atoms: C6_7  and  C7_8
REMARK    8  A    between atoms: C7_8  and  C8_9
REMARK    9  A    between atoms: C8_9  and  C9_10
REMARK   10  A    between atoms: C9_10  and  C10_11
REMARK   11  A    between atoms: C10_11  and  C11_12
REMARK   12  A    between atoms: C11_12  and  C12_13
REMARK   13  A    between atoms: C12_13  and  O2_14
REMARK   14  A    between atoms: C13_15  and  C14_16
REMARK   15  A    between atoms: C14_16  and  C15_17
REMARK   16  A    between atoms: C15_17  and  C16_18
REMARK                            x       y       z     vdW  Elec       q    Type
REMARK                         _______ _______ _______ _____ _____    ______ ____
ROOT
ATOM     11  C   UNL     1      46.554  18.129  18.642  0.00  0.00    +0.351 C 
ATOM     21  O   UNL     1      45.947  18.608  17.714  0.00  0.00    -0.450 OA
ENDROOT
BRANCH  11  10
ATOM     10  C   UNL     1      45.903  17.082  19.508  0.00  0.00    +0.021 C 
BRANCH  10   9
ATOM      9  C   UNL     1      44.578  17.620  20.050  0.00  0.00    +0.020 C 
BRANCH   9   8
ATOM      8  C   UNL     1      44.852  18.750  21.043  0.00  0.00    +0.001 C 
BRANCH   8   1
ATOM      1  C   UNL     1      43.725  19.782  20.966  0.00  0.00    +0.001 C 
BRANCH   1   2
ATOM      2  C   UNL     1      42.645  19.286  20.002  0.00  0.00    -0.012 C 
BRANCH   2   3
ATOM      3  C   UNL     1      42.624  20.177  18.759  0.00  0.00    +0.021 C 
BRANCH   3   4
ATOM      4  C   UNL     1      41.638  21.327  18.972  0.00  0.00    -0.076 C 
BRANCH   4   5
ATOM      5  C   UNL     1      40.285  20.935  18.435  0.00  0.00    +0.487 C 
ATOM      6  O   UNL     1      40.170  19.943  17.737  0.00  0.00    -0.710 OA
ATOM      7  O   UNL     1      39.306  21.613  18.697  0.00  0.00    -0.700 OA
ENDBRANCH   4   5
ENDBRANCH   3   4
ENDBRANCH   2   3
ENDBRANCH   1   2
ENDBRANCH   8   1
ENDBRANCH   9   8
ENDBRANCH  10   9
ENDBRANCH  11  10
BRANCH  11  12
ATOM     12  C   UNL     1      47.963  18.578  18.931  0.00  0.00    +0.020 C 
BRANCH  12  13
ATOM     13  C   UNL     1      47.940  19.997  19.503  0.00  0.00    +0.022 C 
BRANCH  13  14
ATOM     14  C   UNL     1      48.981  20.855  18.782  0.00  0.00    +0.005 C 
BRANCH  14  15
ATOM     15  C   UNL     1      50.322  20.751  19.513  0.00  0.00    +0.007 C 
BRANCH  15  16
ATOM     16  C   UNL     1      51.463  20.969  18.517  0.00  0.00    +0.010 C 
BRANCH  16  17
ATOM     17  C   UNL     1      51.222  20.113  17.271  0.00  0.00    +0.016 C 
BRANCH  17  18
ATOM     18  C   UNL     1      52.130  20.596  16.138  0.00  0.00    +0.163 C 
BRANCH  18  19
ATOM     19  O   UNL     1      51.769  21.930  15.775  0.00  0.00    -0.577 OA
ATOM     20  H   UNL     1      52.074  22.195  14.896  0.00  0.00    +0.380 HD
ENDBRANCH  18  19
ENDBRANCH  17  18
ENDBRANCH  16  17
ENDBRANCH  15  16
ENDBRANCH  14  15
ENDBRANCH  13  14
ENDBRANCH  12  13
ENDBRANCH  11  12
TORSDOF 16
ENDMDL
