MODEL 1
REMARK VINA RESULT:      -6.2      0.000      0.000
REMARK  Name = ZINC95486243
REMARK  10 active torsions:
REMARK  status: ('A' for Active; 'I' for Inactive)
REMARK    1  A    between atoms: C1_1  and  C2_2
REMARK    2  A    between atoms: C6_7  and  C30_41
REMARK    3  A    between atoms: C11_13  and  C23_30
REMARK    4  A    between atoms: C13_15  and  O3_29
REMARK    5  A    between atoms: C14_17  and  C22_26
REMARK    6  A    between atoms: C17_21  and  C20_24
REMARK    7  A    between atoms: C17_21  and  C21_25
REMARK    8  A    between atoms: C25_32  and  O6_40
REMARK    9  A    between atoms: C27_35  and  C28_36
REMARK   10  A    between atoms: C27_35  and  C29_37
REMARK                            x       y       z     vdW  Elec       q    Type
REMARK                         _______ _______ _______ _____ _____    ______ ____
ROOT
ATOM      1  C   UNL     1      48.865  16.238  21.975  0.00  0.00    +0.008 C 
ATOM      2  C   UNL     1      48.981  15.583  20.560  0.00  0.00    -0.023 C 
ATOM      3  C   UNL     1      49.470  14.162  20.819  0.00  0.00    +0.002 C 
ATOM      4  C   UNL     1      49.253  13.205  19.667  0.00  0.00    +0.010 C 
ATOM      5  C   UNL     1      47.847  13.210  19.088  0.00  0.00    +0.027 C 
ATOM      6  C   UNL     1      47.209  14.564  18.938  0.00  0.00    -0.013 C 
ATOM      7  C   UNL     1      45.672  14.348  19.183  0.00  0.00    -0.006 C 
ATOM      8  C   UNL     1      47.310  15.231  17.586  0.00  0.00    +0.037 C 
ATOM      9  C   UNL     1      47.921  14.512  16.417  0.00  0.00    +0.155 C 
ATOM     12  C   UNL     1      48.604  13.193  16.714  0.00  0.00    +0.014 C 
ATOM     13  C   UNL     1      47.862  12.403  17.786  0.00  0.00    -0.115 C 
ATOM     17  C   UNL     1      46.458  12.044  17.304  0.00  0.00    +0.021 C 
ATOM     18  C   UNL     1      49.967  16.412  19.750  0.00  0.00    +0.025 C 
ATOM     19  C   UNL     1      50.238  15.736  18.399  0.00  0.00    +0.019 C 
ATOM     20  C   UNL     1      51.314  16.489  20.457  0.00  0.00    -0.012 C 
ATOM     21  C   UNL     1      52.222  17.590  19.929  0.00  0.00    +0.177 C 
ATOM     24  C   UNL     1      51.543  18.950  19.950  0.00  0.00    -0.100 C 
ATOM     28  C   UNL     1      50.273  18.959  19.123  0.00  0.00    +0.060 C 
ATOM     29  C   UNL     1      50.566  18.974  17.626  0.00  0.00    +0.023 C 
ATOM     30  C   UNL     1      51.476  20.130  17.231  0.00  0.00    -0.055 C 
ATOM     31  C   UNL     1      51.811  19.998  15.731  0.00  0.00    +0.004 C 
ATOM     32  C   UNL     1      50.778  21.469  17.459  0.00  0.00    +0.008 C 
ATOM     33  C   UNL     1      52.775  20.065  18.027  0.00  0.00    +0.012 C 
ATOM     34  C   UNL     1      52.511  20.050  19.524  0.00  0.00    +0.016 C 
ATOM     35  C   UNL     1      49.400  17.767  19.451  0.00  0.00    -0.036 C 
ATOM     36  C   UNL     1      48.109  17.962  19.427  0.00  0.00    -0.104 C 
ATOM     37  C   UNL     1      47.051  16.957  19.699  0.00  0.00    +0.047 C 
ATOM     38  C   UNL     1      47.570  15.569  20.030  0.00  0.00    -0.008 C 
ENDROOT
BRANCH  13  14
ATOM     14  C   UNL     1      48.607  11.099  18.006  0.00  0.00    +0.506 C 
ATOM     15  O   UNL     1      48.175  10.277  18.796  0.00  0.00    -0.703 OA
ATOM     16  O   UNL     1      49.637  10.874  17.394  0.00  0.00    -0.704 OA
ENDBRANCH  13  14
BRANCH  24  25
ATOM     25  C   UNL     1      51.155  19.260  21.388  0.00  0.00    +0.506 C 
ATOM     26  O   UNL     1      50.128  19.872  21.624  0.00  0.00    -0.676 OA
ATOM     27  O   UNL     1      51.872  18.896  22.305  0.00  0.00    -0.707 OA
ENDBRANCH  24  25
BRANCH   9  10
ATOM     10  O   UNL     1      46.922  14.309  15.398  0.00  0.00    -0.582 OA
ATOM     11  H   UNL     1      46.411  15.101  15.186  0.00  0.00    +0.366 HD
ENDBRANCH   9  10
BRANCH  21  22
ATOM     22  O   UNL     1      52.712  17.270  18.633  0.00  0.00    -0.558 OA
ATOM     23  H   UNL     1      52.046  17.333  17.933  0.00  0.00    +0.358 HD
ENDBRANCH  21  22
TORSDOF 4
ENDMDL
MODEL 2
REMARK VINA RESULT:      -5.9      1.770      3.060
REMARK  Name = ZINC95486243
REMARK  10 active torsions:
REMARK  status: ('A' for Active; 'I' for Inactive)
REMARK    1  A    between atoms: C1_1  and  C2_2
REMARK    2  A    between atoms: C6_7  and  C30_41
REMARK    3  A    between atoms: C11_13  and  C23_30
REMARK    4  A    between atoms: C13_15  and  O3_29
REMARK    5  A    between atoms: C14_17  and  C22_26
REMARK    6  A    between atoms: C17_21  and  C20_24
REMARK    7  A    between atoms: C17_21  and  C21_25
REMARK    8  A    between atoms: C25_32  and  O6_40
REMARK    9  A    between atoms: C27_35  and  C28_36
REMARK   10  A    between atoms: C27_35  and  C29_37
REMARK                            x       y       z     vdW  Elec       q    Type
REMARK                         _______ _______ _______ _____ _____    ______ ____
ROOT
ATOM      1  C   UNL     1      52.123  14.557  19.093  0.00  0.00    +0.008 C 
ATOM      2  C   UNL     1      50.741  14.499  18.365  0.00  0.00    -0.023 C 
ATOM      3  C   UNL     1      51.015  13.782  17.048  0.00  0.00    +0.002 C 
ATOM      4  C   UNL     1      49.782  13.228  16.368  0.00  0.00    +0.010 C 
ATOM      5  C   UNL     1      48.871  12.407  17.267  0.00  0.00    +0.027 C 
ATOM      6  C   UNL     1      48.660  12.952  18.653  0.00  0.00    -0.013 C 
ATOM      7  C   UNL     1      48.495  11.702  19.590  0.00  0.00    -0.006 C 
ATOM      8  C   UNL     1      47.426  13.792  18.887  0.00  0.00    +0.037 C 
ATOM      9  C   UNL     1      46.401  13.971  17.802  0.00  0.00    +0.155 C 
ATOM     12  C   UNL     1      46.767  13.448  16.429  0.00  0.00    +0.014 C 
ATOM     13  C   UNL     1      47.561  12.149  16.515  0.00  0.00    -0.115 C 
ATOM     17  C   UNL     1      46.719  11.053  17.165  0.00  0.00    +0.021 C 
ATOM     18  C   UNL     1      50.263  15.932  18.173  0.00  0.00    +0.025 C 
ATOM     19  C   UNL     1      48.980  15.950  17.331  0.00  0.00    +0.019 C 
ATOM     20  C   UNL     1      51.289  16.740  17.390  0.00  0.00    -0.012 C 
ATOM     21  C   UNL     1      51.084  18.245  17.482  0.00  0.00    +0.177 C 
ATOM     24  C   UNL     1      51.028  18.728  18.922  0.00  0.00    -0.100 C 
ATOM     28  C   UNL     1      49.911  18.059  19.698  0.00  0.00    +0.060 C 
ATOM     29  C   UNL     1      48.541  18.607  19.315  0.00  0.00    +0.023 C 
ATOM     30  C   UNL     1      48.468  20.122  19.462  0.00  0.00    -0.055 C 
ATOM     31  C   UNL     1      47.094  20.598  18.945  0.00  0.00    +0.004 C 
ATOM     32  C   UNL     1      48.606  20.530  20.927  0.00  0.00    +0.008 C 
ATOM     33  C   UNL     1      49.557  20.779  18.621  0.00  0.00    +0.012 C 
ATOM     34  C   UNL     1      50.936  20.250  18.984  0.00  0.00    +0.016 C 
ATOM     35  C   UNL     1      49.927  16.559  19.492  0.00  0.00    -0.036 C 
ATOM     36  C   UNL     1      49.593  15.824  20.518  0.00  0.00    -0.104 C 
ATOM     37  C   UNL     1      49.520  14.342  20.565  0.00  0.00    +0.047 C 
ATOM     38  C   UNL     1      49.874  13.651  19.260  0.00  0.00    -0.008 C 
ENDROOT
BRANCH  13  14
ATOM     14  C   UNL     1      47.871  11.696  15.100  0.00  0.00    +0.506 C 
ATOM     15  O   UNL     1      48.417  10.623  14.910  0.00  0.00    -0.703 OA
ATOM     16  O   UNL     1      47.572  12.404  14.153  0.00  0.00    -0.704 OA
ENDBRANCH  13  14
BRANCH  24  25
ATOM     25  C   UNL     1      52.341  18.355  19.594  0.00  0.00    +0.506 C 
ATOM     26  O   UNL     1      52.430  18.374  20.810  0.00  0.00    -0.676 OA
ATOM     27  O   UNL     1      53.303  18.036  18.917  0.00  0.00    -0.707 OA
ENDBRANCH  24  25
BRANCH   9  10
ATOM     10  O   UNL     1      45.152  13.381  18.216  0.00  0.00    -0.582 OA
ATOM     11  H   UNL     1      44.484  13.345  17.519  0.00  0.00    +0.366 HD
ENDBRANCH   9  10
BRANCH  21  22
ATOM     22  O   UNL     1      49.933  18.649  16.749  0.00  0.00    -0.558 OA
ATOM     23  H   UNL     1      50.022  18.553  15.791  0.00  0.00    +0.358 HD
ENDBRANCH  21  22
TORSDOF 4
ENDMDL
MODEL 3
REMARK VINA RESULT:      -5.8      1.685      7.146
REMARK  Name = ZINC95486243
REMARK  10 active torsions:
REMARK  status: ('A' for Active; 'I' for Inactive)
REMARK    1  A    between atoms: C1_1  and  C2_2
REMARK    2  A    between atoms: C6_7  and  C30_41
REMARK    3  A    between atoms: C11_13  and  C23_30
REMARK    4  A    between atoms: C13_15  and  O3_29
REMARK    5  A    between atoms: C14_17  and  C22_26
REMARK    6  A    between atoms: C17_21  and  C20_24
REMARK    7  A    between atoms: C17_21  and  C21_25
REMARK    8  A    between atoms: C25_32  and  O6_40
REMARK    9  A    between atoms: C27_35  and  C28_36
REMARK   10  A    between atoms: C27_35  and  C29_37
REMARK                            x       y       z     vdW  Elec       q    Type
REMARK                         _______ _______ _______ _____ _____    ______ ____
ROOT
ATOM      1  C   UNL     1      47.473  14.442  20.590  0.00  0.00    +0.008 C 
ATOM      2  C   UNL     1      48.221  15.518  19.737  0.00  0.00    -0.023 C 
ATOM      3  C   UNL     1      47.455  16.815  19.975  0.00  0.00    +0.002 C 
ATOM      4  C   UNL     1      48.220  18.070  19.611  0.00  0.00    +0.010 C 
ATOM      5  C   UNL     1      49.629  18.146  20.178  0.00  0.00    +0.027 C 
ATOM      6  C   UNL     1      50.419  16.866  20.134  0.00  0.00    -0.013 C 
ATOM      7  C   UNL     1      51.339  16.881  21.408  0.00  0.00    -0.006 C 
ATOM      8  C   UNL     1      51.357  16.671  18.965  0.00  0.00    +0.037 C 
ATOM      9  C   UNL     1      51.570  17.766  17.959  0.00  0.00    +0.155 C 
ATOM     12  C   UNL     1      50.656  18.969  18.061  0.00  0.00    +0.014 C 
ATOM     13  C   UNL     1      50.351  19.322  19.513  0.00  0.00    -0.115 C 
ATOM     17  C   UNL     1      51.633  19.712  20.245  0.00  0.00    +0.021 C 
ATOM     18  C   UNL     1      48.181  15.063  18.285  0.00  0.00    +0.025 C 
ATOM     19  C   UNL     1      48.769  16.150  17.376  0.00  0.00    +0.019 C 
ATOM     20  C   UNL     1      46.744  14.864  17.823  0.00  0.00    -0.012 C 
ATOM     21  C   UNL     1      46.618  14.056  16.540  0.00  0.00    +0.177 C 
ATOM     24  C   UNL     1      47.324  12.714  16.638  0.00  0.00    -0.100 C 
ATOM     28  C   UNL     1      48.800  12.874  16.942  0.00  0.00    +0.060 C 
ATOM     29  C   UNL     1      49.586  13.356  15.727  0.00  0.00    +0.023 C 
ATOM     30  C   UNL     1      49.379  12.454  14.517  0.00  0.00    -0.055 C 
ATOM     31  C   UNL     1      50.112  13.079  13.311  0.00  0.00    +0.004 C 
ATOM     32  C   UNL     1      49.959  11.065  14.773  0.00  0.00    +0.008 C 
ATOM     33  C   UNL     1      47.894  12.359  14.187  0.00  0.00    +0.012 C 
ATOM     34  C   UNL     1      47.087  11.879  15.383  0.00  0.00    +0.016 C 
ATOM     35  C   UNL     1      49.018  13.834  18.092  0.00  0.00    -0.036 C 
ATOM     36  C   UNL     1      50.006  13.563  18.902  0.00  0.00    -0.104 C 
ATOM     37  C   UNL     1      50.427  14.351  20.088  0.00  0.00    +0.047 C 
ATOM     38  C   UNL     1      49.597  15.596  20.345  0.00  0.00    -0.008 C 
ENDROOT
BRANCH  13  14
ATOM     14  C   UNL     1      49.444  20.540  19.517  0.00  0.00    +0.506 C 
ATOM     15  O   UNL     1      49.214  21.132  18.476  0.00  0.00    -0.703 OA
ATOM     16  O   UNL     1      48.946  20.925  20.561  0.00  0.00    -0.704 OA
ENDBRANCH  13  14
BRANCH  24  25
ATOM     25  C   UNL     1      46.701  11.937  17.788  0.00  0.00    +0.506 C 
ATOM     26  O   UNL     1      45.546  12.152  18.114  0.00  0.00    -0.676 OA
ATOM     27  O   UNL     1      47.356  11.100  18.384  0.00  0.00    -0.707 OA
ENDBRANCH  24  25
BRANCH   9  10
ATOM     10  O   UNL     1      52.941  18.208  18.009  0.00  0.00    -0.582 OA
ATOM     11  H   UNL     1      53.204  18.579  18.862  0.00  0.00    +0.366 HD
ENDBRANCH   9  10
BRANCH  21  22
ATOM     22  O   UNL     1      47.070  14.805  15.419  0.00  0.00    -0.558 OA
ATOM     23  H   UNL     1      47.782  15.428  15.623  0.00  0.00    +0.358 HD
ENDBRANCH  21  22
TORSDOF 4
ENDMDL
MODEL 4
REMARK VINA RESULT:      -5.7      1.753      7.206
REMARK  Name = ZINC95486243
REMARK  10 active torsions:
REMARK  status: ('A' for Active; 'I' for Inactive)
REMARK    1  A    between atoms: C1_1  and  C2_2
REMARK    2  A    between atoms: C6_7  and  C30_41
REMARK    3  A    between atoms: C11_13  and  C23_30
REMARK    4  A    between atoms: C13_15  and  O3_29
REMARK    5  A    between atoms: C14_17  and  C22_26
REMARK    6  A    between atoms: C17_21  and  C20_24
REMARK    7  A    between atoms: C17_21  and  C21_25
REMARK    8  A    between atoms: C25_32  and  O6_40
REMARK    9  A    between atoms: C27_35  and  C28_36
REMARK   10  A    between atoms: C27_35  and  C29_37
REMARK                            x       y       z     vdW  Elec       q    Type
REMARK                         _______ _______ _______ _____ _____    ______ ____
ROOT
ATOM      1  C   UNL     1      46.842  16.682  20.517  0.00  0.00    +0.008 C 
ATOM      2  C   UNL     1      48.086  16.950  19.610  0.00  0.00    -0.023 C 
ATOM      3  C   UNL     1      47.804  18.288  18.934  0.00  0.00    +0.002 C 
ATOM      4  C   UNL     1      49.024  18.964  18.348  0.00  0.00    +0.010 C 
ATOM      5  C   UNL     1      50.215  19.059  19.290  0.00  0.00    +0.027 C 
ATOM      6  C   UNL     1      50.486  17.837  20.123  0.00  0.00    -0.013 C 
ATOM      7  C   UNL     1      51.061  18.361  21.488  0.00  0.00    -0.006 C 
ATOM      8  C   UNL     1      51.514  16.858  19.606  0.00  0.00    +0.037 C 
ATOM      9  C   UNL     1      52.310  17.163  18.368  0.00  0.00    +0.155 C 
ATOM     12  C   UNL     1      51.887  18.378  17.571  0.00  0.00    +0.014 C 
ATOM     13  C   UNL     1      51.432  19.516  18.479  0.00  0.00    -0.115 C 
ATOM     17  C   UNL     1      52.585  19.982  19.366  0.00  0.00    +0.021 C 
ATOM     18  C   UNL     1      48.191  15.797  18.622  0.00  0.00    +0.025 C 
ATOM     19  C   UNL     1      49.306  16.074  17.605  0.00  0.00    +0.019 C 
ATOM     20  C   UNL     1      46.908  15.664  17.811  0.00  0.00    -0.012 C 
ATOM     21  C   UNL     1      46.774  14.332  17.089  0.00  0.00    +0.177 C 
ATOM     24  C   UNL     1      46.916  13.151  18.036  0.00  0.00    -0.100 C 
ATOM     28  C   UNL     1      48.253  13.159  18.751  0.00  0.00    +0.060 C 
ATOM     29  C   UNL     1      49.395  12.738  17.831  0.00  0.00    +0.023 C 
ATOM     30  C   UNL     1      49.138  11.384  17.182  0.00  0.00    -0.055 C 
ATOM     31  C   UNL     1      50.280  11.094  16.187  0.00  0.00    +0.004 C 
ATOM     32  C   UNL     1      49.114  10.277  18.233  0.00  0.00    +0.008 C 
ATOM     33  C   UNL     1      47.821  11.417  16.414  0.00  0.00    +0.012 C 
ATOM     34  C   UNL     1      46.665  11.834  17.309  0.00  0.00    +0.016 C 
ATOM     35  C   UNL     1      48.554  14.526  19.329  0.00  0.00    -0.036 C 
ATOM     36  C   UNL     1      49.186  14.552  20.471  0.00  0.00    -0.104 C 
ATOM     37  C   UNL     1      49.603  15.757  21.232  0.00  0.00    +0.047 C 
ATOM     38  C   UNL     1      49.239  17.076  20.571  0.00  0.00    -0.008 C 
ENDROOT
BRANCH  13  14
ATOM     14  C   UNL     1      51.042  20.689  17.598  0.00  0.00    +0.506 C 
ATOM     15  O   UNL     1      50.289  21.548  18.026  0.00  0.00    -0.703 OA
ATOM     16  O   UNL     1      51.481  20.774  16.464  0.00  0.00    -0.704 OA
ENDBRANCH  13  14
BRANCH  24  25
ATOM     25  C   UNL     1      45.830  13.265  19.096  0.00  0.00    +0.506 C 
ATOM     26  O   UNL     1      46.132  13.293  20.277  0.00  0.00    -0.676 OA
ATOM     27  O   UNL     1      44.659  13.328  18.764  0.00  0.00    -0.707 OA
ENDBRANCH  24  25
BRANCH   9  10
ATOM     10  O   UNL     1      53.706  17.282  18.710  0.00  0.00    -0.582 OA
ATOM     11  H   UNL     1      54.001  16.654  19.383  0.00  0.00    +0.366 HD
ENDBRANCH   9  10
BRANCH  21  22
ATOM     22  O   UNL     1      47.689  14.245  16.004  0.00  0.00    -0.558 OA
ATOM     23  H   UNL     1      48.593  14.505  16.229  0.00  0.00    +0.358 HD
ENDBRANCH  21  22
TORSDOF 4
ENDMDL
MODEL 5
REMARK VINA RESULT:      -5.7      2.144      6.981
REMARK  Name = ZINC95486243
REMARK  10 active torsions:
REMARK  status: ('A' for Active; 'I' for Inactive)
REMARK    1  A    between atoms: C1_1  and  C2_2
REMARK    2  A    between atoms: C6_7  and  C30_41
REMARK    3  A    between atoms: C11_13  and  C23_30
REMARK    4  A    between atoms: C13_15  and  O3_29
REMARK    5  A    between atoms: C14_17  and  C22_26
REMARK    6  A    between atoms: C17_21  and  C20_24
REMARK    7  A    between atoms: C17_21  and  C21_25
REMARK    8  A    between atoms: C25_32  and  O6_40
REMARK    9  A    between atoms: C27_35  and  C28_36
REMARK   10  A    between atoms: C27_35  and  C29_37
REMARK                            x       y       z     vdW  Elec       q    Type
REMARK                         _______ _______ _______ _____ _____    ______ ____
ROOT
ATOM      1  C   UNL     1      46.390  13.131  20.043  0.00  0.00    +0.008 C 
ATOM      2  C   UNL     1      46.874  14.486  19.431  0.00  0.00    -0.023 C 
ATOM      3  C   UNL     1      45.617  15.342  19.319  0.00  0.00    +0.002 C 
ATOM      4  C   UNL     1      45.880  16.824  19.162  0.00  0.00    +0.010 C 
ATOM      5  C   UNL     1      46.863  17.409  20.165  0.00  0.00    +0.027 C 
ATOM      6  C   UNL     1      48.069  16.562  20.465  0.00  0.00    -0.013 C 
ATOM      7  C   UNL     1      48.425  16.833  21.971  0.00  0.00    -0.006 C 
ATOM      8  C   UNL     1      49.334  16.860  19.694  0.00  0.00    +0.037 C 
ATOM      9  C   UNL     1      49.405  18.031  18.756  0.00  0.00    +0.155 C 
ATOM     12  C   UNL     1      48.104  18.754  18.473  0.00  0.00    +0.014 C 
ATOM     13  C   UNL     1      47.221  18.828  19.713  0.00  0.00    -0.115 C 
ATOM     17  C   UNL     1      47.913  19.634  20.811  0.00  0.00    +0.021 C 
ATOM     18  C   UNL     1      47.505  14.180  18.079  0.00  0.00    +0.025 C 
ATOM     19  C   UNL     1      47.867  15.486  17.360  0.00  0.00    +0.019 C 
ATOM     20  C   UNL     1      46.513  13.463  17.173  0.00  0.00    -0.012 C 
ATOM     21  C   UNL     1      47.158  12.787  15.972  0.00  0.00    +0.177 C 
ATOM     24  C   UNL     1      48.272  11.837  16.381  0.00  0.00    -0.100 C 
ATOM     28  C   UNL     1      49.364  12.548  17.155  0.00  0.00    +0.060 C 
ATOM     29  C   UNL     1      50.240  13.407  16.249  0.00  0.00    +0.023 C 
ATOM     30  C   UNL     1      50.831  12.606  15.095  0.00  0.00    -0.055 C 
ATOM     31  C   UNL     1      51.601  13.573  14.173  0.00  0.00    +0.004 C 
ATOM     32  C   UNL     1      51.803  11.549  15.613  0.00  0.00    +0.008 C 
ATOM     33  C   UNL     1      49.713  11.953  14.290  0.00  0.00    +0.012 C 
ATOM     34  C   UNL     1      48.824  11.089  15.171  0.00  0.00    +0.016 C 
ATOM     35  C   UNL     1      48.780  13.412  18.252  0.00  0.00    -0.036 C 
ATOM     36  C   UNL     1      49.464  13.490  19.362  0.00  0.00    -0.104 C 
ATOM     37  C   UNL     1      49.111  14.274  20.573  0.00  0.00    +0.047 C 
ATOM     38  C   UNL     1      47.814  15.056  20.461  0.00  0.00    -0.008 C 
ENDROOT
BRANCH  13  14
ATOM     14  C   UNL     1      45.953  19.576  19.341  0.00  0.00    +0.506 C 
ATOM     15  O   UNL     1      45.120  19.826  20.195  0.00  0.00    -0.703 OA
ATOM     16  O   UNL     1      45.768  19.927  18.188  0.00  0.00    -0.704 OA
ENDBRANCH  13  14
BRANCH  24  25
ATOM     25  C   UNL     1      47.675  10.779  17.297  0.00  0.00    +0.506 C 
ATOM     26  O   UNL     1      46.563  10.334  17.071  0.00  0.00    -0.676 OA
ATOM     27  O   UNL     1      48.309  10.377  18.258  0.00  0.00    -0.707 OA
ENDBRANCH  24  25
BRANCH   9  10
ATOM     10  O   UNL     1      50.378  18.979  19.239  0.00  0.00    -0.582 OA
ATOM     11  H   UNL     1      50.233  19.260  20.152  0.00  0.00    +0.366 HD
ENDBRANCH   9  10
BRANCH  21  22
ATOM     22  O   UNL     1      47.611  13.749  15.027  0.00  0.00    -0.558 OA
ATOM     23  H   UNL     1      48.159  13.379  14.320  0.00  0.00    +0.358 HD
ENDBRANCH  21  22
TORSDOF 4
ENDMDL
MODEL 6
REMARK VINA RESULT:      -5.6      1.801      7.296
REMARK  Name = ZINC95486243
REMARK  10 active torsions:
REMARK  status: ('A' for Active; 'I' for Inactive)
REMARK    1  A    between atoms: C1_1  and  C2_2
REMARK    2  A    between atoms: C6_7  and  C30_41
REMARK    3  A    between atoms: C11_13  and  C23_30
REMARK    4  A    between atoms: C13_15  and  O3_29
REMARK    5  A    between atoms: C14_17  and  C22_26
REMARK    6  A    between atoms: C17_21  and  C20_24
REMARK    7  A    between atoms: C17_21  and  C21_25
REMARK    8  A    between atoms: C25_32  and  O6_40
REMARK    9  A    between atoms: C27_35  and  C28_36
REMARK   10  A    between atoms: C27_35  and  C29_37
REMARK                            x       y       z     vdW  Elec       q    Type
REMARK                         _______ _______ _______ _____ _____    ______ ____
ROOT
ATOM      1  C   UNL     1      46.373  16.417  18.140  0.00  0.00    +0.008 C 
ATOM      2  C   UNL     1      47.925  16.595  18.085  0.00  0.00    -0.023 C 
ATOM      3  C   UNL     1      48.180  17.494  16.881  0.00  0.00    +0.002 C 
ATOM      4  C   UNL     1      49.541  18.155  16.868  0.00  0.00    +0.010 C 
ATOM      5  C   UNL     1      49.928  18.846  18.166  0.00  0.00    +0.027 C 
ATOM      6  C   UNL     1      49.576  18.105  19.428  0.00  0.00    -0.013 C 
ATOM      7  C   UNL     1      49.241  19.206  20.497  0.00  0.00    -0.006 C 
ATOM      8  C   UNL     1      50.654  17.253  20.056  0.00  0.00    +0.037 C 
ATOM      9  C   UNL     1      52.050  17.246  19.499  0.00  0.00    +0.155 C 
ATOM     12  C   UNL     1      52.258  17.960  18.180  0.00  0.00    +0.014 C 
ATOM     13  C   UNL     1      51.410  19.224  18.085  0.00  0.00    -0.115 C 
ATOM     17  C   UNL     1      51.820  20.222  19.166  0.00  0.00    +0.021 C 
ATOM     18  C   UNL     1      48.542  15.211  17.933  0.00  0.00    +0.025 C 
ATOM     19  C   UNL     1      50.057  15.329  17.724  0.00  0.00    +0.019 C 
ATOM     20  C   UNL     1      48.001  14.515  16.691  0.00  0.00    -0.012 C 
ATOM     21  C   UNL     1      48.256  13.016  16.668  0.00  0.00    +0.177 C 
ATOM     24  C   UNL     1      47.736  12.327  17.920  0.00  0.00    -0.100 C 
ATOM     28  C   UNL     1      48.372  12.887  19.176  0.00  0.00    +0.060 C 
ATOM     29  C   UNL     1      49.812  12.416  19.348  0.00  0.00    +0.023 C 
ATOM     30  C   UNL     1      49.925  10.896  19.316  0.00  0.00    -0.055 C 
ATOM     31  C   UNL     1      51.419  10.516  19.378  0.00  0.00    +0.004 C 
ATOM     32  C   UNL     1      49.214  10.277  20.517  0.00  0.00    +0.008 C 
ATOM     33  C   UNL     1      49.340  10.358  18.015  0.00  0.00    +0.012 C 
ATOM     34  C   UNL     1      47.903  10.814  17.820  0.00  0.00    +0.016 C 
ATOM     35  C   UNL     1      48.337  14.401  19.177  0.00  0.00    -0.036 C 
ATOM     36  C   UNL     1      48.154  14.981  20.332  0.00  0.00    -0.104 C 
ATOM     37  C   UNL     1      48.093  16.442  20.596  0.00  0.00    +0.047 C 
ATOM     38  C   UNL     1      48.272  17.312  19.364  0.00  0.00    -0.008 C 
ENDROOT
BRANCH  13  14
ATOM     14  C   UNL     1      51.693  19.877  16.743  0.00  0.00    +0.506 C 
ATOM     15  O   UNL     1      51.399  21.046  16.561  0.00  0.00    -0.703 OA
ATOM     16  O   UNL     1      52.214  19.232  15.849  0.00  0.00    -0.704 OA
ENDBRANCH  13  14
BRANCH  24  25
ATOM     25  C   UNL     1      46.239  12.584  18.010  0.00  0.00    +0.506 C 
ATOM     26  O   UNL     1      45.738  12.902  19.075  0.00  0.00    -0.676 OA
ATOM     27  O   UNL     1      45.541  12.473  17.017  0.00  0.00    -0.707 OA
ENDBRANCH  24  25
BRANCH   9  10
ATOM     10  O   UNL     1      52.963  17.782  20.477  0.00  0.00    -0.582 OA
ATOM     11  H   UNL     1      53.892  17.734  20.216  0.00  0.00    +0.366 HD
ENDBRANCH   9  10
BRANCH  21  22
ATOM     22  O   UNL     1      49.634  12.736  16.451  0.00  0.00    -0.558 OA
ATOM     23  H   UNL     1      49.796  11.954  15.905  0.00  0.00    +0.358 HD
ENDBRANCH  21  22
TORSDOF 4
ENDMDL
MODEL 7
REMARK VINA RESULT:      -5.6      1.823      2.759
REMARK  Name = ZINC95486243
REMARK  10 active torsions:
REMARK  status: ('A' for Active; 'I' for Inactive)
REMARK    1  A    between atoms: C1_1  and  C2_2
REMARK    2  A    between atoms: C6_7  and  C30_41
REMARK    3  A    between atoms: C11_13  and  C23_30
REMARK    4  A    between atoms: C13_15  and  O3_29
REMARK    5  A    between atoms: C14_17  and  C22_26
REMARK    6  A    between atoms: C17_21  and  C20_24
REMARK    7  A    between atoms: C17_21  and  C21_25
REMARK    8  A    between atoms: C25_32  and  O6_40
REMARK    9  A    between atoms: C27_35  and  C28_36
REMARK   10  A    between atoms: C27_35  and  C29_37
REMARK                            x       y       z     vdW  Elec       q    Type
REMARK                         _______ _______ _______ _____ _____    ______ ____
ROOT
ATOM      1  C   UNL     1      45.940  16.215  19.400  0.00  0.00    +0.008 C 
ATOM      2  C   UNL     1      47.320  15.528  19.144  0.00  0.00    -0.023 C 
ATOM      3  C   UNL     1      47.363  14.351  20.114  0.00  0.00    +0.002 C 
ATOM      4  C   UNL     1      48.388  13.293  19.770  0.00  0.00    +0.010 C 
ATOM      5  C   UNL     1      48.358  12.819  18.325  0.00  0.00    +0.027 C 
ATOM      6  C   UNL     1      48.161  13.895  17.291  0.00  0.00    -0.013 C 
ATOM      7  C   UNL     1      47.339  13.232  16.128  0.00  0.00    -0.006 C 
ATOM      8  C   UNL     1      49.399  14.460  16.634  0.00  0.00    +0.037 C 
ATOM      9  C   UNL     1      50.756  13.883  16.925  0.00  0.00    +0.155 C 
ATOM     12  C   UNL     1      50.835  12.866  18.044  0.00  0.00    +0.014 C 
ATOM     13  C   UNL     1      49.605  11.965  18.074  0.00  0.00    -0.115 C 
ATOM     17  C   UNL     1      49.509  11.154  16.783  0.00  0.00    +0.021 C 
ATOM     18  C   UNL     1      48.405  16.560  19.416  0.00  0.00    +0.025 C 
ATOM     19  C   UNL     1      49.790  15.905  19.328  0.00  0.00    +0.019 C 
ATOM     20  C   UNL     1      48.289  17.102  20.835  0.00  0.00    -0.012 C 
ATOM     21  C   UNL     1      49.067  18.388  21.066  0.00  0.00    +0.177 C 
ATOM     24  C   UNL     1      48.697  19.469  20.064  0.00  0.00    -0.100 C 
ATOM     28  C   UNL     1      48.949  19.024  18.637  0.00  0.00    +0.060 C 
ATOM     29  C   UNL     1      50.434  19.020  18.293  0.00  0.00    +0.023 C 
ATOM     30  C   UNL     1      51.089  20.369  18.561  0.00  0.00    -0.055 C 
ATOM     31  C   UNL     1      52.603  20.239  18.298  0.00  0.00    +0.004 C 
ATOM     32  C   UNL     1      50.523  21.439  17.630  0.00  0.00    +0.008 C 
ATOM     33  C   UNL     1      50.881  20.767  20.018  0.00  0.00    +0.012 C 
ATOM     34  C   UNL     1      49.406  20.780  20.387  0.00  0.00    +0.016 C 
ATOM     35  C   UNL     1      48.372  17.647  18.385  0.00  0.00    -0.036 C 
ATOM     36  C   UNL     1      47.869  17.431  17.200  0.00  0.00    -0.104 C 
ATOM     37  C   UNL     1      47.259  16.170  16.707  0.00  0.00    +0.047 C 
ATOM     38  C   UNL     1      47.245  15.039  17.721  0.00  0.00    -0.008 C 
ENDROOT
BRANCH  13  14
ATOM     14  C   UNL     1      49.777  10.975  19.213  0.00  0.00    +0.506 C 
ATOM     15  O   UNL     1      48.840  10.277  19.560  0.00  0.00    -0.703 OA
ATOM     16  O   UNL     1      50.852  10.879  19.779  0.00  0.00    -0.704 OA
ENDBRANCH  13  14
BRANCH  24  25
ATOM     25  C   UNL     1      47.207  19.747  20.201  0.00  0.00    +0.506 C 
ATOM     26  O   UNL     1      46.551  20.050  19.219  0.00  0.00    -0.676 OA
ATOM     27  O   UNL     1      46.670  19.667  21.292  0.00  0.00    -0.707 OA
ENDBRANCH  24  25
BRANCH   9  10
ATOM     10  O   UNL     1      51.303  13.306  15.722  0.00  0.00    -0.582 OA
ATOM     11  H   UNL     1      52.086  13.764  15.389  0.00  0.00    +0.366 HD
ENDBRANCH   9  10
BRANCH  21  22
ATOM     22  O   UNL     1      50.468  18.142  21.077  0.00  0.00    -0.558 OA
ATOM     23  H   UNL     1      50.902  18.375  21.909  0.00  0.00    +0.358 HD
ENDBRANCH  21  22
TORSDOF 4
ENDMDL
MODEL 8
REMARK VINA RESULT:      -5.6      2.787      4.940
REMARK  Name = ZINC95486243
REMARK  10 active torsions:
REMARK  status: ('A' for Active; 'I' for Inactive)
REMARK    1  A    between atoms: C1_1  and  C2_2
REMARK    2  A    between atoms: C6_7  and  C30_41
REMARK    3  A    between atoms: C11_13  and  C23_30
REMARK    4  A    between atoms: C13_15  and  O3_29
REMARK    5  A    between atoms: C14_17  and  C22_26
REMARK    6  A    between atoms: C17_21  and  C20_24
REMARK    7  A    between atoms: C17_21  and  C21_25
REMARK    8  A    between atoms: C25_32  and  O6_40
REMARK    9  A    between atoms: C27_35  and  C28_36
REMARK   10  A    between atoms: C27_35  and  C29_37
REMARK                            x       y       z     vdW  Elec       q    Type
REMARK                         _______ _______ _______ _____ _____    ______ ____
ROOT
ATOM      1  C   UNL     1      49.530  17.535  20.362  0.00  0.00    +0.008 C 
ATOM      2  C   UNL     1      48.574  16.708  19.443  0.00  0.00    -0.023 C 
ATOM      3  C   UNL     1      49.352  16.496  18.149  0.00  0.00    +0.002 C 
ATOM      4  C   UNL     1      48.825  15.377  17.277  0.00  0.00    +0.010 C 
ATOM      5  C   UNL     1      48.585  14.061  18.001  0.00  0.00    +0.027 C 
ATOM      6  C   UNL     1      47.960  14.173  19.364  0.00  0.00    -0.013 C 
ATOM      7  C   UNL     1      48.561  12.996  20.214  0.00  0.00    -0.006 C 
ATOM      8  C   UNL     1      46.460  14.007  19.455  0.00  0.00    +0.037 C 
ATOM      9  C   UNL     1      45.654  13.630  18.245  0.00  0.00    +0.155 C 
ATOM     12  C   UNL     1      46.382  13.632  16.917  0.00  0.00    +0.014 C 
ATOM     13  C   UNL     1      47.815  13.130  17.060  0.00  0.00    -0.115 C 
ATOM     17  C   UNL     1      47.824  11.679  17.536  0.00  0.00    +0.021 C 
ATOM     18  C   UNL     1      47.305  17.525  19.245  0.00  0.00    +0.025 C 
ATOM     19  C   UNL     1      46.386  16.833  18.231  0.00  0.00    +0.019 C 
ATOM     20  C   UNL     1      47.632  18.889  18.652  0.00  0.00    -0.012 C 
ATOM     21  C   UNL     1      46.501  19.899  18.777  0.00  0.00    +0.177 C 
ATOM     24  C   UNL     1      46.030  20.055  20.214  0.00  0.00    -0.100 C 
ATOM     28  C   UNL     1      45.545  18.741  20.794  0.00  0.00    +0.060 C 
ATOM     29  C   UNL     1      44.180  18.342  20.243  0.00  0.00    +0.023 C 
ATOM     30  C   UNL     1      43.139  19.436  20.442  0.00  0.00    -0.055 C 
ATOM     31  C   UNL     1      41.830  18.996  19.755  0.00  0.00    +0.004 C 
ATOM     32  C   UNL     1      42.861  19.654  21.928  0.00  0.00    +0.008 C 
ATOM     33  C   UNL     1      43.616  20.731  19.795  0.00  0.00    +0.012 C 
ATOM     34  C   UNL     1      44.976  21.153  20.327  0.00  0.00    +0.016 C 
ATOM     35  C   UNL     1      46.537  17.629  20.528  0.00  0.00    -0.036 C 
ATOM     36  C   UNL     1      46.672  16.729  21.464  0.00  0.00    -0.104 C 
ATOM     37  C   UNL     1      47.565  15.543  21.438  0.00  0.00    +0.047 C 
ATOM     38  C   UNL     1      48.386  15.400  20.168  0.00  0.00    -0.008 C 
ENDROOT
BRANCH  13  14
ATOM     14  C   UNL     1      48.458  13.154  15.685  0.00  0.00    +0.506 C 
ATOM     15  O   UNL     1      47.761  13.238  14.687  0.00  0.00    -0.703 OA
ATOM     16  O   UNL     1      49.671  13.091  15.578  0.00  0.00    -0.704 OA
ENDBRANCH  13  14
BRANCH  24  25
ATOM     25  C   UNL     1      47.214  20.516  21.050  0.00  0.00    +0.506 C 
ATOM     26  O   UNL     1      48.057  21.249  20.561  0.00  0.00    -0.676 OA
ATOM     27  O   UNL     1      47.322  20.151  22.208  0.00  0.00    -0.707 OA
ENDBRANCH  24  25
BRANCH   9  10
ATOM     10  O   UNL     1      45.048  12.339  18.451  0.00  0.00    -0.582 OA
ATOM     11  H   UNL     1      45.625  11.700  18.891  0.00  0.00    +0.366 HD
ENDBRANCH   9  10
BRANCH  21  22
ATOM     22  O   UNL     1      45.425  19.572  17.906  0.00  0.00    -0.558 OA
ATOM     23  H   UNL     1      45.693  19.424  16.988  0.00  0.00    +0.358 HD
ENDBRANCH  21  22
TORSDOF 4
ENDMDL
MODEL 9
REMARK VINA RESULT:      -5.4      1.986      7.084
REMARK  Name = ZINC95486243
REMARK  10 active torsions:
REMARK  status: ('A' for Active; 'I' for Inactive)
REMARK    1  A    between atoms: C1_1  and  C2_2
REMARK    2  A    between atoms: C6_7  and  C30_41
REMARK    3  A    between atoms: C11_13  and  C23_30
REMARK    4  A    between atoms: C13_15  and  O3_29
REMARK    5  A    between atoms: C14_17  and  C22_26
REMARK    6  A    between atoms: C17_21  and  C20_24
REMARK    7  A    between atoms: C17_21  and  C21_25
REMARK    8  A    between atoms: C25_32  and  O6_40
REMARK    9  A    between atoms: C27_35  and  C28_36
REMARK   10  A    between atoms: C27_35  and  C29_37
REMARK                            x       y       z     vdW  Elec       q    Type
REMARK                         _______ _______ _______ _____ _____    ______ ____
ROOT
ATOM      1  C   UNL     1      48.806  16.121  22.499  0.00  0.00    +0.008 C 
ATOM      2  C   UNL     1      49.112  16.708  21.083  0.00  0.00    -0.023 C 
ATOM      3  C   UNL     1      48.861  18.207  21.212  0.00  0.00    +0.002 C 
ATOM      4  C   UNL     1      49.490  19.043  20.118  0.00  0.00    +0.010 C 
ATOM      5  C   UNL     1      50.958  18.748  19.852  0.00  0.00    +0.027 C 
ATOM      6  C   UNL     1      51.342  17.294  19.860  0.00  0.00    -0.013 C 
ATOM      7  C   UNL     1      52.808  17.235  20.423  0.00  0.00    -0.006 C 
ATOM      8  C   UNL     1      51.396  16.583  18.527  0.00  0.00    +0.037 C 
ATOM      9  C   UNL     1      51.188  17.339  17.245  0.00  0.00    +0.155 C 
ATOM     12  C   UNL     1      50.724  18.775  17.371  0.00  0.00    +0.014 C 
ATOM     13  C   UNL     1      51.367  19.471  18.565  0.00  0.00    -0.115 C 
ATOM     17  C   UNL     1      52.882  19.539  18.388  0.00  0.00    +0.021 C 
ATOM     18  C   UNL     1      48.174  16.032  20.093  0.00  0.00    +0.025 C 
ATOM     19  C   UNL     1      48.321  16.672  18.706  0.00  0.00    +0.019 C 
ATOM     20  C   UNL     1      46.721  16.243  20.499  0.00  0.00    -0.012 C 
ATOM     21  C   UNL     1      45.748  15.301  19.806  0.00  0.00    +0.177 C 
ATOM     24  C   UNL     1      46.134  13.843  19.991  0.00  0.00    -0.100 C 
ATOM     28  C   UNL     1      47.521  13.554  19.452  0.00  0.00    +0.060 C 
ATOM     29  C   UNL     1      47.546  13.513  17.928  0.00  0.00    +0.023 C 
ATOM     30  C   UNL     1      46.533  12.524  17.365  0.00  0.00    -0.055 C 
ATOM     31  C   UNL     1      46.545  12.634  15.826  0.00  0.00    +0.004 C 
ATOM     32  C   UNL     1      46.899  11.094  17.755  0.00  0.00    +0.008 C 
ATOM     33  C   UNL     1      45.135  12.871  17.865  0.00  0.00    +0.012 C 
ATOM     34  C   UNL     1      45.082  12.918  19.384  0.00  0.00    +0.016 C 
ATOM     35  C   UNL     1      48.520  14.582  19.941  0.00  0.00    -0.036 C 
ATOM     36  C   UNL     1      49.726  14.151  20.195  0.00  0.00    -0.104 C 
ATOM     37  C   UNL     1      50.879  14.957  20.671  0.00  0.00    +0.047 C 
ATOM     38  C   UNL     1      50.578  16.433  20.865  0.00  0.00    -0.008 C 
ENDROOT
BRANCH  13  14
ATOM     14  C   UNL     1      50.856  20.901  18.603  0.00  0.00    +0.506 C 
ATOM     15  O   UNL     1      51.394  21.720  19.328  0.00  0.00    -0.703 OA
ATOM     16  O   UNL     1      49.909  21.229  17.910  0.00  0.00    -0.704 OA
ENDBRANCH  13  14
BRANCH  24  25
ATOM     25  C   UNL     1      46.151  13.546  21.482  0.00  0.00    +0.506 C 
ATOM     26  O   UNL     1      45.283  14.006  22.205  0.00  0.00    -0.676 OA
ATOM     27  O   UNL     1      47.031  12.848  21.955  0.00  0.00    -0.707 OA
ENDBRANCH  24  25
BRANCH   9  10
ATOM     10  O   UNL     1      52.396  17.298  16.459  0.00  0.00    -0.582 OA
ATOM     11  H   UNL     1      52.246  17.356  15.506  0.00  0.00    +0.366 HD
ENDBRANCH   9  10
BRANCH  21  22
ATOM     22  O   UNL     1      45.606  15.635  18.431  0.00  0.00    -0.558 OA
ATOM     23  H   UNL     1      44.880  16.248  18.248  0.00  0.00    +0.358 HD
ENDBRANCH  21  22
TORSDOF 4
ENDMDL
