MODEL 1
REMARK VINA RESULT:      -5.1      0.000      0.000
REMARK  Name = ZINC14684215
REMARK  2 active torsions:
REMARK  status: ('A' for Active; 'I' for Inactive)
REMARK    1  A    between atoms: C1_1  and  O1_2
REMARK    2  A    between atoms: O1_2  and  C2_3
REMARK                            x       y       z     vdW  Elec       q    Type
REMARK                         _______ _______ _______ _____ _____    ______ ____
ROOT
ATOM      3  C   UNL     1      41.160  20.798  18.638  0.00  0.00    +0.172 A 
ATOM      4  C   UNL     1      41.901  19.676  18.998  0.00  0.00    -0.096 A 
ATOM      5  C   UNL     1      43.113  19.822  19.634  0.00  0.00    +0.120 A 
ATOM      6  C   UNL     1      43.600  21.097  19.917  0.00  0.00    -0.148 A 
ATOM      7  C   UNL     1      44.824  21.593  20.566  0.00  0.00    -0.057 A 
ATOM      8  C   UNL     1      45.944  20.989  21.136  0.00  0.00    +0.021 A 
ATOM      9  C   UNL     1      46.931  21.791  21.668  0.00  0.00    +0.222 A 
ATOM     10  N   UNL     1      46.824  23.107  21.644  0.00  0.00    -0.457 NA
ATOM     11  C   UNL     1      45.785  23.724  21.117  0.00  0.00    +0.255 A 
ATOM     12  C   UNL     1      44.743  22.996  20.557  0.00  0.00    +0.080 A 
ATOM     13  N   UNL     1      43.558  23.358  19.943  0.00  0.00    -0.605 N 
ATOM     14  H   UNL     1      43.260  24.271  19.807  0.00  0.00    +0.422 HD
ATOM     15  C   UNL     1      42.855  22.231  19.556  0.00  0.00    +0.189 A 
ATOM     16  C   UNL     1      41.631  22.068  18.915  0.00  0.00    -0.051 A 
ENDROOT
BRANCH   3   2
ATOM      1  C   UNL     1      38.883  21.461  18.464  0.00  0.00    +0.247 C 
ATOM      2  O   UNL     1      39.965  20.644  18.011  0.00  0.00    -0.314 OA
ENDBRANCH   3   2
TORSDOF 1
ENDMDL
MODEL 2
REMARK VINA RESULT:      -5.1      2.654      5.436
REMARK  Name = ZINC14684215
REMARK  2 active torsions:
REMARK  status: ('A' for Active; 'I' for Inactive)
REMARK    1  A    between atoms: C1_1  and  O1_2
REMARK    2  A    between atoms: O1_2  and  C2_3
REMARK                            x       y       z     vdW  Elec       q    Type
REMARK                         _______ _______ _______ _____ _____    ______ ____
ROOT
ATOM      3  C   UNL     1      46.133  22.466  21.394  0.00  0.00    +0.172 A 
ATOM      4  C   UNL     1      46.019  21.079  21.416  0.00  0.00    -0.096 A 
ATOM      5  C   UNL     1      44.935  20.464  20.831  0.00  0.00    +0.120 A 
ATOM      6  C   UNL     1      43.949  21.233  20.215  0.00  0.00    -0.148 A 
ATOM      7  C   UNL     1      42.697  20.904  19.516  0.00  0.00    -0.057 A 
ATOM      8  C   UNL     1      42.030  19.719  19.207  0.00  0.00    +0.021 A 
ATOM      9  C   UNL     1      40.839  19.789  18.518  0.00  0.00    +0.222 A 
ATOM     10  N   UNL     1      40.332  20.953  18.153  0.00  0.00    -0.457 NA
ATOM     11  C   UNL     1      40.925  22.099  18.421  0.00  0.00    +0.255 A 
ATOM     12  C   UNL     1      42.129  22.125  19.113  0.00  0.00    +0.080 A 
ATOM     13  N   UNL     1      42.959  23.148  19.531  0.00  0.00    -0.605 N 
ATOM     14  H   UNL     1      42.796  24.092  19.379  0.00  0.00    +0.422 HD
ATOM     15  C   UNL     1      44.060  22.633  20.191  0.00  0.00    +0.189 A 
ATOM     16  C   UNL     1      45.162  23.240  20.785  0.00  0.00    -0.051 A 
ENDROOT
BRANCH   3   2
ATOM      1  C   UNL     1      48.218  22.206  22.505  0.00  0.00    +0.247 C 
ATOM      2  O   UNL     1      47.206  23.064  21.975  0.00  0.00    -0.314 OA
ENDBRANCH   3   2
TORSDOF 1
ENDMDL
MODEL 3
REMARK VINA RESULT:      -5.0     21.083     22.450
REMARK  Name = ZINC14684215
REMARK  2 active torsions:
REMARK  status: ('A' for Active; 'I' for Inactive)
REMARK    1  A    between atoms: C1_1  and  O1_2
REMARK    2  A    between atoms: O1_2  and  C2_3
REMARK                            x       y       z     vdW  Elec       q    Type
REMARK                         _______ _______ _______ _____ _____    ______ ____
ROOT
ATOM      3  C   UNL     1      57.613  32.661   4.456  0.00  0.00    +0.172 A 
ATOM      4  C   UNL     1      56.699  32.006   3.636  0.00  0.00    -0.096 A 
ATOM      5  C   UNL     1      55.349  32.116   3.879  0.00  0.00    +0.120 A 
ATOM      6  C   UNL     1      54.895  32.885   4.949  0.00  0.00    -0.148 A 
ATOM      7  C   UNL     1      53.558  33.203   5.473  0.00  0.00    -0.057 A 
ATOM      8  C   UNL     1      52.256  32.864   5.106  0.00  0.00    +0.021 A 
ATOM      9  C   UNL     1      51.207  33.360   5.850  0.00  0.00    +0.222 A 
ATOM     10  N   UNL     1      51.423  34.143   6.893  0.00  0.00    -0.457 NA
ATOM     11  C   UNL     1      52.634  34.491   7.277  0.00  0.00    +0.255 A 
ATOM     12  C   UNL     1      53.752  34.038   6.587  0.00  0.00    +0.080 A 
ATOM     13  N   UNL     1      55.110  34.227   6.756  0.00  0.00    -0.605 N 
ATOM     14  H   UNL     1      55.513  34.765   7.456  0.00  0.00    +0.422 HD
ATOM     15  C   UNL     1      55.815  33.547   5.779  0.00  0.00    +0.189 A 
ATOM     16  C   UNL     1      57.176  33.427   5.520  0.00  0.00    -0.051 A 
ENDROOT
BRANCH   3   2
ATOM      1  C   UNL     1      59.338  31.620   3.194  0.00  0.00    +0.247 C 
ATOM      2  O   UNL     1      58.944  32.546   4.209  0.00  0.00    -0.314 OA
ENDBRANCH   3   2
TORSDOF 1
ENDMDL
MODEL 4
REMARK VINA RESULT:      -4.9      2.931      3.596
REMARK  Name = ZINC14684215
REMARK  2 active torsions:
REMARK  status: ('A' for Active; 'I' for Inactive)
REMARK    1  A    between atoms: C1_1  and  O1_2
REMARK    2  A    between atoms: O1_2  and  C2_3
REMARK                            x       y       z     vdW  Elec       q    Type
REMARK                         _______ _______ _______ _____ _____    ______ ____
ROOT
ATOM      3  C   UNL     1      42.453  21.439  19.107  0.00  0.00    +0.172 A 
ATOM      4  C   UNL     1      43.356  22.373  19.607  0.00  0.00    -0.096 A 
ATOM      5  C   UNL     1      44.705  22.096  19.615  0.00  0.00    +0.120 A 
ATOM      6  C   UNL     1      45.167  20.878  19.119  0.00  0.00    -0.148 A 
ATOM      7  C   UNL     1      46.505  20.281  18.984  0.00  0.00    -0.057 A 
ATOM      8  C   UNL     1      47.799  20.699  19.293  0.00  0.00    +0.021 A 
ATOM      9  C   UNL     1      48.852  19.852  19.020  0.00  0.00    +0.222 A 
ATOM     10  N   UNL     1      48.646  18.666  18.475  0.00  0.00    -0.457 NA
ATOM     11  C   UNL     1      47.443  18.228  18.165  0.00  0.00    +0.255 A 
ATOM     12  C   UNL     1      46.323  19.013  18.405  0.00  0.00    +0.080 A 
ATOM     13  N   UNL     1      44.970  18.823  18.196  0.00  0.00    -0.605 N 
ATOM     14  H   UNL     1      44.575  18.026  17.807  0.00  0.00    +0.422 HD
ATOM     15  C   UNL     1      44.259  19.934  18.614  0.00  0.00    +0.189 A 
ATOM     16  C   UNL     1      42.899  20.228  18.613  0.00  0.00    -0.051 A 
ENDROOT
BRANCH   3   2
ATOM      1  C   UNL     1      40.283  20.878  18.316  0.00  0.00    +0.247 C 
ATOM      2  O   UNL     1      41.124  21.721  19.106  0.00  0.00    -0.314 OA
ENDBRANCH   3   2
TORSDOF 1
ENDMDL
MODEL 5
REMARK VINA RESULT:      -4.8      3.395      4.283
REMARK  Name = ZINC14684215
REMARK  2 active torsions:
REMARK  status: ('A' for Active; 'I' for Inactive)
REMARK    1  A    between atoms: C1_1  and  O1_2
REMARK    2  A    between atoms: O1_2  and  C2_3
REMARK                            x       y       z     vdW  Elec       q    Type
REMARK                         _______ _______ _______ _____ _____    ______ ____
ROOT
ATOM      3  C   UNL     1      41.657  20.583  19.253  0.00  0.00    +0.172 A 
ATOM      4  C   UNL     1      40.949  19.926  20.256  0.00  0.00    -0.096 A 
ATOM      5  C   UNL     1      41.541  18.908  20.968  0.00  0.00    +0.120 A 
ATOM      6  C   UNL     1      42.854  18.534  20.685  0.00  0.00    -0.148 A 
ATOM      7  C   UNL     1      43.759  17.516  21.241  0.00  0.00    -0.057 A 
ATOM      8  C   UNL     1      43.653  16.555  22.245  0.00  0.00    +0.021 A 
ATOM      9  C   UNL     1      44.739  15.745  22.505  0.00  0.00    +0.222 A 
ATOM     10  N   UNL     1      45.861  15.873  21.820  0.00  0.00    -0.457 NA
ATOM     11  C   UNL     1      46.009  16.766  20.863  0.00  0.00    +0.255 A 
ATOM     12  C   UNL     1      44.968  17.624  20.532  0.00  0.00    +0.080 A 
ATOM     13  N   UNL     1      44.833  18.632  19.595  0.00  0.00    -0.605 N 
ATOM     14  H   UNL     1      45.525  18.909  18.974  0.00  0.00    +0.422 HD
ATOM     15  C   UNL     1      43.571  19.194  19.675  0.00  0.00    +0.189 A 
ATOM     16  C   UNL     1      42.960  20.222  18.964  0.00  0.00    -0.051 A 
ENDROOT
BRANCH   3   2
ATOM      1  C   UNL     1      39.645  21.517  18.399  0.00  0.00    +0.247 C 
ATOM      2  O   UNL     1      41.064  21.585  18.555  0.00  0.00    -0.314 OA
ENDBRANCH   3   2
TORSDOF 1
ENDMDL
MODEL 6
REMARK VINA RESULT:      -4.6      1.252      2.111
REMARK  Name = ZINC14684215
REMARK  2 active torsions:
REMARK  status: ('A' for Active; 'I' for Inactive)
REMARK    1  A    between atoms: C1_1  and  O1_2
REMARK    2  A    between atoms: O1_2  and  C2_3
REMARK                            x       y       z     vdW  Elec       q    Type
REMARK                         _______ _______ _______ _____ _____    ______ ____
ROOT
ATOM      3  C   UNL     1      41.537  20.950  18.746  0.00  0.00    +0.172 A 
ATOM      4  C   UNL     1      41.814  22.311  18.842  0.00  0.00    -0.096 A 
ATOM      5  C   UNL     1      42.957  22.742  19.477  0.00  0.00    +0.120 A 
ATOM      6  C   UNL     1      43.840  21.813  20.025  0.00  0.00    -0.148 A 
ATOM      7  C   UNL     1      45.114  21.932  20.750  0.00  0.00    -0.057 A 
ATOM      8  C   UNL     1      45.912  23.000  21.158  0.00  0.00    +0.021 A 
ATOM      9  C   UNL     1      47.080  22.732  21.840  0.00  0.00    +0.222 A 
ATOM     10  N   UNL     1      47.443  21.489  22.104  0.00  0.00    -0.457 NA
ATOM     11  C   UNL     1      46.723  20.448  21.739  0.00  0.00    +0.255 A 
ATOM     12  C   UNL     1      45.530  20.623  21.048  0.00  0.00    +0.080 A 
ATOM     13  N   UNL     1      44.585  19.744  20.552  0.00  0.00    -0.605 N 
ATOM     14  H   UNL     1      44.634  18.778  20.625  0.00  0.00    +0.422 HD
ATOM     15  C   UNL     1      43.564  20.439  19.929  0.00  0.00    +0.189 A 
ATOM     16  C   UNL     1      42.405  20.019  19.284  0.00  0.00    -0.051 A 
ENDROOT
BRANCH   3   2
ATOM      1  C   UNL     1      39.214  21.284  18.364  0.00  0.00    +0.247 C 
ATOM      2  O   UNL     1      40.406  20.535  18.118  0.00  0.00    -0.314 OA
ENDBRANCH   3   2
TORSDOF 1
ENDMDL
MODEL 7
REMARK VINA RESULT:      -4.6      4.442      5.673
REMARK  Name = ZINC14684215
REMARK  2 active torsions:
REMARK  status: ('A' for Active; 'I' for Inactive)
REMARK    1  A    between atoms: C1_1  and  O1_2
REMARK    2  A    between atoms: O1_2  and  C2_3
REMARK                            x       y       z     vdW  Elec       q    Type
REMARK                         _______ _______ _______ _____ _____    ______ ____
ROOT
ATOM      3  C   UNL     1      44.073  20.654  19.893  0.00  0.00    +0.172 A 
ATOM      4  C   UNL     1      43.755  19.703  20.858  0.00  0.00    -0.096 A 
ATOM      5  C   UNL     1      44.152  18.394  20.698  0.00  0.00    +0.120 A 
ATOM      6  C   UNL     1      44.875  18.021  19.565  0.00  0.00    -0.148 A 
ATOM      7  C   UNL     1      45.436  16.745  19.098  0.00  0.00    -0.057 A 
ATOM      8  C   UNL     1      45.460  15.443  19.598  0.00  0.00    +0.021 A 
ATOM      9  C   UNL     1      46.099  14.464  18.868  0.00  0.00    +0.222 A 
ATOM     10  N   UNL     1      46.680  14.745  17.715  0.00  0.00    -0.457 NA
ATOM     11  C   UNL     1      46.684  15.959  17.202  0.00  0.00    +0.255 A 
ATOM     12  C   UNL     1      46.064  17.009  17.868  0.00  0.00    +0.080 A 
ATOM     13  N   UNL     1      45.905  18.351  17.580  0.00  0.00    -0.605 N 
ATOM     14  H   UNL     1      46.245  18.792  16.786  0.00  0.00    +0.422 HD
ATOM     15  C   UNL     1      45.197  18.978  18.590  0.00  0.00    +0.189 A 
ATOM     16  C   UNL     1      44.790  20.297  18.766  0.00  0.00    -0.051 A 
ENDROOT
BRANCH   3   2
ATOM      1  C   UNL     1      44.580  22.962  19.626  0.00  0.00    +0.247 C 
ATOM      2  O   UNL     1      43.676  21.942  20.060  0.00  0.00    -0.314 OA
ENDBRANCH   3   2
TORSDOF 1
ENDMDL
MODEL 8
REMARK VINA RESULT:      -4.6      4.411      6.426
REMARK  Name = ZINC14684215
REMARK  2 active torsions:
REMARK  status: ('A' for Active; 'I' for Inactive)
REMARK    1  A    between atoms: C1_1  and  O1_2
REMARK    2  A    between atoms: O1_2  and  C2_3
REMARK                            x       y       z     vdW  Elec       q    Type
REMARK                         _______ _______ _______ _____ _____    ______ ____
ROOT
ATOM      3  C   UNL     1      49.022  18.561  18.330  0.00  0.00    +0.172 A 
ATOM      4  C   UNL     1      49.220  19.815  18.900  0.00  0.00    -0.096 A 
ATOM      5  C   UNL     1      48.142  20.614  19.206  0.00  0.00    +0.120 A 
ATOM      6  C   UNL     1      46.848  20.167  18.944  0.00  0.00    -0.148 A 
ATOM      7  C   UNL     1      45.514  20.754  19.142  0.00  0.00    -0.057 A 
ATOM      8  C   UNL     1      45.041  21.960  19.658  0.00  0.00    +0.021 A 
ATOM      9  C   UNL     1      43.681  22.179  19.691  0.00  0.00    +0.222 A 
ATOM     10  N   UNL     1      42.834  21.268  19.243  0.00  0.00    -0.457 NA
ATOM     11  C   UNL     1      43.233  20.115  18.747  0.00  0.00    +0.255 A 
ATOM     12  C   UNL     1      44.586  19.807  18.674  0.00  0.00    +0.080 A 
ATOM     13  N   UNL     1      45.284  18.708  18.211  0.00  0.00    -0.605 N 
ATOM     14  H   UNL     1      44.878  17.911  17.835  0.00  0.00    +0.422 HD
ATOM     15  C   UNL     1      46.644  18.902  18.369  0.00  0.00    +0.189 A 
ATOM     16  C   UNL     1      47.744  18.105  18.066  0.00  0.00    -0.051 A 
ENDROOT
BRANCH   3   2
ATOM      1  C   UNL     1      50.769  18.048  16.802  0.00  0.00    +0.247 C 
ATOM      2  O   UNL     1      50.092  17.779  18.031  0.00  0.00    -0.314 OA
ENDBRANCH   3   2
TORSDOF 1
ENDMDL
MODEL 9
REMARK VINA RESULT:      -4.5     21.206     22.566
REMARK  Name = ZINC14684215
REMARK  2 active torsions:
REMARK  status: ('A' for Active; 'I' for Inactive)
REMARK    1  A    between atoms: C1_1  and  O1_2
REMARK    2  A    between atoms: O1_2  and  C2_3
REMARK                            x       y       z     vdW  Elec       q    Type
REMARK                         _______ _______ _______ _____ _____    ______ ____
ROOT
ATOM      3  C   UNL     1      57.550  32.311   4.015  0.00  0.00    +0.172 A 
ATOM      4  C   UNL     1      57.596  33.042   5.199  0.00  0.00    -0.096 A 
ATOM      5  C   UNL     1      56.430  33.448   5.807  0.00  0.00    +0.120 A 
ATOM      6  C   UNL     1      55.199  33.125   5.237  0.00  0.00    -0.148 A 
ATOM      7  C   UNL     1      53.805  33.395   5.618  0.00  0.00    -0.057 A 
ATOM      8  C   UNL     1      53.190  34.065   6.676  0.00  0.00    +0.021 A 
ATOM      9  C   UNL     1      51.814  34.123   6.713  0.00  0.00    +0.222 A 
ATOM     10  N   UNL     1      51.083  33.557   5.769  0.00  0.00    -0.457 NA
ATOM     11  C   UNL     1      51.617  32.913   4.751  0.00  0.00    +0.255 A 
ATOM     12  C   UNL     1      52.997  32.804   4.631  0.00  0.00    +0.080 A 
ATOM     13  N   UNL     1      53.822  32.210   3.695  0.00  0.00    -0.605 N 
ATOM     14  H   UNL     1      53.515  31.732   2.908  0.00  0.00    +0.422 HD
ATOM     15  C   UNL     1      55.149  32.387   4.043  0.00  0.00    +0.189 A 
ATOM     16  C   UNL     1      56.336  31.984   3.440  0.00  0.00    -0.051 A 
ENDROOT
BRANCH   3   2
ATOM      1  C   UNL     1      59.140  30.577   3.671  0.00  0.00    +0.247 C 
ATOM      2  O   UNL     1      58.706  31.916   3.421  0.00  0.00    -0.314 OA
ENDBRANCH   3   2
TORSDOF 1
ENDMDL
