MODEL 1
REMARK VINA RESULT:      -6.2      0.000      0.000
REMARK  Name = ZINC95485915
REMARK  8 active torsions:
REMARK  status: ('A' for Active; 'I' for Inactive)
REMARK    1  A    between atoms: C1_1  and  C2_2
REMARK    2  A    between atoms: C2_2  and  C19_24
REMARK    3  A    between atoms: C3_3  and  C4_4
REMARK    4  A    between atoms: C4_4  and  C5_5
REMARK    5  A    between atoms: C6_6  and  O5_23
REMARK    6  A    between atoms: C10_10  and  O1_11
REMARK    7  A    between atoms: C14_16  and  O4_21
REMARK    8  A    between atoms: O4_21  and  C18_22
REMARK                            x       y       z     vdW  Elec       q    Type
REMARK                         _______ _______ _______ _____ _____    ______ ____
ROOT
ATOM      6  C   UNL     1      43.931  18.728  20.174  0.00  0.00    -0.164 A 
ATOM      7  C   UNL     1      43.735  17.827  21.215  0.00  0.00    +0.198 A 
ATOM     10  C   UNL     1      44.332  16.576  21.192  0.00  0.00    -0.032 A 
ATOM     11  C   UNL     1      45.133  16.204  20.122  0.00  0.00    +0.192 A 
ATOM     12  C   UNL     1      45.323  17.111  19.064  0.00  0.00    -0.267 A 
ATOM     13  C   UNL     1      46.157  16.695  17.923  0.00  0.00    +0.443 A 
ATOM     14  C   UNL     1      46.489  15.255  17.857  0.00  0.00    -0.182 A 
ATOM     15  C   UNL     1      47.039  14.698  16.704  0.00  0.00    +0.087 A 
ATOM     16  C   UNL     1      47.334  13.347  16.673  0.00  0.00    +0.102 A 
ATOM     19  C   UNL     1      47.081  12.555  17.789  0.00  0.00    +0.003 A 
ATOM     20  C   UNL     1      46.539  13.101  18.931  0.00  0.00    +0.050 A 
ATOM     21  C   UNL     1      46.238  14.458  18.984  0.00  0.00    +0.117 A 
ATOM     22  O   UNL     1      46.548  17.488  17.085  0.00  0.00    -0.429 OA
ATOM     23  O   UNL     1      45.719  14.990  20.110  0.00  0.00    -0.223 OA
ATOM     24  C   UNL     1      44.720  18.376  19.096  0.00  0.00    +0.222 A 
ENDROOT
BRANCH   7   8
ATOM      8  O   UNL     1      42.951  18.177  22.266  0.00  0.00    -0.484 OA
ATOM      9  H   UNL     1      42.153  17.638  22.357  0.00  0.00    +0.401 HD
ENDBRANCH   7   8
BRANCH  16  17
ATOM     17  O   UNL     1      47.870  12.793  15.553  0.00  0.00    -0.311 OA
ATOM     18  C   UNL     1      47.258  11.599  15.063  0.00  0.00    +0.246 C 
ENDBRANCH  16  17
BRANCH  24  25
ATOM     25  O   UNL     1      44.914  19.250  18.075  0.00  0.00    -0.472 OA
ATOM     26  H   UNL     1      44.756  20.174  18.313  0.00  0.00    +0.403 HD
ENDBRANCH  24  25
BRANCH   6   5
ATOM      5  C   UNL     1      43.277  20.085  20.219  0.00  0.00    +0.132 C 
BRANCH   5   4
ATOM      1  C   UNL     1      42.205  22.403  19.023  0.00  0.00    +0.076 C 
ATOM      2  C   UNL     1      41.423  21.114  19.010  0.00  0.00    -0.129 C 
ATOM      3  C   UNL     1      40.040  21.080  18.413  0.00  0.00    +0.073 C 
ATOM      4  C   UNL     1      41.945  20.025  19.518  0.00  0.00    -0.052 C 
ENDBRANCH   5   4
ENDBRANCH   6   5
TORSDOF 5
ENDMDL
MODEL 2
REMARK VINA RESULT:      -6.1      3.781      7.949
REMARK  Name = ZINC95485915
REMARK  8 active torsions:
REMARK  status: ('A' for Active; 'I' for Inactive)
REMARK    1  A    between atoms: C1_1  and  C2_2
REMARK    2  A    between atoms: C2_2  and  C19_24
REMARK    3  A    between atoms: C3_3  and  C4_4
REMARK    4  A    between atoms: C4_4  and  C5_5
REMARK    5  A    between atoms: C6_6  and  O5_23
REMARK    6  A    between atoms: C10_10  and  O1_11
REMARK    7  A    between atoms: C14_16  and  O4_21
REMARK    8  A    between atoms: O4_21  and  C18_22
REMARK                            x       y       z     vdW  Elec       q    Type
REMARK                         _______ _______ _______ _____ _____    ______ ____
ROOT
ATOM      6  C   UNL     1      48.942  19.220  19.130  0.00  0.00    -0.164 A 
ATOM      7  C   UNL     1      49.110  20.479  19.695  0.00  0.00    +0.198 A 
ATOM     10  C   UNL     1      48.014  21.265  20.014  0.00  0.00    -0.032 A 
ATOM     11  C   UNL     1      46.728  20.804  19.768  0.00  0.00    +0.192 A 
ATOM     12  C   UNL     1      46.559  19.534  19.187  0.00  0.00    -0.267 A 
ATOM     13  C   UNL     1      45.190  19.066  18.910  0.00  0.00    +0.443 A 
ATOM     14  C   UNL     1      44.126  20.090  19.004  0.00  0.00    -0.182 A 
ATOM     15  C   UNL     1      42.845  19.840  18.515  0.00  0.00    +0.087 A 
ATOM     16  C   UNL     1      41.874  20.820  18.614  0.00  0.00    +0.102 A 
ATOM     19  C   UNL     1      42.179  22.044  19.200  0.00  0.00    +0.003 A 
ATOM     20  C   UNL     1      43.443  22.295  19.687  0.00  0.00    +0.050 A 
ATOM     21  C   UNL     1      44.434  21.322  19.600  0.00  0.00    +0.117 A 
ATOM     22  O   UNL     1      44.950  17.908  18.619  0.00  0.00    -0.429 OA
ATOM     23  O   UNL     1      45.666  21.569  20.090  0.00  0.00    -0.223 OA
ATOM     24  C   UNL     1      47.671  18.743  18.871  0.00  0.00    +0.222 A 
ENDROOT
BRANCH   7   8
ATOM      8  O   UNL     1      50.362  20.943  19.938  0.00  0.00    -0.484 OA
ATOM      9  H   UNL     1      50.403  21.621  20.628  0.00  0.00    +0.401 HD
ENDBRANCH   7   8
BRANCH  16  17
ATOM     17  O   UNL     1      40.621  20.587  18.139  0.00  0.00    -0.311 OA
ATOM     18  C   UNL     1      39.593  21.488  18.552  0.00  0.00    +0.246 C 
ENDBRANCH  16  17
BRANCH  24  25
ATOM     25  O   UNL     1      47.500  17.515  18.318  0.00  0.00    -0.472 OA
ATOM     26  H   UNL     1      47.429  17.525  17.353  0.00  0.00    +0.403 HD
ENDBRANCH  24  25
BRANCH   6   5
ATOM      5  C   UNL     1      50.146  18.378  18.795  0.00  0.00    +0.132 C 
BRANCH   5   4
ATOM      1  C   UNL     1      52.739  19.330  18.226  0.00  0.00    +0.076 C 
ATOM      2  C   UNL     1      51.745  19.131  17.110  0.00  0.00    -0.129 C 
ATOM      3  C   UNL     1      52.116  19.499  15.697  0.00  0.00    +0.073 C 
ATOM      4  C   UNL     1      50.559  18.636  17.369  0.00  0.00    -0.052 C 
ENDBRANCH   5   4
ENDBRANCH   6   5
TORSDOF 5
ENDMDL
MODEL 3
REMARK VINA RESULT:      -5.9      1.683      2.231
REMARK  Name = ZINC95485915
REMARK  8 active torsions:
REMARK  status: ('A' for Active; 'I' for Inactive)
REMARK    1  A    between atoms: C1_1  and  C2_2
REMARK    2  A    between atoms: C2_2  and  C19_24
REMARK    3  A    between atoms: C3_3  and  C4_4
REMARK    4  A    between atoms: C4_4  and  C5_5
REMARK    5  A    between atoms: C6_6  and  O5_23
REMARK    6  A    between atoms: C10_10  and  O1_11
REMARK    7  A    between atoms: C14_16  and  O4_21
REMARK    8  A    between atoms: O4_21  and  C18_22
REMARK                            x       y       z     vdW  Elec       q    Type
REMARK                         _______ _______ _______ _____ _____    ______ ____
ROOT
ATOM      6  C   UNL     1      44.050  19.797  20.121  0.00  0.00    -0.164 A 
ATOM      7  C   UNL     1      43.467  19.040  21.131  0.00  0.00    +0.198 A 
ATOM     10  C   UNL     1      43.742  17.687  21.251  0.00  0.00    -0.032 A 
ATOM     11  C   UNL     1      44.604  17.067  20.358  0.00  0.00    +0.192 A 
ATOM     12  C   UNL     1      45.185  17.830  19.330  0.00  0.00    -0.267 A 
ATOM     13  C   UNL     1      46.080  17.155  18.373  0.00  0.00    +0.443 A 
ATOM     14  C   UNL     1      46.064  15.676  18.408  0.00  0.00    -0.182 A 
ATOM     15  C   UNL     1      46.656  14.929  17.391  0.00  0.00    +0.087 A 
ATOM     16  C   UNL     1      46.620  13.548  17.451  0.00  0.00    +0.102 A 
ATOM     19  C   UNL     1      45.996  12.914  18.521  0.00  0.00    +0.003 A 
ATOM     20  C   UNL     1      45.410  13.648  19.529  0.00  0.00    +0.050 A 
ATOM     21  C   UNL     1      45.439  15.039  19.490  0.00  0.00    +0.117 A 
ATOM     22  O   UNL     1      46.787  17.777  17.602  0.00  0.00    -0.429 OA
ATOM     23  O   UNL     1      44.875  15.752  20.486  0.00  0.00    -0.223 OA
ATOM     24  C   UNL     1      44.906  19.199  19.216  0.00  0.00    +0.222 A 
ENDROOT
BRANCH   7   8
ATOM      8  O   UNL     1      42.619  19.633  22.010  0.00  0.00    -0.484 OA
ATOM      9  H   UNL     1      41.684  19.531  21.785  0.00  0.00    +0.401 HD
ENDBRANCH   7   8
BRANCH  16  17
ATOM     17  O   UNL     1      47.193  12.809  16.464  0.00  0.00    -0.311 OA
ATOM     18  C   UNL     1      46.549  11.583  16.113  0.00  0.00    +0.246 C 
ENDBRANCH  16  17
BRANCH  24  25
ATOM     25  O   UNL     1      45.477  19.932  18.226  0.00  0.00    -0.472 OA
ATOM     26  H   UNL     1      45.825  19.402  17.496  0.00  0.00    +0.403 HD
ENDBRANCH  24  25
BRANCH   6   5
ATOM      5  C   UNL     1      43.742  21.268  20.009  0.00  0.00    +0.132 C 
BRANCH   5   4
ATOM      1  C   UNL     1      44.523  23.863  19.231  0.00  0.00    +0.076 C 
ATOM      2  C   UNL     1      45.114  23.234  20.467  0.00  0.00    -0.129 C 
ATOM      3  C   UNL     1      46.170  23.968  21.253  0.00  0.00    +0.073 C 
ATOM      4  C   UNL     1      44.710  22.051  20.857  0.00  0.00    -0.052 C 
ENDBRANCH   5   4
ENDBRANCH   6   5
TORSDOF 5
ENDMDL
MODEL 4
REMARK VINA RESULT:      -5.6      4.039      5.214
REMARK  Name = ZINC95485915
REMARK  8 active torsions:
REMARK  status: ('A' for Active; 'I' for Inactive)
REMARK    1  A    between atoms: C1_1  and  C2_2
REMARK    2  A    between atoms: C2_2  and  C19_24
REMARK    3  A    between atoms: C3_3  and  C4_4
REMARK    4  A    between atoms: C4_4  and  C5_5
REMARK    5  A    between atoms: C6_6  and  O5_23
REMARK    6  A    between atoms: C10_10  and  O1_11
REMARK    7  A    between atoms: C14_16  and  O4_21
REMARK    8  A    between atoms: O4_21  and  C18_22
REMARK                            x       y       z     vdW  Elec       q    Type
REMARK                         _______ _______ _______ _____ _____    ______ ____
ROOT
ATOM      6  C   UNL     1      44.682  20.347  19.095  0.00  0.00    -0.164 A 
ATOM      7  C   UNL     1      44.930  21.422  19.941  0.00  0.00    +0.198 A 
ATOM     10  C   UNL     1      46.219  21.715  20.357  0.00  0.00    -0.032 A 
ATOM     11  C   UNL     1      47.284  20.931  19.936  0.00  0.00    +0.192 A 
ATOM     12  C   UNL     1      47.032  19.836  19.090  0.00  0.00    -0.267 A 
ATOM     13  C   UNL     1      48.169  18.997  18.670  0.00  0.00    +0.443 A 
ATOM     14  C   UNL     1      49.435  19.211  19.404  0.00  0.00    -0.182 A 
ATOM     15  C   UNL     1      50.493  18.312  19.285  0.00  0.00    +0.087 A 
ATOM     16  C   UNL     1      51.662  18.538  19.989  0.00  0.00    +0.102 A 
ATOM     19  C   UNL     1      51.775  19.657  20.808  0.00  0.00    +0.003 A 
ATOM     20  C   UNL     1      50.733  20.550  20.927  0.00  0.00    +0.050 A 
ATOM     21  C   UNL     1      49.550  20.342  20.226  0.00  0.00    +0.117 A 
ATOM     22  O   UNL     1      48.070  18.179  17.774  0.00  0.00    -0.429 OA
ATOM     23  O   UNL     1      48.537  21.227  20.337  0.00  0.00    -0.223 OA
ATOM     24  C   UNL     1      45.727  19.548  18.669  0.00  0.00    +0.222 A 
ENDROOT
BRANCH   7   8
ATOM      8  O   UNL     1      43.897  22.196  20.362  0.00  0.00    -0.484 OA
ATOM      9  H   UNL     1      44.162  22.925  20.939  0.00  0.00    +0.401 HD
ENDBRANCH   7   8
BRANCH  16  17
ATOM     17  O   UNL     1      52.700  17.666  19.880  0.00  0.00    -0.311 OA
ATOM     18  C   UNL     1      52.489  16.502  19.079  0.00  0.00    +0.246 C 
ENDBRANCH  16  17
BRANCH  24  25
ATOM     25  O   UNL     1      45.492  18.495  17.846  0.00  0.00    -0.472 OA
ATOM     26  H   UNL     1      46.034  18.494  17.045  0.00  0.00    +0.403 HD
ENDBRANCH  24  25
BRANCH   6   5
ATOM      5  C   UNL     1      43.274  20.047  18.650  0.00  0.00    +0.132 C 
BRANCH   5   4
ATOM      1  C   UNL     1      40.610  20.671  19.329  0.00  0.00    +0.076 C 
ATOM      2  C   UNL     1      41.345  19.587  20.074  0.00  0.00    -0.129 C 
ATOM      3  C   UNL     1      40.678  18.877  21.223  0.00  0.00    +0.073 C 
ATOM      4  C   UNL     1      42.564  19.260  19.721  0.00  0.00    -0.052 C 
ENDBRANCH   5   4
ENDBRANCH   6   5
TORSDOF 5
ENDMDL
MODEL 5
REMARK VINA RESULT:      -5.5      2.108      7.601
REMARK  Name = ZINC95485915
REMARK  8 active torsions:
REMARK  status: ('A' for Active; 'I' for Inactive)
REMARK    1  A    between atoms: C1_1  and  C2_2
REMARK    2  A    between atoms: C2_2  and  C19_24
REMARK    3  A    between atoms: C3_3  and  C4_4
REMARK    4  A    between atoms: C4_4  and  C5_5
REMARK    5  A    between atoms: C6_6  and  O5_23
REMARK    6  A    between atoms: C10_10  and  O1_11
REMARK    7  A    between atoms: C14_16  and  O4_21
REMARK    8  A    between atoms: O4_21  and  C18_22
REMARK                            x       y       z     vdW  Elec       q    Type
REMARK                         _______ _______ _______ _____ _____    ______ ____
ROOT
ATOM      6  C   UNL     1      46.210  14.037  17.627  0.00  0.00    -0.164 A 
ATOM      7  C   UNL     1      46.678  14.730  16.517  0.00  0.00    +0.198 A 
ATOM     10  C   UNL     1      46.805  16.110  16.545  0.00  0.00    -0.032 A 
ATOM     11  C   UNL     1      46.462  16.821  17.686  0.00  0.00    +0.192 A 
ATOM     12  C   UNL     1      45.979  16.120  18.806  0.00  0.00    -0.267 A 
ATOM     13  C   UNL     1      45.596  16.888  20.004  0.00  0.00    +0.443 A 
ATOM     14  C   UNL     1      45.484  18.352  19.823  0.00  0.00    -0.182 A 
ATOM     15  C   UNL     1      44.881  19.150  20.794  0.00  0.00    +0.087 A 
ATOM     16  C   UNL     1      44.788  20.515  20.593  0.00  0.00    +0.102 A 
ATOM     19  C   UNL     1      45.295  21.082  19.428  0.00  0.00    +0.003 A 
ATOM     20  C   UNL     1      45.893  20.298  18.466  0.00  0.00    +0.050 A 
ATOM     21  C   UNL     1      46.000  18.923  18.650  0.00  0.00    +0.117 A 
ATOM     22  O   UNL     1      45.383  16.350  21.075  0.00  0.00    -0.429 OA
ATOM     23  O   UNL     1      46.598  18.162  17.711  0.00  0.00    -0.223 OA
ATOM     24  C   UNL     1      45.856  14.724  18.772  0.00  0.00    +0.222 A 
ENDROOT
BRANCH   7   8
ATOM      8  O   UNL     1      47.014  14.048  15.393  0.00  0.00    -0.484 OA
ATOM      9  H   UNL     1      46.616  13.169  15.333  0.00  0.00    +0.401 HD
ENDBRANCH   7   8
BRANCH  16  17
ATOM     17  O   UNL     1      44.201  21.303  21.533  0.00  0.00    -0.311 OA
ATOM     18  C   UNL     1      44.954  22.424  22.002  0.00  0.00    +0.246 C 
ENDBRANCH  16  17
BRANCH  24  25
ATOM     25  O   UNL     1      45.397  14.053  19.860  0.00  0.00    -0.472 OA
ATOM     26  H   UNL     1      46.095  13.739  20.451  0.00  0.00    +0.403 HD
ENDBRANCH  24  25
BRANCH   6   5
ATOM      5  C   UNL     1      46.082  12.536  17.580  0.00  0.00    +0.132 C 
BRANCH   5   4
ATOM      1  C   UNL     1      45.620  10.679  15.508  0.00  0.00    +0.076 C 
ATOM      2  C   UNL     1      44.458  11.342  16.203  0.00  0.00    -0.129 C 
ATOM      3  C   UNL     1      43.049  11.060  15.749  0.00  0.00    +0.073 C 
ATOM      4  C   UNL     1      44.673  12.163  17.201  0.00  0.00    -0.052 C 
ENDBRANCH   5   4
ENDBRANCH   6   5
TORSDOF 5
ENDMDL
MODEL 6
REMARK VINA RESULT:      -5.4      5.302      6.539
REMARK  Name = ZINC95485915
REMARK  8 active torsions:
REMARK  status: ('A' for Active; 'I' for Inactive)
REMARK    1  A    between atoms: C1_1  and  C2_2
REMARK    2  A    between atoms: C2_2  and  C19_24
REMARK    3  A    between atoms: C3_3  and  C4_4
REMARK    4  A    between atoms: C4_4  and  C5_5
REMARK    5  A    between atoms: C6_6  and  O5_23
REMARK    6  A    between atoms: C10_10  and  O1_11
REMARK    7  A    between atoms: C14_16  and  O4_21
REMARK    8  A    between atoms: O4_21  and  C18_22
REMARK                            x       y       z     vdW  Elec       q    Type
REMARK                         _______ _______ _______ _____ _____    ______ ____
ROOT
ATOM      6  C   UNL     1      51.088  17.169  18.241  0.00  0.00    -0.164 A 
ATOM      7  C   UNL     1      52.100  16.218  18.161  0.00  0.00    +0.198 A 
ATOM     10  C   UNL     1      51.836  14.940  17.692  0.00  0.00    -0.032 A 
ATOM     11  C   UNL     1      50.552  14.592  17.297  0.00  0.00    +0.192 A 
ATOM     12  C   UNL     1      49.527  15.551  17.387  0.00  0.00    -0.267 A 
ATOM     13  C   UNL     1      48.164  15.161  16.987  0.00  0.00    +0.443 A 
ATOM     14  C   UNL     1      47.937  13.711  16.795  0.00  0.00    -0.182 A 
ATOM     15  C   UNL     1      46.647  13.198  16.677  0.00  0.00    +0.087 A 
ATOM     16  C   UNL     1      46.469  11.837  16.503  0.00  0.00    +0.102 A 
ATOM     19  C   UNL     1      47.573  10.993  16.446  0.00  0.00    +0.003 A 
ATOM     20  C   UNL     1      48.850  11.496  16.561  0.00  0.00    +0.050 A 
ATOM     21  C   UNL     1      49.052  12.862  16.733  0.00  0.00    +0.117 A 
ATOM     22  O   UNL     1      47.279  15.982  16.826  0.00  0.00    -0.429 OA
ATOM     23  O   UNL     1      50.305  13.351  16.831  0.00  0.00    -0.223 OA
ATOM     24  C   UNL     1      49.801  16.841  17.859  0.00  0.00    +0.222 A 
ENDROOT
BRANCH   7   8
ATOM      8  O   UNL     1      53.359  16.544  18.547  0.00  0.00    -0.484 OA
ATOM      9  H   UNL     1      53.965  16.709  17.811  0.00  0.00    +0.401 HD
ENDBRANCH   7   8
BRANCH  16  17
ATOM     17  O   UNL     1      45.214  11.325  16.388  0.00  0.00    -0.311 OA
ATOM     18  C   UNL     1      44.979  10.421  15.306  0.00  0.00    +0.246 C 
ENDBRANCH  16  17
BRANCH  24  25
ATOM     25  O   UNL     1      48.809  17.765  17.936  0.00  0.00    -0.472 OA
ATOM     26  H   UNL     1      48.565  18.151  17.083  0.00  0.00    +0.403 HD
ENDBRANCH  24  25
BRANCH   6   5
ATOM      5  C   UNL     1      51.395  18.554  18.750  0.00  0.00    +0.132 C 
BRANCH   5   4
ATOM      1  C   UNL     1      50.192  21.075  18.370  0.00  0.00    +0.076 C 
ATOM      2  C   UNL     1      51.226  20.576  17.393  0.00  0.00    -0.129 C 
ATOM      3  C   UNL     1      51.572  21.398  16.178  0.00  0.00    +0.073 C 
ATOM      4  C   UNL     1      51.823  19.429  17.601  0.00  0.00    -0.052 C 
ENDBRANCH   5   4
ENDBRANCH   6   5
TORSDOF 5
ENDMDL
MODEL 7
REMARK VINA RESULT:      -5.3      3.551      8.208
REMARK  Name = ZINC95485915
REMARK  8 active torsions:
REMARK  status: ('A' for Active; 'I' for Inactive)
REMARK    1  A    between atoms: C1_1  and  C2_2
REMARK    2  A    between atoms: C2_2  and  C19_24
REMARK    3  A    between atoms: C3_3  and  C4_4
REMARK    4  A    between atoms: C4_4  and  C5_5
REMARK    5  A    between atoms: C6_6  and  O5_23
REMARK    6  A    between atoms: C10_10  and  O1_11
REMARK    7  A    between atoms: C14_16  and  O4_21
REMARK    8  A    between atoms: O4_21  and  C18_22
REMARK                            x       y       z     vdW  Elec       q    Type
REMARK                         _______ _______ _______ _____ _____    ______ ____
ROOT
ATOM      6  C   UNL     1      49.806  18.563  17.972  0.00  0.00    -0.164 A 
ATOM      7  C   UNL     1      50.217  19.767  18.533  0.00  0.00    +0.198 A 
ATOM     10  C   UNL     1      49.301  20.625  19.122  0.00  0.00    -0.032 A 
ATOM     11  C   UNL     1      47.954  20.292  19.155  0.00  0.00    +0.192 A 
ATOM     12  C   UNL     1      47.537  19.079  18.579  0.00  0.00    -0.267 A 
ATOM     13  C   UNL     1      46.101  18.748  18.600  0.00  0.00    +0.443 A 
ATOM     14  C   UNL     1      45.190  19.853  18.972  0.00  0.00    -0.182 A 
ATOM     15  C   UNL     1      43.815  19.744  18.776  0.00  0.00    +0.087 A 
ATOM     16  C   UNL     1      42.990  20.796  19.130  0.00  0.00    +0.102 A 
ATOM     19  C   UNL     1      43.535  21.952  19.679  0.00  0.00    +0.003 A 
ATOM     20  C   UNL     1      44.894  22.064  19.877  0.00  0.00    +0.050 A 
ATOM     21  C   UNL     1      45.741  21.015  19.530  0.00  0.00    +0.117 A 
ATOM     22  O   UNL     1      45.691  17.634  18.327  0.00  0.00    -0.429 OA
ATOM     23  O   UNL     1      47.069  21.125  19.738  0.00  0.00    -0.223 OA
ATOM     24  C   UNL     1      48.469  18.215  17.989  0.00  0.00    +0.222 A 
ENDROOT
BRANCH   7   8
ATOM      8  O   UNL     1      51.531  20.107  18.504  0.00  0.00    -0.484 OA
ATOM      9  H   UNL     1      51.780  20.769  19.164  0.00  0.00    +0.401 HD
ENDBRANCH   7   8
BRANCH  16  17
ATOM     17  O   UNL     1      41.646  20.701  18.941  0.00  0.00    -0.311 OA
ATOM     18  C   UNL     1      40.965  21.885  18.520  0.00  0.00    +0.246 C 
ENDBRANCH  16  17
BRANCH  24  25
ATOM     25  O   UNL     1      48.061  17.041  17.441  0.00  0.00    -0.472 OA
ATOM     26  H   UNL     1      47.128  16.839  17.596  0.00  0.00    +0.403 HD
ENDBRANCH  24  25
BRANCH   6   5
ATOM      5  C   UNL     1      50.818  17.642  17.341  0.00  0.00    +0.132 C 
BRANCH   5   4
ATOM      1  C   UNL     1      51.071  14.897  16.747  0.00  0.00    +0.076 C 
ATOM      2  C   UNL     1      51.417  15.408  18.122  0.00  0.00    -0.129 C 
ATOM      3  C   UNL     1      51.838  14.443  19.200  0.00  0.00    +0.073 C 
ATOM      4  C   UNL     1      51.350  16.691  18.380  0.00  0.00    -0.052 C 
ENDBRANCH   5   4
ENDBRANCH   6   5
TORSDOF 5
ENDMDL
MODEL 8
REMARK VINA RESULT:      -5.2      3.414      4.280
REMARK  Name = ZINC95485915
REMARK  8 active torsions:
REMARK  status: ('A' for Active; 'I' for Inactive)
REMARK    1  A    between atoms: C1_1  and  C2_2
REMARK    2  A    between atoms: C2_2  and  C19_24
REMARK    3  A    between atoms: C3_3  and  C4_4
REMARK    4  A    between atoms: C4_4  and  C5_5
REMARK    5  A    between atoms: C6_6  and  O5_23
REMARK    6  A    between atoms: C10_10  and  O1_11
REMARK    7  A    between atoms: C14_16  and  O4_21
REMARK    8  A    between atoms: O4_21  and  C18_22
REMARK                            x       y       z     vdW  Elec       q    Type
REMARK                         _______ _______ _______ _____ _____    ______ ____
ROOT
ATOM      6  C   UNL     1      45.297  20.073  20.262  0.00  0.00    -0.164 A 
ATOM      7  C   UNL     1      46.122  21.128  20.633  0.00  0.00    +0.198 A 
ATOM     10  C   UNL     1      47.431  21.197  20.181  0.00  0.00    -0.032 A 
ATOM     11  C   UNL     1      47.937  20.207  19.353  0.00  0.00    +0.192 A 
ATOM     12  C   UNL     1      47.106  19.133  18.986  0.00  0.00    -0.267 A 
ATOM     13  C   UNL     1      47.663  18.075  18.124  0.00  0.00    +0.443 A 
ATOM     14  C   UNL     1      49.132  18.089  17.954  0.00  0.00    -0.182 A 
ATOM     15  C   UNL     1      49.798  17.003  17.389  0.00  0.00    +0.087 A 
ATOM     16  C   UNL     1      51.174  17.045  17.248  0.00  0.00    +0.102 A 
ATOM     19  C   UNL     1      51.881  18.167  17.668  0.00  0.00    +0.003 A 
ATOM     20  C   UNL     1      51.227  19.244  18.226  0.00  0.00    +0.050 A 
ATOM     21  C   UNL     1      49.844  19.222  18.374  0.00  0.00    +0.117 A 
ATOM     22  O   UNL     1      46.956  17.241  17.588  0.00  0.00    -0.429 OA
ATOM     23  O   UNL     1      49.208  20.285  18.908  0.00  0.00    -0.223 OA
ATOM     24  C   UNL     1      45.782  19.072  19.443  0.00  0.00    +0.222 A 
ENDROOT
BRANCH   7   8
ATOM      8  O   UNL     1      45.640  22.103  21.446  0.00  0.00    -0.484 OA
ATOM      9  H   UNL     1      46.260  22.383  22.133  0.00  0.00    +0.401 HD
ENDBRANCH   7   8
BRANCH  16  17
ATOM     17  O   UNL     1      51.833  15.991  16.699  0.00  0.00    -0.311 OA
ATOM     18  C   UNL     1      51.122  14.754  16.613  0.00  0.00    +0.246 C 
ENDBRANCH  16  17
BRANCH  24  25
ATOM     25  O   UNL     1      44.982  18.037  19.078  0.00  0.00    -0.472 OA
ATOM     26  H   UNL     1      44.430  18.220  18.305  0.00  0.00    +0.403 HD
ENDBRANCH  24  25
BRANCH   6   5
ATOM      5  C   UNL     1      43.875  20.017  20.759  0.00  0.00    +0.132 C 
BRANCH   5   4
ATOM      1  C   UNL     1      41.213  19.097  20.630  0.00  0.00    +0.076 C 
ATOM      2  C   UNL     1      41.728  20.069  19.599  0.00  0.00    -0.129 C 
ATOM      3  C   UNL     1      40.839  20.502  18.462  0.00  0.00    +0.073 C 
ATOM      4  C   UNL     1      42.948  20.537  19.692  0.00  0.00    -0.052 C 
ENDBRANCH   5   4
ENDBRANCH   6   5
TORSDOF 5
ENDMDL
MODEL 9
REMARK VINA RESULT:      -5.2      1.378      1.597
REMARK  Name = ZINC95485915
REMARK  8 active torsions:
REMARK  status: ('A' for Active; 'I' for Inactive)
REMARK    1  A    between atoms: C1_1  and  C2_2
REMARK    2  A    between atoms: C2_2  and  C19_24
REMARK    3  A    between atoms: C3_3  and  C4_4
REMARK    4  A    between atoms: C4_4  and  C5_5
REMARK    5  A    between atoms: C6_6  and  O5_23
REMARK    6  A    between atoms: C10_10  and  O1_11
REMARK    7  A    between atoms: C14_16  and  O4_21
REMARK    8  A    between atoms: O4_21  and  C18_22
REMARK                            x       y       z     vdW  Elec       q    Type
REMARK                         _______ _______ _______ _____ _____    ______ ____
ROOT
ATOM      6  C   UNL     1      45.110  19.107  20.640  0.00  0.00    -0.164 A 
ATOM      7  C   UNL     1      44.287  18.300  21.417  0.00  0.00    +0.198 A 
ATOM     10  C   UNL     1      44.272  16.925  21.241  0.00  0.00    -0.032 A 
ATOM     11  C   UNL     1      45.078  16.335  20.278  0.00  0.00    +0.192 A 
ATOM     12  C   UNL     1      45.902  17.153  19.484  0.00  0.00    -0.267 A 
ATOM     13  C   UNL     1      46.736  16.516  18.449  0.00  0.00    +0.443 A 
ATOM     14  C   UNL     1      46.420  15.103  18.145  0.00  0.00    -0.182 A 
ATOM     15  C   UNL     1      46.950  14.477  17.019  0.00  0.00    +0.087 A 
ATOM     16  C   UNL     1      46.632  13.156  16.760  0.00  0.00    +0.102 A 
ATOM     19  C   UNL     1      45.788  12.463  17.621  0.00  0.00    +0.003 A 
ATOM     20  C   UNL     1      45.262  13.077  18.737  0.00  0.00    +0.050 A 
ATOM     21  C   UNL     1      45.573  14.404  19.017  0.00  0.00    +0.117 A 
ATOM     22  O   UNL     1      47.629  17.117  17.879  0.00  0.00    -0.429 OA
ATOM     23  O   UNL     1      45.066  14.996  20.118  0.00  0.00    -0.223 OA
ATOM     24  C   UNL     1      45.916  18.542  19.670  0.00  0.00    +0.222 A 
ENDROOT
BRANCH   7   8
ATOM      8  O   UNL     1      43.491  18.864  22.361  0.00  0.00    -0.484 OA
ATOM      9  H   UNL     1      43.977  19.271  23.092  0.00  0.00    +0.401 HD
ENDBRANCH   7   8
BRANCH  16  17
ATOM     17  O   UNL     1      47.143  12.536  15.663  0.00  0.00    -0.311 OA
ATOM     18  C   UNL     1      46.890  11.135  15.533  0.00  0.00    +0.246 C 
ENDBRANCH  16  17
BRANCH  24  25
ATOM     25  O   UNL     1      46.720  19.324  18.906  0.00  0.00    -0.472 OA
ATOM     26  H   UNL     1      47.070  18.881  18.121  0.00  0.00    +0.403 HD
ENDBRANCH  24  25
BRANCH   6   5
ATOM      5  C   UNL     1      45.116  20.600  20.849  0.00  0.00    +0.132 C 
BRANCH   5   4
ATOM      1  C   UNL     1      45.061  23.390  20.452  0.00  0.00    +0.076 C 
ATOM      2  C   UNL     1      43.951  22.527  19.907  0.00  0.00    -0.129 C 
ATOM      3  C   UNL     1      42.780  23.162  19.204  0.00  0.00    +0.073 C 
ATOM      4  C   UNL     1      44.007  21.225  20.045  0.00  0.00    -0.052 C 
ENDBRANCH   5   4
ENDBRANCH   6   5
TORSDOF 5
ENDMDL
