MODEL 1
REMARK VINA RESULT:      -7.5      0.000      0.000
REMARK  Name = ZINC95485895
REMARK  13 active torsions:
REMARK  status: ('A' for Active; 'I' for Inactive)
REMARK    1  A    between atoms: C1_1  and  C2_2
REMARK    2  A    between atoms: C2_2  and  C4_4
REMARK    3  A    between atoms: C7_8  and  C39_48
REMARK    4  A    between atoms: C13_17  and  C38_47
REMARK    5  A    between atoms: C16_20  and  O1_35
REMARK    6  A    between atoms: C17_22  and  C27_33
REMARK    7  A    between atoms: C17_22  and  C28_34
REMARK    8  A    between atoms: C21_27  and  C26_32
REMARK    9  A    between atoms: C22_28  and  C25_31
REMARK   10  A    between atoms: O1_35  and  C29_36
REMARK   11  A    between atoms: C29_36  and  C30_38
REMARK   12  A    between atoms: C31_39  and  C32_40
REMARK   13  A    between atoms: C35_43  and  O3_46
REMARK                            x       y       z     vdW  Elec       q    Type
REMARK                         _______ _______ _______ _____ _____    ______ ____
ROOT
ATOM      3  C   UNL     1      48.917  12.583  15.285  0.00  0.00    +0.015 C 
ATOM      4  C   UNL     1      48.132  11.271  15.000  0.00  0.00    +0.016 C 
ATOM      5  C   UNL     1      46.727  11.471  15.634  0.00  0.00    -0.006 C 
ATOM      6  C   UNL     1      47.046  12.408  16.829  0.00  0.00    -0.124 C 
ATOM     10  C   UNL     1      45.835  13.121  17.389  0.00  0.00    +0.001 C 
ATOM     11  C   UNL     1      46.250  14.335  18.231  0.00  0.00    +0.025 C 
ATOM     12  C   UNL     1      47.135  15.306  17.457  0.00  0.00    -0.036 C 
ATOM     13  C   UNL     1      46.333  15.819  16.253  0.00  0.00    +0.002 C 
ATOM     14  C   UNL     1      47.509  16.536  18.297  0.00  0.00    -0.024 C 
ATOM     15  C   UNL     1      46.182  17.191  18.696  0.00  0.00    +0.010 C 
ATOM     16  C   UNL     1      48.309  17.518  17.440  0.00  0.00    +0.006 C 
ATOM     17  C   UNL     1      48.734  18.743  18.254  0.00  0.00    +0.010 C 
ATOM     18  C   UNL     1      49.594  18.353  19.455  0.00  0.00    +0.020 C 
ATOM     19  C   UNL     1      50.062  19.591  20.203  0.00  0.00    -0.044 C 
ATOM     20  C   UNL     1      50.407  20.711  19.189  0.00  0.00    +0.022 C 
ATOM     21  C   UNL     1      51.376  19.322  20.957  0.00  0.00    +0.032 C 
ATOM     22  C   UNL     1      49.037  20.178  21.163  0.00  0.00    +0.183 C 
ATOM     36  C   UNL     1      48.308  19.134  21.995  0.00  0.00    +0.002 C 
ATOM     37  C   UNL     1      47.707  18.072  21.064  0.00  0.00    +0.032 C 
ATOM     38  C   UNL     1      48.836  17.359  20.327  0.00  0.00    -0.034 C 
ATOM     39  C   UNL     1      49.768  16.777  21.413  0.00  0.00    +0.011 C 
ATOM     40  C   UNL     1      48.353  16.160  19.505  0.00  0.00    +0.020 C 
ATOM     41  C   UNL     1      49.603  15.418  18.995  0.00  0.00    -0.015 C 
ATOM     42  C   UNL     1      49.167  14.157  18.232  0.00  0.00    +0.031 C 
ATOM     43  C   UNL     1      48.397  14.560  16.979  0.00  0.00    +0.017 C 
ATOM     44  C   UNL     1      47.963  13.418  16.120  0.00  0.00    -0.012 C 
ENDROOT
BRANCH   3   2
ATOM      1  C   UNL     1      51.302  13.357  15.967  0.00  0.00    +0.046 C 
ATOM      2  C   UNL     1      50.239  12.289  15.914  0.00  0.00    -0.150 C 
ATOM     45  C   UNL     1      50.475  11.105  16.420  0.00  0.00    +0.057 C 
ENDBRANCH   3   2
BRANCH   6   7
ATOM      7  C   UNL     1      47.707  11.565  17.885  0.00  0.00    +0.521 C 
ATOM      8  O   UNL     1      47.685  10.349  17.796  0.00  0.00    -0.692 OA
ATOM      9  O   UNL     1      48.263  12.097  18.830  0.00  0.00    -0.684 OA
ENDBRANCH   6   7
BRANCH  22  23
ATOM     23  O   UNL     1      48.084  20.956  20.429  0.00  0.00    -0.335 OA
BRANCH  23  24
ATOM     24  C   UNL     1      47.315  21.810  21.138  0.00  0.00    +0.498 C 
ATOM     35  O   UNL     1      47.770  22.365  22.121  0.00  0.00    -0.518 OA
BRANCH  24  25
ATOM     25  C   UNL     1      45.979  22.060  20.736  0.00  0.00    -0.061 C 
ATOM     26  C   UNL     1      45.348  21.196  19.912  0.00  0.00    +0.143 C 
BRANCH  26  27
ATOM     27  C   UNL     1      43.963  21.456  19.494  0.00  0.00    -0.093 A 
ATOM     28  C   UNL     1      43.466  22.764  19.486  0.00  0.00    +0.060 A 
ATOM     29  C   UNL     1      42.168  23.002  19.095  0.00  0.00    -0.013 A 
ATOM     30  C   UNL     1      41.351  21.944  18.708  0.00  0.00    +0.122 A 
ATOM     33  C   UNL     1      41.839  20.644  18.716  0.00  0.00    -0.017 A 
ATOM     34  C   UNL     1      43.139  20.395  19.100  0.00  0.00    +0.062 A 
BRANCH  30  31
ATOM     31  O   UNL     1      40.071  22.185  18.325  0.00  0.00    -0.499 OA
ATOM     32  H   UNL     1      39.963  22.305  17.371  0.00  0.00    +0.395 HD
ENDBRANCH  30  31
ENDBRANCH  26  27
ENDBRANCH  24  25
ENDBRANCH  23  24
ENDBRANCH  22  23
TORSDOF 7
ENDMDL
MODEL 2
REMARK VINA RESULT:      -6.8      1.754      2.155
REMARK  Name = ZINC95485895
REMARK  13 active torsions:
REMARK  status: ('A' for Active; 'I' for Inactive)
REMARK    1  A    between atoms: C1_1  and  C2_2
REMARK    2  A    between atoms: C2_2  and  C4_4
REMARK    3  A    between atoms: C7_8  and  C39_48
REMARK    4  A    between atoms: C13_17  and  C38_47
REMARK    5  A    between atoms: C16_20  and  O1_35
REMARK    6  A    between atoms: C17_22  and  C27_33
REMARK    7  A    between atoms: C17_22  and  C28_34
REMARK    8  A    between atoms: C21_27  and  C26_32
REMARK    9  A    between atoms: C22_28  and  C25_31
REMARK   10  A    between atoms: O1_35  and  C29_36
REMARK   11  A    between atoms: C29_36  and  C30_38
REMARK   12  A    between atoms: C31_39  and  C32_40
REMARK   13  A    between atoms: C35_43  and  O3_46
REMARK                            x       y       z     vdW  Elec       q    Type
REMARK                         _______ _______ _______ _____ _____    ______ ____
ROOT
ATOM      3  C   UNL     1      49.789  12.668  14.707  0.00  0.00    +0.015 C 
ATOM      4  C   UNL     1      49.352  11.178  14.637  0.00  0.00    +0.016 C 
ATOM      5  C   UNL     1      48.280  10.998  15.748  0.00  0.00    -0.006 C 
ATOM      6  C   UNL     1      48.740  12.034  16.808  0.00  0.00    -0.124 C 
ATOM     10  C   UNL     1      47.671  12.398  17.814  0.00  0.00    +0.001 C 
ATOM     11  C   UNL     1      48.011  13.713  18.530  0.00  0.00    +0.025 C 
ATOM     12  C   UNL     1      48.245  14.862  17.555  0.00  0.00    -0.036 C 
ATOM     13  C   UNL     1      46.950  15.079  16.760  0.00  0.00    +0.002 C 
ATOM     14  C   UNL     1      48.545  16.180  18.284  0.00  0.00    -0.024 C 
ATOM     15  C   UNL     1      47.329  16.450  19.179  0.00  0.00    +0.010 C 
ATOM     16  C   UNL     1      48.670  17.313  17.264  0.00  0.00    +0.006 C 
ATOM     17  C   UNL     1      49.005  18.640  17.950  0.00  0.00    +0.010 C 
ATOM     18  C   UNL     1      50.317  18.557  18.730  0.00  0.00    +0.020 C 
ATOM     19  C   UNL     1      50.663  19.907  19.340  0.00  0.00    -0.044 C 
ATOM     20  C   UNL     1      50.289  21.036  18.348  0.00  0.00    +0.022 C 
ATOM     21  C   UNL     1      52.180  20.050  19.548  0.00  0.00    +0.032 C 
ATOM     22  C   UNL     1      49.941  20.218  20.643  0.00  0.00    +0.183 C 
ATOM     36  C   UNL     1      49.886  19.045  21.610  0.00  0.00    +0.002 C 
ATOM     37  C   UNL     1      49.306  17.820  20.890  0.00  0.00    +0.032 C 
ATOM     38  C   UNL     1      50.237  17.426  19.748  0.00  0.00    -0.034 C 
ATOM     39  C   UNL     1      51.624  17.175  20.382  0.00  0.00    +0.011 C 
ATOM     40  C   UNL     1      49.840  16.107  19.077  0.00  0.00    +0.020 C 
ATOM     41  C   UNL     1      50.970  15.728  18.101  0.00  0.00    -0.015 C 
ATOM     42  C   UNL     1      50.653  14.366  17.464  0.00  0.00    +0.031 C 
ATOM     43  C   UNL     1      49.399  14.485  16.604  0.00  0.00    +0.017 C 
ATOM     44  C   UNL     1      49.016  13.233  15.885  0.00  0.00    -0.012 C 
ENDROOT
BRANCH   3   2
ATOM      1  C   UNL     1      52.110  11.570  15.110  0.00  0.00    +0.046 C 
ATOM      2  C   UNL     1      51.276  12.785  14.795  0.00  0.00    -0.150 C 
ATOM     45  C   UNL     1      51.854  13.943  14.597  0.00  0.00    +0.057 C 
ENDBRANCH   3   2
BRANCH   6   7
ATOM      7  C   UNL     1      49.947  11.455  17.494  0.00  0.00    +0.521 C 
ATOM      8  O   UNL     1      50.224  10.277  17.348  0.00  0.00    -0.692 OA
ATOM      9  O   UNL     1      50.647  12.163  18.197  0.00  0.00    -0.684 OA
ENDBRANCH   6   7
BRANCH  22  23
ATOM     23  O   UNL     1      48.610  20.665  20.357  0.00  0.00    -0.335 OA
BRANCH  23  24
ATOM     24  C   UNL     1      47.896  21.162  21.390  0.00  0.00    +0.498 C 
ATOM     35  O   UNL     1      48.398  21.982  22.137  0.00  0.00    -0.518 OA
BRANCH  24  25
ATOM     25  C   UNL     1      46.563  20.731  21.603  0.00  0.00    -0.061 C 
ATOM     26  C   UNL     1      45.961  19.927  20.700  0.00  0.00    +0.143 C 
BRANCH  26  27
ATOM     27  C   UNL     1      44.578  19.480  20.920  0.00  0.00    -0.093 A 
ATOM     28  C   UNL     1      43.582  19.796  19.990  0.00  0.00    +0.060 A 
ATOM     29  C   UNL     1      42.288  19.376  20.200  0.00  0.00    -0.013 A 
ATOM     30  C   UNL     1      41.971  18.638  21.336  0.00  0.00    +0.122 A 
ATOM     33  C   UNL     1      42.956  18.322  22.263  0.00  0.00    -0.017 A 
ATOM     34  C   UNL     1      44.255  18.733  22.059  0.00  0.00    +0.062 A 
BRANCH  30  31
ATOM     31  O   UNL     1      40.693  18.227  21.540  0.00  0.00    -0.499 OA
ATOM     32  H   UNL     1      40.071  18.948  21.712  0.00  0.00    +0.395 HD
ENDBRANCH  30  31
ENDBRANCH  26  27
ENDBRANCH  24  25
ENDBRANCH  23  24
ENDBRANCH  22  23
TORSDOF 7
ENDMDL
MODEL 3
REMARK VINA RESULT:      -6.3      1.237      1.580
REMARK  Name = ZINC95485895
REMARK  13 active torsions:
REMARK  status: ('A' for Active; 'I' for Inactive)
REMARK    1  A    between atoms: C1_1  and  C2_2
REMARK    2  A    between atoms: C2_2  and  C4_4
REMARK    3  A    between atoms: C7_8  and  C39_48
REMARK    4  A    between atoms: C13_17  and  C38_47
REMARK    5  A    between atoms: C16_20  and  O1_35
REMARK    6  A    between atoms: C17_22  and  C27_33
REMARK    7  A    between atoms: C17_22  and  C28_34
REMARK    8  A    between atoms: C21_27  and  C26_32
REMARK    9  A    between atoms: C22_28  and  C25_31
REMARK   10  A    between atoms: O1_35  and  C29_36
REMARK   11  A    between atoms: C29_36  and  C30_38
REMARK   12  A    between atoms: C31_39  and  C32_40
REMARK   13  A    between atoms: C35_43  and  O3_46
REMARK                            x       y       z     vdW  Elec       q    Type
REMARK                         _______ _______ _______ _____ _____    ______ ____
ROOT
ATOM      3  C   UNL     1      49.752  12.384  14.972  0.00  0.00    +0.015 C 
ATOM      4  C   UNL     1      49.616  10.836  14.951  0.00  0.00    +0.016 C 
ATOM      5  C   UNL     1      48.729  10.471  16.174  0.00  0.00    -0.006 C 
ATOM      6  C   UNL     1      49.087  11.600  17.176  0.00  0.00    -0.124 C 
ATOM     10  C   UNL     1      48.083  11.767  18.296  0.00  0.00    +0.001 C 
ATOM     11  C   UNL     1      48.229  13.138  18.969  0.00  0.00    +0.025 C 
ATOM     12  C   UNL     1      48.121  14.289  17.975  0.00  0.00    -0.036 C 
ATOM     13  C   UNL     1      46.730  14.227  17.330  0.00  0.00    +0.002 C 
ATOM     14  C   UNL     1      48.228  15.656  18.667  0.00  0.00    -0.024 C 
ATOM     15  C   UNL     1      47.089  15.698  19.692  0.00  0.00    +0.010 C 
ATOM     16  C   UNL     1      48.012  16.769  17.640  0.00  0.00    +0.006 C 
ATOM     17  C   UNL     1      48.148  18.150  18.285  0.00  0.00    +0.010 C 
ATOM     18  C   UNL     1      49.527  18.347  18.913  0.00  0.00    +0.020 C 
ATOM     19  C   UNL     1      49.661  19.751  19.482  0.00  0.00    -0.044 C 
ATOM     20  C   UNL     1      48.963  20.762  18.538  0.00  0.00    +0.022 C 
ATOM     21  C   UNL     1      51.133  20.197  19.519  0.00  0.00    +0.032 C 
ATOM     22  C   UNL     1      49.038  19.941  20.857  0.00  0.00    +0.183 C 
ATOM     36  C   UNL     1      49.325  18.802  21.824  0.00  0.00    +0.002 C 
ATOM     37  C   UNL     1      48.926  17.471  21.172  0.00  0.00    +0.032 C 
ATOM     38  C   UNL     1      49.788  17.245  19.934  0.00  0.00    -0.034 C 
ATOM     39  C   UNL     1      51.257  17.289  20.409  0.00  0.00    +0.011 C 
ATOM     40  C   UNL     1      49.590  15.859  19.310  0.00  0.00    +0.020 C 
ATOM     41  C   UNL     1      50.660  15.691  18.215  0.00  0.00    -0.015 C 
ATOM     42  C   UNL     1      50.554  14.280  17.616  0.00  0.00    +0.031 C 
ATOM     43  C   UNL     1      49.216  14.128  16.901  0.00  0.00    +0.017 C 
ATOM     44  C   UNL     1      49.014  12.809  16.229  0.00  0.00    -0.012 C 
ENDROOT
BRANCH   3   2
ATOM      1  C   UNL     1      51.545  14.257  14.807  0.00  0.00    +0.046 C 
ATOM      2  C   UNL     1      51.186  12.796  14.894  0.00  0.00    -0.150 C 
ATOM     45  C   UNL     1      52.129  11.888  14.900  0.00  0.00    +0.057 C 
ENDBRANCH   3   2
BRANCH   6   7
ATOM      7  C   UNL     1      50.452  11.288  17.723  0.00  0.00    +0.521 C 
ATOM      8  O   UNL     1      50.977  12.046  18.521  0.00  0.00    -0.692 OA
ATOM      9  O   UNL     1      51.034  10.277  17.370  0.00  0.00    -0.684 OA
ENDBRANCH   6   7
BRANCH  22  23
ATOM     23  O   UNL     1      47.621  20.109  20.722  0.00  0.00    -0.335 OA
BRANCH  23  24
ATOM     24  C   UNL     1      47.108  21.302  21.089  0.00  0.00    +0.498 C 
ATOM     35  O   UNL     1      47.770  22.065  21.767  0.00  0.00    -0.518 OA
BRANCH  24  25
ATOM     25  C   UNL     1      45.800  21.665  20.684  0.00  0.00    -0.061 C 
ATOM     26  C   UNL     1      45.085  20.839  19.890  0.00  0.00    +0.143 C 
BRANCH  26  27
ATOM     27  C   UNL     1      43.727  21.216  19.469  0.00  0.00    -0.093 A 
ATOM     28  C   UNL     1      43.367  22.565  19.389  0.00  0.00    +0.060 A 
ATOM     29  C   UNL     1      42.094  22.913  18.995  0.00  0.00    -0.013 A 
ATOM     30  C   UNL     1      41.169  21.925  18.676  0.00  0.00    +0.122 A 
ATOM     33  C   UNL     1      41.522  20.584  18.755  0.00  0.00    -0.017 A 
ATOM     34  C   UNL     1      42.794  20.225  19.142  0.00  0.00    +0.062 A 
BRANCH  30  31
ATOM     31  O   UNL     1      39.915  22.274  18.289  0.00  0.00    -0.499 OA
ATOM     32  H   UNL     1      39.870  23.115  17.814  0.00  0.00    +0.395 HD
ENDBRANCH  30  31
ENDBRANCH  26  27
ENDBRANCH  24  25
ENDBRANCH  23  24
ENDBRANCH  22  23
TORSDOF 7
ENDMDL
MODEL 4
REMARK VINA RESULT:      -4.7      3.626     10.245
REMARK  Name = ZINC95485895
REMARK  13 active torsions:
REMARK  status: ('A' for Active; 'I' for Inactive)
REMARK    1  A    between atoms: C1_1  and  C2_2
REMARK    2  A    between atoms: C2_2  and  C4_4
REMARK    3  A    between atoms: C7_8  and  C39_48
REMARK    4  A    between atoms: C13_17  and  C38_47
REMARK    5  A    between atoms: C16_20  and  O1_35
REMARK    6  A    between atoms: C17_22  and  C27_33
REMARK    7  A    between atoms: C17_22  and  C28_34
REMARK    8  A    between atoms: C21_27  and  C26_32
REMARK    9  A    between atoms: C22_28  and  C25_31
REMARK   10  A    between atoms: O1_35  and  C29_36
REMARK   11  A    between atoms: C29_36  and  C30_38
REMARK   12  A    between atoms: C31_39  and  C32_40
REMARK   13  A    between atoms: C35_43  and  O3_46
REMARK                            x       y       z     vdW  Elec       q    Type
REMARK                         _______ _______ _______ _____ _____    ______ ____
ROOT
ATOM      3  C   UNL     1      45.914  20.601  20.985  0.00  0.00    +0.015 C 
ATOM      4  C   UNL     1      44.679  21.144  21.759  0.00  0.00    +0.016 C 
ATOM      5  C   UNL     1      44.067  19.918  22.493  0.00  0.00    -0.006 C 
ATOM      6  C   UNL     1      44.427  18.756  21.530  0.00  0.00    -0.124 C 
ATOM     10  C   UNL     1      44.340  17.385  22.164  0.00  0.00    +0.001 C 
ATOM     11  C   UNL     1      45.117  16.347  21.344  0.00  0.00    +0.025 C 
ATOM     12  C   UNL     1      46.574  16.748  21.129  0.00  0.00    -0.036 C 
ATOM     13  C   UNL     1      47.242  16.858  22.505  0.00  0.00    +0.002 C 
ATOM     14  C   UNL     1      47.351  15.682  20.342  0.00  0.00    -0.024 C 
ATOM     15  C   UNL     1      47.246  14.393  21.165  0.00  0.00    +0.010 C 
ATOM     16  C   UNL     1      48.822  16.089  20.244  0.00  0.00    +0.006 C 
ATOM     17  C   UNL     1      49.625  15.068  19.434  0.00  0.00    +0.010 C 
ATOM     18  C   UNL     1      49.080  14.919  18.014  0.00  0.00    +0.020 C 
ATOM     19  C   UNL     1      49.938  13.955  17.209  0.00  0.00    -0.044 C 
ATOM     20  C   UNL     1      51.431  14.164  17.571  0.00  0.00    +0.022 C 
ATOM     21  C   UNL     1      49.850  14.257  15.704  0.00  0.00    +0.032 C 
ATOM     22  C   UNL     1      49.636  12.483  17.451  0.00  0.00    +0.183 C 
ATOM     36  C   UNL     1      48.150  12.163  17.506  0.00  0.00    +0.002 C 
ATOM     37  C   UNL     1      47.472  13.081  18.531  0.00  0.00    +0.032 C 
ATOM     38  C   UNL     1      47.607  14.529  18.069  0.00  0.00    -0.034 C 
ATOM     39  C   UNL     1      46.980  14.599  16.659  0.00  0.00    +0.011 C 
ATOM     40  C   UNL     1      46.809  15.512  18.932  0.00  0.00    +0.020 C 
ATOM     41  C   UNL     1      46.864  16.884  18.236  0.00  0.00    -0.015 C 
ATOM     42  C   UNL     1      46.005  17.887  19.024  0.00  0.00    +0.031 C 
ATOM     43  C   UNL     1      46.616  18.108  20.403  0.00  0.00    +0.017 C 
ATOM     44  C   UNL     1      45.898  19.107  21.250  0.00  0.00    -0.012 C 
ENDROOT
BRANCH   3   2
ATOM      1  C   UNL     1      44.629  21.668  18.994  0.00  0.00    +0.046 C 
ATOM      2  C   UNL     1      45.864  21.004  19.547  0.00  0.00    -0.150 C 
ATOM     45  C   UNL     1      46.892  20.779  18.768  0.00  0.00    +0.057 C 
ENDBRANCH   3   2
BRANCH   6   7
ATOM      7  C   UNL     1      43.501  18.860  20.349  0.00  0.00    +0.521 C 
ATOM      8  O   UNL     1      42.369  19.288  20.499  0.00  0.00    -0.692 OA
ATOM      9  O   UNL     1      43.881  18.515  19.244  0.00  0.00    -0.684 OA
ENDBRANCH   6   7
BRANCH  22  23
ATOM     23  O   UNL     1      50.264  12.059  18.667  0.00  0.00    -0.335 OA
BRANCH  23  24
ATOM     24  C   UNL     1      51.291  11.190  18.556  0.00  0.00    +0.498 C 
ATOM     35  O   UNL     1      51.230  10.277  17.754  0.00  0.00    -0.518 OA
BRANCH  24  25
ATOM     25  C   UNL     1      52.439  11.343  19.372  0.00  0.00    -0.061 C 
ATOM     26  C   UNL     1      53.672  11.242  18.829  0.00  0.00    +0.143 C 
BRANCH  26  27
ATOM     27  C   UNL     1      54.864  11.400  19.675  0.00  0.00    -0.093 A 
ATOM     28  C   UNL     1      55.595  12.592  19.642  0.00  0.00    +0.060 A 
ATOM     29  C   UNL     1      56.711  12.735  20.436  0.00  0.00    -0.013 A 
ATOM     30  C   UNL     1      57.111  11.696  21.270  0.00  0.00    +0.122 A 
ATOM     33  C   UNL     1      56.388  10.510  21.305  0.00  0.00    -0.017 A 
ATOM     34  C   UNL     1      55.267  10.359  20.520  0.00  0.00    +0.062 A 
BRANCH  30  31
ATOM     31  O   UNL     1      58.212  11.841  22.050  0.00  0.00    -0.499 OA
ATOM     32  H   UNL     1      58.583  11.006  22.367  0.00  0.00    +0.395 HD
ENDBRANCH  30  31
ENDBRANCH  26  27
ENDBRANCH  24  25
ENDBRANCH  23  24
ENDBRANCH  22  23
TORSDOF 7
ENDMDL
MODEL 5
REMARK VINA RESULT:      -3.9      2.165      3.275
REMARK  Name = ZINC95485895
REMARK  13 active torsions:
REMARK  status: ('A' for Active; 'I' for Inactive)
REMARK    1  A    between atoms: C1_1  and  C2_2
REMARK    2  A    between atoms: C2_2  and  C4_4
REMARK    3  A    between atoms: C7_8  and  C39_48
REMARK    4  A    between atoms: C13_17  and  C38_47
REMARK    5  A    between atoms: C16_20  and  O1_35
REMARK    6  A    between atoms: C17_22  and  C27_33
REMARK    7  A    between atoms: C17_22  and  C28_34
REMARK    8  A    between atoms: C21_27  and  C26_32
REMARK    9  A    between atoms: C22_28  and  C25_31
REMARK   10  A    between atoms: O1_35  and  C29_36
REMARK   11  A    between atoms: C29_36  and  C30_38
REMARK   12  A    between atoms: C31_39  and  C32_40
REMARK   13  A    between atoms: C35_43  and  O3_46
REMARK                            x       y       z     vdW  Elec       q    Type
REMARK                         _______ _______ _______ _____ _____    ______ ____
ROOT
ATOM      3  C   UNL     1      50.569  12.638  13.036  0.00  0.00    +0.015 C 
ATOM      4  C   UNL     1      51.029  11.202  12.656  0.00  0.00    +0.016 C 
ATOM      5  C   UNL     1      50.517  10.277  13.796  0.00  0.00    -0.006 C 
ATOM      6  C   UNL     1      50.549  11.230  15.019  0.00  0.00    -0.124 C 
ATOM     10  C   UNL     1      49.716  10.755  16.189  0.00  0.00    +0.001 C 
ATOM     11  C   UNL     1      49.419  11.905  17.160  0.00  0.00    +0.025 C 
ATOM     12  C   UNL     1      48.752  13.091  16.471  0.00  0.00    -0.036 C 
ATOM     13  C   UNL     1      47.416  12.610  15.890  0.00  0.00    +0.002 C 
ATOM     14  C   UNL     1      48.424  14.219  17.461  0.00  0.00    -0.024 C 
ATOM     15  C   UNL     1      47.500  13.597  18.515  0.00  0.00    +0.010 C 
ATOM     16  C   UNL     1      47.668  15.334  16.735  0.00  0.00    +0.006 C 
ATOM     17  C   UNL     1      47.355  16.495  17.682  0.00  0.00    +0.010 C 
ATOM     18  C   UNL     1      48.627  17.096  18.279  0.00  0.00    +0.020 C 
ATOM     19  C   UNL     1      48.293  18.293  19.157  0.00  0.00    -0.044 C 
ATOM     20  C   UNL     1      47.145  19.107  18.509  0.00  0.00    +0.022 C 
ATOM     21  C   UNL     1      49.476  19.272  19.235  0.00  0.00    +0.032 C 
ATOM     22  C   UNL     1      47.833  17.938  20.563  0.00  0.00    +0.183 C 
ATOM     36  C   UNL     1      48.655  16.841  21.221  0.00  0.00    +0.002 C 
ATOM     37  C   UNL     1      48.708  15.621  20.291  0.00  0.00    +0.032 C 
ATOM     38  C   UNL     1      49.418  16.010  18.999  0.00  0.00    -0.034 C 
ATOM     39  C   UNL     1      50.810  16.541  19.407  0.00  0.00    +0.011 C 
ATOM     40  C   UNL     1      49.680  14.815  18.075  0.00  0.00    +0.020 C 
ATOM     41  C   UNL     1      50.578  15.311  16.926  0.00  0.00    -0.015 C 
ATOM     42  C   UNL     1      50.937  14.126  16.016  0.00  0.00    +0.031 C 
ATOM     43  C   UNL     1      49.673  13.599  15.344  0.00  0.00    +0.017 C 
ATOM     44  C   UNL     1      49.899  12.473  14.388  0.00  0.00    -0.012 C 
ENDROOT
BRANCH   3   2
ATOM      1  C   UNL     1      52.394  14.011  14.275  0.00  0.00    +0.046 C 
ATOM      2  C   UNL     1      51.716  13.595  12.996  0.00  0.00    -0.150 C 
ATOM     45  C   UNL     1      52.131  14.071  11.849  0.00  0.00    +0.057 C 
ENDBRANCH   3   2
BRANCH   6   7
ATOM      7  C   UNL     1      51.991  11.386  15.418  0.00  0.00    +0.521 C 
ATOM      8  O   UNL     1      52.854  10.745  14.845  0.00  0.00    -0.692 OA
ATOM      9  O   UNL     1      52.296  12.153  16.316  0.00  0.00    -0.684 OA
ENDBRANCH   6   7
BRANCH  22  23
ATOM     23  O   UNL     1      46.454  17.550  20.533  0.00  0.00    -0.335 OA
BRANCH  23  24
ATOM     24  C   UNL     1      45.599  18.265  21.295  0.00  0.00    +0.498 C 
ATOM     35  O   UNL     1      45.884  18.523  22.449  0.00  0.00    -0.518 OA
BRANCH  24  25
ATOM     25  C   UNL     1      44.370  18.714  20.750  0.00  0.00    -0.061 C 
ATOM     26  C   UNL     1      44.175  20.031  20.520  0.00  0.00    +0.143 C 
BRANCH  26  27
ATOM     27  C   UNL     1      42.900  20.497  19.956  0.00  0.00    -0.093 A 
ATOM     28  C   UNL     1      41.756  19.696  20.049  0.00  0.00    +0.060 A 
ATOM     29  C   UNL     1      40.565  20.138  19.519  0.00  0.00    -0.013 A 
ATOM     30  C   UNL     1      40.498  21.377  18.891  0.00  0.00    +0.122 A 
ATOM     33  C   UNL     1      41.631  22.175  18.795  0.00  0.00    -0.017 A 
ATOM     34  C   UNL     1      42.826  21.746  19.328  0.00  0.00    +0.062 A 
BRANCH  30  31
ATOM     31  O   UNL     1      39.320  21.807  18.369  0.00  0.00    -0.499 OA
ATOM     32  H   UNL     1      38.757  21.096  18.032  0.00  0.00    +0.395 HD
ENDBRANCH  30  31
ENDBRANCH  26  27
ENDBRANCH  24  25
ENDBRANCH  23  24
ENDBRANCH  22  23
TORSDOF 7
ENDMDL
MODEL 6
REMARK VINA RESULT:      -3.7      1.762      2.517
REMARK  Name = ZINC95485895
REMARK  13 active torsions:
REMARK  status: ('A' for Active; 'I' for Inactive)
REMARK    1  A    between atoms: C1_1  and  C2_2
REMARK    2  A    between atoms: C2_2  and  C4_4
REMARK    3  A    between atoms: C7_8  and  C39_48
REMARK    4  A    between atoms: C13_17  and  C38_47
REMARK    5  A    between atoms: C16_20  and  O1_35
REMARK    6  A    between atoms: C17_22  and  C27_33
REMARK    7  A    between atoms: C17_22  and  C28_34
REMARK    8  A    between atoms: C21_27  and  C26_32
REMARK    9  A    between atoms: C22_28  and  C25_31
REMARK   10  A    between atoms: O1_35  and  C29_36
REMARK   11  A    between atoms: C29_36  and  C30_38
REMARK   12  A    between atoms: C31_39  and  C32_40
REMARK   13  A    between atoms: C35_43  and  O3_46
REMARK                            x       y       z     vdW  Elec       q    Type
REMARK                         _______ _______ _______ _____ _____    ______ ____
ROOT
ATOM      3  C   UNL     1      47.398  12.591  16.044  0.00  0.00    +0.015 C 
ATOM      4  C   UNL     1      46.717  11.238  16.394  0.00  0.00    +0.016 C 
ATOM      5  C   UNL     1      46.164  11.403  17.838  0.00  0.00    -0.006 C 
ATOM      6  C   UNL     1      47.181  12.396  18.459  0.00  0.00    -0.124 C 
ATOM     10  C   UNL     1      46.684  13.078  19.714  0.00  0.00    +0.001 C 
ATOM     11  C   UNL     1      47.504  14.339  20.019  0.00  0.00    +0.025 C 
ATOM     12  C   UNL     1      47.525  15.317  18.848  0.00  0.00    -0.036 C 
ATOM     13  C   UNL     1      46.080  15.751  18.568  0.00  0.00    +0.002 C 
ATOM     14  C   UNL     1      48.315  16.592  19.180  0.00  0.00    -0.024 C 
ATOM     15  C   UNL     1      47.624  17.206  20.404  0.00  0.00    +0.010 C 
ATOM     16  C   UNL     1      48.217  17.574  18.012  0.00  0.00    +0.006 C 
ATOM     17  C   UNL     1      49.024  18.845  18.290  0.00  0.00    +0.010 C 
ATOM     18  C   UNL     1      50.501  18.537  18.527  0.00  0.00    +0.020 C 
ATOM     19  C   UNL     1      51.291  19.821  18.728  0.00  0.00    -0.044 C 
ATOM     20  C   UNL     1      50.755  20.915  17.771  0.00  0.00    +0.022 C 
ATOM     21  C   UNL     1      52.765  19.635  18.329  0.00  0.00    +0.032 C 
ATOM     22  C   UNL     1      51.214  20.399  20.134  0.00  0.00    +0.183 C 
ATOM     36  C   UNL     1      51.348  19.357  21.234  0.00  0.00    +0.002 C 
ATOM     37  C   UNL     1      50.325  18.238  20.999  0.00  0.00    +0.032 C 
ATOM     38  C   UNL     1      50.639  17.545  19.677  0.00  0.00    -0.034 C 
ATOM     39  C   UNL     1      52.097  17.044  19.782  0.00  0.00    +0.011 C 
ATOM     40  C   UNL     1      49.784  16.297  19.435  0.00  0.00    +0.020 C 
ATOM     41  C   UNL     1      50.346  15.590  18.187  0.00  0.00    -0.015 C 
ATOM     42  C   UNL     1      49.570  14.284  17.953  0.00  0.00    +0.031 C 
ATOM     43  C   UNL     1      48.119  14.607  17.615  0.00  0.00    +0.017 C 
ATOM     44  C   UNL     1      47.269  13.416  17.312  0.00  0.00    -0.012 C 
ENDROOT
BRANCH   3   2
ATOM      1  C   UNL     1      49.379  10.989  15.536  0.00  0.00    +0.046 C 
ATOM      2  C   UNL     1      48.792  12.377  15.551  0.00  0.00    -0.150 C 
ATOM     45  C   UNL     1      49.502  13.394  15.133  0.00  0.00    +0.057 C 
ENDBRANCH   3   2
BRANCH   6   7
ATOM      7  C   UNL     1      48.440  11.621  18.734  0.00  0.00    +0.521 C 
ATOM      8  O   UNL     1      49.489  12.212  18.930  0.00  0.00    -0.692 OA
ATOM      9  O   UNL     1      48.413  10.403  18.760  0.00  0.00    -0.684 OA
ENDBRANCH   6   7
BRANCH  22  23
ATOM     23  O   UNL     1      49.980  21.109  20.293  0.00  0.00    -0.335 OA
BRANCH  23  24
ATOM     24  C   UNL     1      49.316  20.930  21.455  0.00  0.00    +0.498 C 
ATOM     35  O   UNL     1      49.931  20.863  22.502  0.00  0.00    -0.518 OA
BRANCH  24  25
ATOM     25  C   UNL     1      47.903  20.822  21.454  0.00  0.00    -0.061 C 
ATOM     26  C   UNL     1      47.317  19.623  21.663  0.00  0.00    +0.143 C 
BRANCH  26  27
ATOM     27  C   UNL     1      45.852  19.510  21.661  0.00  0.00    -0.093 A 
ATOM     28  C   UNL     1      45.087  20.318  20.812  0.00  0.00    +0.060 A 
ATOM     29  C   UNL     1      43.714  20.209  20.814  0.00  0.00    -0.013 A 
ATOM     30  C   UNL     1      43.089  19.298  21.659  0.00  0.00    +0.122 A 
ATOM     33  C   UNL     1      43.844  18.494  22.504  0.00  0.00    -0.017 A 
ATOM     34  C   UNL     1      45.218  18.591  22.505  0.00  0.00    +0.062 A 
BRANCH  30  31
ATOM     31  O   UNL     1      41.735  19.195  21.658  0.00  0.00    -0.499 OA
ATOM     32  H   UNL     1      41.322  19.430  22.501  0.00  0.00    +0.395 HD
ENDBRANCH  30  31
ENDBRANCH  26  27
ENDBRANCH  24  25
ENDBRANCH  23  24
ENDBRANCH  22  23
TORSDOF 7
ENDMDL
