MODEL 1
REMARK VINA RESULT:      -5.5      0.000      0.000
REMARK  Name = ZINC14506940
REMARK  4 active torsions:
REMARK  status: ('A' for Active; 'I' for Inactive)
REMARK    1  A    between atoms: C1_1  and  C2_2
REMARK    2  A    between atoms: C2_2  and  C13_15
REMARK    3  A    between atoms: C3_3  and  C4_4
REMARK    4  A    between atoms: C4_4  and  C5_5
REMARK                            x       y       z     vdW  Elec       q    Type
REMARK                         _______ _______ _______ _____ _____    ______ ____
ROOT
ATOM      6  C   UNL     1      46.699  20.594  19.505  0.00  0.00    -0.039 A 
ATOM      7  C   UNL     1      46.395  19.402  18.872  0.00  0.00    -0.004 A 
ATOM      8  C   UNL     1      45.091  19.137  18.493  0.00  0.00    +0.068 A 
ATOM      9  C   UNL     1      44.101  20.061  18.747  0.00  0.00    -0.148 A 
ATOM     10  C   UNL     1      44.394  21.260  19.382  0.00  0.00    +0.143 A 
ATOM     11  N   UNL     1      43.236  22.025  19.528  0.00  0.00    -0.661 N 
ATOM     12  H   UNL     1      43.214  22.899  19.946  0.00  0.00    +0.414 HD
ATOM     13  C   UNL     1      42.153  21.409  19.022  0.00  0.00    +0.528 C 
ATOM     14  O   UNL     1      41.019  21.840  19.011  0.00  0.00    -0.503 OA
ATOM     15  C   UNL     1      42.615  20.077  18.470  0.00  0.00    +0.133 C 
ATOM     16  C   UNL     1      45.709  21.517  19.766  0.00  0.00    -0.009 A 
ENDROOT
BRANCH   6   5
ATOM      5  C   UNL     1      48.120  20.881  19.917  0.00  0.00    +0.111 C 
BRANCH   5   4
ATOM      1  C   UNL     1      50.923  20.873  20.226  0.00  0.00    +0.074 C 
ATOM      2  C   UNL     1      50.315  20.888  18.848  0.00  0.00    -0.126 C 
ATOM      3  C   UNL     1      51.204  20.965  17.633  0.00  0.00    +0.074 C 
ATOM      4  C   UNL     1      49.014  20.834  18.705  0.00  0.00    -0.055 C 
ENDBRANCH   5   4
ENDBRANCH   6   5
TORSDOF 2
ENDMDL
MODEL 2
REMARK VINA RESULT:      -5.4      1.595      2.556
REMARK  Name = ZINC14506940
REMARK  4 active torsions:
REMARK  status: ('A' for Active; 'I' for Inactive)
REMARK    1  A    between atoms: C1_1  and  C2_2
REMARK    2  A    between atoms: C2_2  and  C13_15
REMARK    3  A    between atoms: C3_3  and  C4_4
REMARK    4  A    between atoms: C4_4  and  C5_5
REMARK                            x       y       z     vdW  Elec       q    Type
REMARK                         _______ _______ _______ _____ _____    ______ ____
ROOT
ATOM      6  C   UNL     1      48.026  20.681  19.746  0.00  0.00    -0.039 A 
ATOM      7  C   UNL     1      48.107  21.316  20.972  0.00  0.00    -0.004 A 
ATOM      8  C   UNL     1      47.030  22.048  21.441  0.00  0.00    +0.068 A 
ATOM      9  C   UNL     1      45.882  22.140  20.685  0.00  0.00    -0.148 A 
ATOM     10  C   UNL     1      45.789  21.507  19.453  0.00  0.00    +0.143 A 
ATOM     11  N   UNL     1      44.539  21.746  18.881  0.00  0.00    -0.661 N 
ATOM     12  H   UNL     1      44.262  21.397  18.020  0.00  0.00    +0.414 HD
ATOM     13  C   UNL     1      43.761  22.516  19.662  0.00  0.00    +0.528 C 
ATOM     14  O   UNL     1      42.630  22.879  19.416  0.00  0.00    -0.503 OA
ATOM     15  C   UNL     1      44.562  22.842  20.904  0.00  0.00    +0.133 C 
ATOM     16  C   UNL     1      46.880  20.777  18.985  0.00  0.00    -0.009 A 
ENDROOT
BRANCH   6   5
ATOM      5  C   UNL     1      49.200  19.884  19.236  0.00  0.00    +0.111 C 
BRANCH   5   4
ATOM      1  C   UNL     1      51.083  21.181  17.586  0.00  0.00    +0.074 C 
ATOM      2  C   UNL     1      51.372  20.983  19.051  0.00  0.00    -0.126 C 
ATOM      3  C   UNL     1      52.697  21.419  19.623  0.00  0.00    +0.074 C 
ATOM      4  C   UNL     1      50.473  20.432  19.828  0.00  0.00    -0.055 C 
ENDBRANCH   5   4
ENDBRANCH   6   5
TORSDOF 2
ENDMDL
MODEL 3
REMARK VINA RESULT:      -5.3     22.438     23.515
REMARK  Name = ZINC14506940
REMARK  4 active torsions:
REMARK  status: ('A' for Active; 'I' for Inactive)
REMARK    1  A    between atoms: C1_1  and  C2_2
REMARK    2  A    between atoms: C2_2  and  C13_15
REMARK    3  A    between atoms: C3_3  and  C4_4
REMARK    4  A    between atoms: C4_4  and  C5_5
REMARK                            x       y       z     vdW  Elec       q    Type
REMARK                         _______ _______ _______ _____ _____    ______ ____
ROOT
ATOM      6  C   UNL     1      39.816  33.911   1.576  0.00  0.00    -0.039 A 
ATOM      7  C   UNL     1      40.423  34.527   0.498  0.00  0.00    -0.004 A 
ATOM      8  C   UNL     1      39.681  34.824  -0.632  0.00  0.00    +0.068 A 
ATOM      9  C   UNL     1      38.342  34.505  -0.677  0.00  0.00    -0.148 A 
ATOM     10  C   UNL     1      37.722  33.886   0.400  0.00  0.00    +0.143 A 
ATOM     11  N   UNL     1      36.373  33.665   0.119  0.00  0.00    -0.661 N 
ATOM     12  H   UNL     1      35.754  33.244   0.735  0.00  0.00    +0.414 HD
ATOM     13  C   UNL     1      36.030  34.104  -1.105  0.00  0.00    +0.528 C 
ATOM     14  O   UNL     1      34.929  34.042  -1.609  0.00  0.00    -0.503 OA
ATOM     15  C   UNL     1      37.277  34.688  -1.734  0.00  0.00    +0.133 C 
ATOM     16  C   UNL     1      38.477  33.585   1.532  0.00  0.00    -0.009 A 
ENDROOT
BRANCH   6   5
ATOM      5  C   UNL     1      40.626  33.588   2.807  0.00  0.00    +0.111 C 
BRANCH   5   4
ATOM      1  C   UNL     1      42.426  31.419   2.732  0.00  0.00    +0.074 C 
ATOM      2  C   UNL     1      42.930  32.826   2.546  0.00  0.00    -0.126 C 
ATOM      3  C   UNL     1      44.407  33.082   2.386  0.00  0.00    +0.074 C 
ATOM      4  C   UNL     1      42.086  33.828   2.524  0.00  0.00    -0.055 C 
ENDBRANCH   5   4
ENDBRANCH   6   5
TORSDOF 2
ENDMDL
MODEL 4
REMARK VINA RESULT:      -5.2      3.931      4.870
REMARK  Name = ZINC14506940
REMARK  4 active torsions:
REMARK  status: ('A' for Active; 'I' for Inactive)
REMARK    1  A    between atoms: C1_1  and  C2_2
REMARK    2  A    between atoms: C2_2  and  C13_15
REMARK    3  A    between atoms: C3_3  and  C4_4
REMARK    4  A    between atoms: C4_4  and  C5_5
REMARK                            x       y       z     vdW  Elec       q    Type
REMARK                         _______ _______ _______ _____ _____    ______ ____
ROOT
ATOM      6  C   UNL     1      44.034  18.086  20.725  0.00  0.00    -0.039 A 
ATOM      7  C   UNL     1      42.966  17.833  21.565  0.00  0.00    -0.004 A 
ATOM      8  C   UNL     1      41.772  18.509  21.383  0.00  0.00    +0.068 A 
ATOM      9  C   UNL     1      41.653  19.430  20.365  0.00  0.00    -0.148 A 
ATOM     10  C   UNL     1      42.719  19.692  19.515  0.00  0.00    +0.143 A 
ATOM     11  N   UNL     1      42.359  20.655  18.572  0.00  0.00    -0.661 N 
ATOM     12  H   UNL     1      42.954  20.985  17.881  0.00  0.00    +0.414 HD
ATOM     13  C   UNL     1      41.090  21.072  18.730  0.00  0.00    +0.528 C 
ATOM     14  O   UNL     1      40.515  21.899  18.054  0.00  0.00    -0.503 OA
ATOM     15  C   UNL     1      40.516  20.315  19.909  0.00  0.00    +0.133 C 
ATOM     16  C   UNL     1      43.920  19.011  19.709  0.00  0.00    -0.009 A 
ENDROOT
BRANCH   6   5
ATOM      5  C   UNL     1      45.335  17.349  20.924  0.00  0.00    +0.111 C 
BRANCH   5   4
ATOM      1  C   UNL     1      46.239  15.949  18.650  0.00  0.00    +0.074 C 
ATOM      2  C   UNL     1      45.465  15.228  19.723  0.00  0.00    -0.126 C 
ATOM      3  C   UNL     1      45.116  13.772  19.550  0.00  0.00    +0.074 C 
ATOM      4  C   UNL     1      45.095  15.866  20.805  0.00  0.00    -0.055 C 
ENDBRANCH   5   4
ENDBRANCH   6   5
TORSDOF 2
ENDMDL
MODEL 5
REMARK VINA RESULT:      -5.1      1.430      2.208
REMARK  Name = ZINC14506940
REMARK  4 active torsions:
REMARK  status: ('A' for Active; 'I' for Inactive)
REMARK    1  A    between atoms: C1_1  and  C2_2
REMARK    2  A    between atoms: C2_2  and  C13_15
REMARK    3  A    between atoms: C3_3  and  C4_4
REMARK    4  A    between atoms: C4_4  and  C5_5
REMARK                            x       y       z     vdW  Elec       q    Type
REMARK                         _______ _______ _______ _____ _____    ______ ____
ROOT
ATOM      6  C   UNL     1      48.612  20.084  19.439  0.00  0.00    -0.039 A 
ATOM      7  C   UNL     1      48.433  18.755  19.775  0.00  0.00    -0.004 A 
ATOM      8  C   UNL     1      47.165  18.202  19.745  0.00  0.00    +0.068 A 
ATOM      9  C   UNL     1      46.087  18.977  19.380  0.00  0.00    -0.148 A 
ATOM     10  C   UNL     1      46.254  20.313  19.041  0.00  0.00    +0.143 A 
ATOM     11  N   UNL     1      45.024  20.884  18.710  0.00  0.00    -0.661 N 
ATOM     12  H   UNL     1      44.912  21.809  18.443  0.00  0.00    +0.414 HD
ATOM     13  C   UNL     1      44.012  20.004  18.805  0.00  0.00    +0.528 C 
ATOM     14  O   UNL     1      42.842  20.225  18.578  0.00  0.00    -0.503 OA
ATOM     15  C   UNL     1      44.609  18.685  19.250  0.00  0.00    +0.133 C 
ATOM     16  C   UNL     1      47.533  20.864  19.079  0.00  0.00    -0.009 A 
ENDROOT
BRANCH   6   5
ATOM      5  C   UNL     1      49.994  20.686  19.472  0.00  0.00    +0.111 C 
BRANCH   5   4
ATOM      1  C   UNL     1      52.214  19.435  18.266  0.00  0.00    +0.074 C 
ATOM      2  C   UNL     1      51.474  20.526  17.537  0.00  0.00    -0.126 C 
ATOM      3  C   UNL     1      51.960  20.996  16.190  0.00  0.00    +0.074 C 
ATOM      4  C   UNL     1      50.409  21.067  18.074  0.00  0.00    -0.055 C 
ENDBRANCH   5   4
ENDBRANCH   6   5
TORSDOF 2
ENDMDL
MODEL 6
REMARK VINA RESULT:      -5.1      1.411      1.794
REMARK  Name = ZINC14506940
REMARK  4 active torsions:
REMARK  status: ('A' for Active; 'I' for Inactive)
REMARK    1  A    between atoms: C1_1  and  C2_2
REMARK    2  A    between atoms: C2_2  and  C13_15
REMARK    3  A    between atoms: C3_3  and  C4_4
REMARK    4  A    between atoms: C4_4  and  C5_5
REMARK                            x       y       z     vdW  Elec       q    Type
REMARK                         _______ _______ _______ _____ _____    ______ ____
ROOT
ATOM      6  C   UNL     1      45.433  20.228  19.866  0.00  0.00    -0.039 A 
ATOM      7  C   UNL     1      44.948  18.955  20.100  0.00  0.00    -0.004 A 
ATOM      8  C   UNL     1      43.594  18.699  19.969  0.00  0.00    +0.068 A 
ATOM      9  C   UNL     1      42.736  19.713  19.606  0.00  0.00    -0.148 A 
ATOM     10  C   UNL     1      43.212  20.996  19.368  0.00  0.00    +0.143 A 
ATOM     11  N   UNL     1      42.161  21.844  19.017  0.00  0.00    -0.661 N 
ATOM     12  H   UNL     1      42.270  22.784  18.809  0.00  0.00    +0.414 HD
ATOM     13  C   UNL     1      40.977  21.206  19.001  0.00  0.00    +0.528 C 
ATOM     14  O   UNL     1      39.900  21.694  18.731  0.00  0.00    -0.503 OA
ATOM     15  C   UNL     1      41.242  19.765  19.382  0.00  0.00    +0.133 C 
ATOM     16  C   UNL     1      44.576  21.247  19.507  0.00  0.00    -0.009 A 
ENDROOT
BRANCH   6   5
ATOM      5  C   UNL     1      46.908  20.505  20.009  0.00  0.00    +0.111 C 
BRANCH   5   4
ATOM      1  C   UNL     1      49.478  20.808  18.890  0.00  0.00    +0.074 C 
ATOM      2  C   UNL     1      48.861  19.439  19.004  0.00  0.00    -0.126 C 
ATOM      3  C   UNL     1      49.589  18.237  18.459  0.00  0.00    +0.074 C 
ATOM      4  C   UNL     1      47.691  19.293  19.576  0.00  0.00    -0.055 C 
ENDBRANCH   5   4
ENDBRANCH   6   5
TORSDOF 2
ENDMDL
MODEL 7
REMARK VINA RESULT:      -5.0     14.833     17.432
REMARK  Name = ZINC14506940
REMARK  4 active torsions:
REMARK  status: ('A' for Active; 'I' for Inactive)
REMARK    1  A    between atoms: C1_1  and  C2_2
REMARK    2  A    between atoms: C2_2  and  C13_15
REMARK    3  A    between atoms: C3_3  and  C4_4
REMARK    4  A    between atoms: C4_4  and  C5_5
REMARK                            x       y       z     vdW  Elec       q    Type
REMARK                         _______ _______ _______ _____ _____    ______ ____
ROOT
ATOM      6  C   UNL     1      37.102  32.826  12.470  0.00  0.00    -0.039 A 
ATOM      7  C   UNL     1      37.198  34.133  12.029  0.00  0.00    -0.004 A 
ATOM      8  C   UNL     1      36.645  34.491  10.812  0.00  0.00    +0.068 A 
ATOM      9  C   UNL     1      36.001  33.545  10.046  0.00  0.00    -0.148 A 
ATOM     10  C   UNL     1      35.898  32.230  10.479  0.00  0.00    +0.143 A 
ATOM     11  N   UNL     1      35.208  31.465   9.539  0.00  0.00    -0.661 N 
ATOM     12  H   UNL     1      35.023  30.518   9.641  0.00  0.00    +0.414 HD
ATOM     13  C   UNL     1      34.827  32.191   8.473  0.00  0.00    +0.528 C 
ATOM     14  O   UNL     1      34.214  31.786   7.508  0.00  0.00    -0.503 OA
ATOM     15  C   UNL     1      35.307  33.608   8.705  0.00  0.00    +0.133 C 
ATOM     16  C   UNL     1      36.463  31.876  11.703  0.00  0.00    -0.009 A 
ENDROOT
BRANCH   6   5
ATOM      5  C   UNL     1      37.706  32.437  13.797  0.00  0.00    +0.111 C 
BRANCH   5   4
ATOM      1  C   UNL     1      38.393  31.939  16.485  0.00  0.00    +0.074 C 
ATOM      2  C   UNL     1      36.973  32.283  16.120  0.00  0.00    -0.126 C 
ATOM      3  C   UNL     1      35.904  32.297  17.183  0.00  0.00    +0.074 C 
ATOM      4  C   UNL     1      36.666  32.571  14.879  0.00  0.00    -0.055 C 
ENDBRANCH   5   4
ENDBRANCH   6   5
TORSDOF 2
ENDMDL
MODEL 8
REMARK VINA RESULT:      -4.8      2.662      3.514
REMARK  Name = ZINC14506940
REMARK  4 active torsions:
REMARK  status: ('A' for Active; 'I' for Inactive)
REMARK    1  A    between atoms: C1_1  and  C2_2
REMARK    2  A    between atoms: C2_2  and  C13_15
REMARK    3  A    between atoms: C3_3  and  C4_4
REMARK    4  A    between atoms: C4_4  and  C5_5
REMARK                            x       y       z     vdW  Elec       q    Type
REMARK                         _______ _______ _______ _____ _____    ______ ____
ROOT
ATOM      6  C   UNL     1      45.112  19.083  19.279  0.00  0.00    -0.039 A 
ATOM      7  C   UNL     1      44.580  18.295  20.282  0.00  0.00    -0.004 A 
ATOM      8  C   UNL     1      43.247  18.429  20.629  0.00  0.00    +0.068 A 
ATOM      9  C   UNL     1      42.456  19.346  19.973  0.00  0.00    -0.148 A 
ATOM     10  C   UNL     1      42.980  20.143  18.963  0.00  0.00    +0.143 A 
ATOM     11  N   UNL     1      41.993  20.987  18.454  0.00  0.00    -0.661 N 
ATOM     12  H   UNL     1      42.143  21.628  17.741  0.00  0.00    +0.414 HD
ATOM     13  C   UNL     1      40.808  20.811  19.065  0.00  0.00    +0.528 C 
ATOM     14  O   UNL     1      39.779  21.407  18.825  0.00  0.00    -0.503 OA
ATOM     15  C   UNL     1      41.001  19.730  20.107  0.00  0.00    +0.133 C 
ATOM     16  C   UNL     1      44.325  20.006  18.624  0.00  0.00    -0.009 A 
ENDROOT
BRANCH   6   5
ATOM      5  C   UNL     1      46.565  18.936  18.902  0.00  0.00    +0.111 C 
BRANCH   5   4
ATOM      1  C   UNL     1      47.019  17.197  16.730  0.00  0.00    +0.074 C 
ATOM      2  C   UNL     1      47.162  16.695  18.143  0.00  0.00    -0.126 C 
ATOM      3  C   UNL     1      47.484  15.244  18.398  0.00  0.00    +0.074 C 
ATOM      4  C   UNL     1      47.007  17.517  19.150  0.00  0.00    -0.055 C 
ENDBRANCH   5   4
ENDBRANCH   6   5
TORSDOF 2
ENDMDL
MODEL 9
REMARK VINA RESULT:      -4.8     19.327     20.844
REMARK  Name = ZINC14506940
REMARK  4 active torsions:
REMARK  status: ('A' for Active; 'I' for Inactive)
REMARK    1  A    between atoms: C1_1  and  C2_2
REMARK    2  A    between atoms: C2_2  and  C13_15
REMARK    3  A    between atoms: C3_3  and  C4_4
REMARK    4  A    between atoms: C4_4  and  C5_5
REMARK                            x       y       z     vdW  Elec       q    Type
REMARK                         _______ _______ _______ _____ _____    ______ ____
ROOT
ATOM      6  C   UNL     1      56.206  32.673   4.114  0.00  0.00    -0.039 A 
ATOM      7  C   UNL     1      56.651  33.500   5.129  0.00  0.00    -0.004 A 
ATOM      8  C   UNL     1      55.748  34.011   6.046  0.00  0.00    +0.068 A 
ATOM      9  C   UNL     1      54.412  33.693   5.944  0.00  0.00    -0.148 A 
ATOM     10  C   UNL     1      53.954  32.863   4.929  0.00  0.00    +0.143 A 
ATOM     11  N   UNL     1      52.573  32.690   5.034  0.00  0.00    -0.661 N 
ATOM     12  H   UNL     1      52.048  32.148   4.425  0.00  0.00    +0.414 HD
ATOM     13  C   UNL     1      52.054  33.362   6.076  0.00  0.00    +0.528 C 
ATOM     14  O   UNL     1      50.887  33.392   6.404  0.00  0.00    -0.503 OA
ATOM     15  C   UNL     1      53.200  34.075   6.762  0.00  0.00    +0.133 C 
ATOM     16  C   UNL     1      54.868  32.358   4.006  0.00  0.00    -0.009 A 
ENDROOT
BRANCH   6   5
ATOM      5  C   UNL     1      57.189  32.117   3.116  0.00  0.00    +0.111 C 
BRANCH   5   4
ATOM      1  C   UNL     1      57.881  29.617   2.010  0.00  0.00    +0.074 C 
ATOM      2  C   UNL     1      58.450  30.038   3.340  0.00  0.00    -0.126 C 
ATOM      3  C   UNL     1      59.338  29.096   4.111  0.00  0.00    +0.074 C 
ATOM      4  C   UNL     1      58.174  31.223   3.825  0.00  0.00    -0.055 C 
ENDBRANCH   5   4
ENDBRANCH   6   5
TORSDOF 2
ENDMDL
