MODEL 1
REMARK VINA RESULT:      -7.4      0.000      0.000
REMARK  Name = ZINC95485966
REMARK  18 active torsions:
REMARK  status: ('A' for Active; 'I' for Inactive)
REMARK    1  A    between atoms: C1_1  and  C2_2
REMARK    2  A    between atoms: C3_3  and  C28_33
REMARK    3  A    between atoms: C8_8  and  O2_19
REMARK    4  A    between atoms: C10_10  and  O1_18
REMARK    5  A    between atoms: C11_11  and  C12_12
REMARK    6  A    between atoms: C12_12  and  C13_13
REMARK    7  A    between atoms: C13_13  and  C14_14
REMARK    8  A    between atoms: C15_15  and  C16_16
REMARK    9  A    between atoms: C15_15  and  C17_17
REMARK   10  A    between atoms: C21_24  and  C22_26
REMARK   11  A    between atoms: C22_26  and  C23_27
REMARK   12  A    between atoms: C23_27  and  C24_28
REMARK   13  A    between atoms: C25_29  and  C26_30
REMARK   14  A    between atoms: C25_29  and  C27_31
REMARK   15  A    between atoms: C28_33  and  C29_34
REMARK   16  A    between atoms: C29_34  and  C30_35
REMARK   17  A    between atoms: C31_36  and  C32_37
REMARK   18  A    between atoms: C31_36  and  C33_38
REMARK                            x       y       z     vdW  Elec       q    Type
REMARK                         _______ _______ _______ _____ _____    ______ ____
ROOT
ATOM      1  C   UNL     1      49.828  16.484  17.649  0.00  0.00    +0.099 C 
ATOM      2  C   UNL     1      49.392  17.667  18.474  0.00  0.00    -0.037 A 
ATOM      3  C   UNL     1      48.144  18.187  18.293  0.00  0.00    -0.089 A 
ATOM     10  C   UNL     1      47.725  19.288  19.056  0.00  0.00    +0.012 A 
ATOM     11  C   UNL     1      46.438  19.834  18.893  0.00  0.00    +0.017 A 
ATOM     12  C   UNL     1      46.035  20.901  19.635  0.00  0.00    -0.016 A 
ATOM     13  C   UNL     1      44.631  21.414  19.431  0.00  0.00    +0.018 C 
ATOM     20  C   UNL     1      44.489  22.797  20.017  0.00  0.00    +0.376 C 
ATOM     21  O   UNL     1      43.948  23.683  19.400  0.00  0.00    -0.430 OA
ATOM     22  C   UNL     1      45.047  23.037  21.406  0.00  0.00    +0.043 C 
ATOM     23  C   UNL     1      46.513  22.662  21.353  0.00  0.00    +0.403 C 
ATOM     24  O   UNL     1      47.343  23.321  21.946  0.00  0.00    -0.420 OA
ATOM     25  C   UNL     1      46.911  21.486  20.569  0.00  0.00    -0.211 A 
ATOM     26  C   UNL     1      48.194  20.961  20.763  0.00  0.00    +0.216 A 
ATOM     29  C   UNL     1      48.612  19.852  20.005  0.00  0.00    -0.119 A 
ATOM     30  C   UNL     1      49.894  19.294  20.174  0.00  0.00    +0.142 A 
ATOM     33  C   UNL     1      50.265  18.207  19.411  0.00  0.00    -0.108 A 
ENDROOT
BRANCH  26  27
ATOM     27  O   UNL     1      49.029  21.519  21.671  0.00  0.00    -0.457 OA
ATOM     28  H   UNL     1      49.860  21.840  21.296  0.00  0.00    +0.393 HD
ENDBRANCH  26  27
BRANCH  30  31
ATOM     31  O   UNL     1      50.755  19.818  21.083  0.00  0.00    -0.472 OA
ATOM     32  H   UNL     1      50.873  19.273  21.872  0.00  0.00    +0.386 HD
ENDBRANCH  30  31
BRANCH   3   4
ATOM      4  C   UNL     1      47.216  17.580  17.274  0.00  0.00    +0.078 C 
BRANCH   4   5
ATOM      5  C   UNL     1      46.616  16.288  17.834  0.00  0.00    +0.059 C 
BRANCH   5   6
ATOM      6  C   UNL     1      45.499  16.625  18.788  0.00  0.00    -0.061 C 
ATOM      7  C   UNL     1      45.630  16.369  20.066  0.00  0.00    -0.127 C 
ATOM      8  C   UNL     1      44.541  16.764  21.029  0.00  0.00    +0.071 C 
ATOM      9  C   UNL     1      46.871  15.680  20.573  0.00  0.00    +0.071 C 
ENDBRANCH   5   6
ENDBRANCH   4   5
ENDBRANCH   3   4
BRANCH  13  14
ATOM     14  C   UNL     1      43.642  20.469  20.117  0.00  0.00    +0.063 C 
BRANCH  14  15
ATOM     15  C   UNL     1      42.604  19.991  19.099  0.00  0.00    +0.047 C 
BRANCH  15  16
ATOM     16  C   UNL     1      41.444  20.952  19.076  0.00  0.00    -0.060 C 
ATOM     17  C   UNL     1      40.348  20.641  18.429  0.00  0.00    -0.126 C 
ATOM     18  C   UNL     1      39.150  21.553  18.494  0.00  0.00    +0.072 C 
ATOM     19  C   UNL     1      40.286  19.371  17.621  0.00  0.00    +0.073 C 
ENDBRANCH  15  16
ENDBRANCH  14  15
ENDBRANCH  13  14
BRANCH  33  34
ATOM     34  C   UNL     1      51.633  17.601  19.590  0.00  0.00    +0.082 C 
BRANCH  34  35
ATOM     35  C   UNL     1      52.524  17.995  18.409  0.00  0.00    +0.058 C 
BRANCH  35  36
ATOM     36  C   UNL     1      52.288  19.443  18.062  0.00  0.00    -0.063 C 
ATOM     37  C   UNL     1      51.953  19.777  16.841  0.00  0.00    -0.127 C 
ATOM     38  C   UNL     1      51.577  21.202  16.525  0.00  0.00    +0.071 C 
ATOM     39  C   UNL     1      51.942  18.737  15.751  0.00  0.00    +0.073 C 
ENDBRANCH  35  36
ENDBRANCH  34  35
ENDBRANCH  33  34
TORSDOF 11
ENDMDL
MODEL 2
REMARK VINA RESULT:      -7.0      2.810      8.347
REMARK  Name = ZINC95485966
REMARK  18 active torsions:
REMARK  status: ('A' for Active; 'I' for Inactive)
REMARK    1  A    between atoms: C1_1  and  C2_2
REMARK    2  A    between atoms: C3_3  and  C28_33
REMARK    3  A    between atoms: C8_8  and  O2_19
REMARK    4  A    between atoms: C10_10  and  O1_18
REMARK    5  A    between atoms: C11_11  and  C12_12
REMARK    6  A    between atoms: C12_12  and  C13_13
REMARK    7  A    between atoms: C13_13  and  C14_14
REMARK    8  A    between atoms: C15_15  and  C16_16
REMARK    9  A    between atoms: C15_15  and  C17_17
REMARK   10  A    between atoms: C21_24  and  C22_26
REMARK   11  A    between atoms: C22_26  and  C23_27
REMARK   12  A    between atoms: C23_27  and  C24_28
REMARK   13  A    between atoms: C25_29  and  C26_30
REMARK   14  A    between atoms: C25_29  and  C27_31
REMARK   15  A    between atoms: C28_33  and  C29_34
REMARK   16  A    between atoms: C29_34  and  C30_35
REMARK   17  A    between atoms: C31_36  and  C32_37
REMARK   18  A    between atoms: C31_36  and  C33_38
REMARK                            x       y       z     vdW  Elec       q    Type
REMARK                         _______ _______ _______ _____ _____    ______ ____
ROOT
ATOM      1  C   UNL     1      44.092  21.230  19.978  0.00  0.00    +0.099 C 
ATOM      2  C   UNL     1      44.563  19.799  19.949  0.00  0.00    -0.037 A 
ATOM      3  C   UNL     1      45.652  19.467  19.198  0.00  0.00    -0.089 A 
ATOM     10  C   UNL     1      46.102  18.138  19.165  0.00  0.00    +0.012 A 
ATOM     11  C   UNL     1      47.229  17.775  18.405  0.00  0.00    +0.017 A 
ATOM     12  C   UNL     1      47.663  16.485  18.376  0.00  0.00    -0.016 A 
ATOM     13  C   UNL     1      48.898  16.173  17.566  0.00  0.00    +0.018 C 
ATOM     20  C   UNL     1      49.002  14.688  17.323  0.00  0.00    +0.376 C 
ATOM     21  O   UNL     1      49.258  14.253  16.226  0.00  0.00    -0.430 OA
ATOM     22  C   UNL     1      48.776  13.761  18.502  0.00  0.00    +0.043 C 
ATOM     23  C   UNL     1      47.401  14.085  19.047  0.00  0.00    +0.403 C 
ATOM     24  O   UNL     1      46.666  13.202  19.438  0.00  0.00    -0.420 OA
ATOM     25  C   UNL     1      46.976  15.489  19.096  0.00  0.00    -0.211 A 
ATOM     26  C   UNL     1      45.857  15.819  19.869  0.00  0.00    +0.216 A 
ATOM     29  C   UNL     1      45.411  17.152  19.911  0.00  0.00    -0.119 A 
ATOM     30  C   UNL     1      44.290  17.523  20.680  0.00  0.00    +0.142 A 
ATOM     33  C   UNL     1      43.884  18.841  20.693  0.00  0.00    -0.108 A 
ENDROOT
BRANCH  26  27
ATOM     27  O   UNL     1      45.207  14.861  20.570  0.00  0.00    -0.457 OA
ATOM     28  H   UNL     1      45.772  14.371  21.183  0.00  0.00    +0.393 HD
ENDBRANCH  26  27
BRANCH  30  31
ATOM     31  O   UNL     1      43.619  16.593  21.405  0.00  0.00    -0.472 OA
ATOM     32  H   UNL     1      42.671  16.766  21.485  0.00  0.00    +0.386 HD
ENDBRANCH  30  31
BRANCH   3   4
ATOM      4  C   UNL     1      46.371  20.526  18.405  0.00  0.00    +0.078 C 
BRANCH   4   5
ATOM      5  C   UNL     1      47.256  21.352  19.341  0.00  0.00    +0.059 C 
BRANCH   5   6
ATOM      6  C   UNL     1      48.585  20.664  19.513  0.00  0.00    -0.061 C 
ATOM      7  C   UNL     1      48.922  20.173  20.680  0.00  0.00    -0.127 C 
ATOM      8  C   UNL     1      50.222  19.429  20.837  0.00  0.00    +0.071 C 
ATOM      9  C   UNL     1      48.008  20.353  21.865  0.00  0.00    +0.071 C 
ENDBRANCH   5   6
ENDBRANCH   4   5
ENDBRANCH   3   4
BRANCH  13  14
ATOM     14  C   UNL     1      50.136  16.650  18.327  0.00  0.00    +0.063 C 
BRANCH  14  15
ATOM     15  C   UNL     1      51.156  17.217  17.337  0.00  0.00    +0.047 C 
BRANCH  15  16
ATOM     16  C   UNL     1      50.793  18.640  17.002  0.00  0.00    -0.060 C 
ATOM     17  C   UNL     1      51.570  19.623  17.386  0.00  0.00    -0.126 C 
ATOM     18  C   UNL     1      51.264  21.035  16.960  0.00  0.00    +0.072 C 
ATOM     19  C   UNL     1      52.768  19.339  18.253  0.00  0.00    +0.073 C 
ENDBRANCH  15  16
ENDBRANCH  14  15
ENDBRANCH  13  14
BRANCH  33  34
ATOM     34  C   UNL     1      42.690  19.246  21.518  0.00  0.00    +0.082 C 
BRANCH  34  35
ATOM     35  C   UNL     1      41.407  18.843  20.789  0.00  0.00    +0.058 C 
BRANCH  35  36
ATOM     36  C   UNL     1      40.634  20.081  20.411  0.00  0.00    -0.063 C 
ATOM     37  C   UNL     1      40.538  20.433  19.153  0.00  0.00    -0.127 C 
ATOM     38  C   UNL     1      39.649  21.585  18.758  0.00  0.00    +0.071 C 
ATOM     39  C   UNL     1      41.316  19.688  18.100  0.00  0.00    +0.073 C 
ENDBRANCH  35  36
ENDBRANCH  34  35
ENDBRANCH  33  34
TORSDOF 11
ENDMDL
MODEL 3
REMARK VINA RESULT:      -6.7      3.234      9.042
REMARK  Name = ZINC95485966
REMARK  18 active torsions:
REMARK  status: ('A' for Active; 'I' for Inactive)
REMARK    1  A    between atoms: C1_1  and  C2_2
REMARK    2  A    between atoms: C3_3  and  C28_33
REMARK    3  A    between atoms: C8_8  and  O2_19
REMARK    4  A    between atoms: C10_10  and  O1_18
REMARK    5  A    between atoms: C11_11  and  C12_12
REMARK    6  A    between atoms: C12_12  and  C13_13
REMARK    7  A    between atoms: C13_13  and  C14_14
REMARK    8  A    between atoms: C15_15  and  C16_16
REMARK    9  A    between atoms: C15_15  and  C17_17
REMARK   10  A    between atoms: C21_24  and  C22_26
REMARK   11  A    between atoms: C22_26  and  C23_27
REMARK   12  A    between atoms: C23_27  and  C24_28
REMARK   13  A    between atoms: C25_29  and  C26_30
REMARK   14  A    between atoms: C25_29  and  C27_31
REMARK   15  A    between atoms: C28_33  and  C29_34
REMARK   16  A    between atoms: C29_34  and  C30_35
REMARK   17  A    between atoms: C31_36  and  C32_37
REMARK   18  A    between atoms: C31_36  and  C33_38
REMARK                            x       y       z     vdW  Elec       q    Type
REMARK                         _______ _______ _______ _____ _____    ______ ____
ROOT
ATOM      1  C   UNL     1      48.966  20.799  19.961  0.00  0.00    +0.099 C 
ATOM      2  C   UNL     1      48.691  19.517  19.219  0.00  0.00    -0.037 A 
ATOM      3  C   UNL     1      49.660  18.558  19.155  0.00  0.00    -0.089 A 
ATOM     10  C   UNL     1      49.415  17.358  18.469  0.00  0.00    +0.012 A 
ATOM     11  C   UNL     1      50.396  16.352  18.400  0.00  0.00    +0.017 A 
ATOM     12  C   UNL     1      50.155  15.189  17.734  0.00  0.00    -0.016 A 
ATOM     13  C   UNL     1      51.240  14.140  17.728  0.00  0.00    +0.018 C 
ATOM     20  C   UNL     1      50.975  13.121  16.648  0.00  0.00    +0.376 C 
ATOM     21  O   UNL     1      51.855  12.758  15.905  0.00  0.00    -0.430 OA
ATOM     22  C   UNL     1      49.568  12.567  16.528  0.00  0.00    +0.043 C 
ATOM     23  C   UNL     1      48.652  13.756  16.331  0.00  0.00    +0.403 C 
ATOM     24  O   UNL     1      47.714  13.695  15.563  0.00  0.00    -0.420 OA
ATOM     25  C   UNL     1      48.920  14.985  17.089  0.00  0.00    -0.211 A 
ATOM     26  C   UNL     1      47.920  15.962  17.147  0.00  0.00    +0.216 A 
ATOM     29  C   UNL     1      48.160  17.161  17.842  0.00  0.00    -0.119 A 
ATOM     30  C   UNL     1      47.177  18.166  17.926  0.00  0.00    +0.142 A 
ATOM     33  C   UNL     1      47.453  19.327  18.616  0.00  0.00    -0.108 A 
ENDROOT
BRANCH  26  27
ATOM     27  O   UNL     1      46.729  15.756  16.536  0.00  0.00    -0.457 OA
ATOM     28  H   UNL     1      46.034  16.367  16.814  0.00  0.00    +0.393 HD
ENDBRANCH  26  27
BRANCH  30  31
ATOM     31  O   UNL     1      45.967  17.992  17.336  0.00  0.00    -0.472 OA
ATOM     32  H   UNL     1      46.010  17.895  16.375  0.00  0.00    +0.386 HD
ENDBRANCH  30  31
BRANCH   3   4
ATOM      4  C   UNL     1      50.990  18.788  19.821  0.00  0.00    +0.078 C 
BRANCH   4   5
ATOM      5  C   UNL     1      52.086  18.877  18.757  0.00  0.00    +0.059 C 
BRANCH   5   6
ATOM      6  C   UNL     1      51.937  20.164  17.988  0.00  0.00    -0.061 C 
ATOM      7  C   UNL     1      51.761  20.136  16.690  0.00  0.00    -0.127 C 
ATOM      8  C   UNL     1      51.548  21.419  15.930  0.00  0.00    +0.071 C 
ATOM      9  C   UNL     1      51.772  18.818  15.958  0.00  0.00    +0.071 C 
ENDBRANCH   5   6
ENDBRANCH   4   5
ENDBRANCH   3   4
BRANCH  13  14
ATOM     14  C   UNL     1      51.275  13.441  19.088  0.00  0.00    +0.063 C 
BRANCH  14  15
ATOM     15  C   UNL     1      52.689  13.525  19.667  0.00  0.00    +0.047 C 
BRANCH  15  16
ATOM     16  C   UNL     1      52.711  14.524  20.794  0.00  0.00    -0.060 C 
ATOM     17  C   UNL     1      53.340  15.665  20.647  0.00  0.00    -0.126 C 
ATOM     18  C   UNL     1      53.272  16.708  21.732  0.00  0.00    +0.072 C 
ATOM     19  C   UNL     1      54.130  15.931  19.392  0.00  0.00    +0.073 C 
ENDBRANCH  15  16
ENDBRANCH  14  15
ENDBRANCH  13  14
BRANCH  33  34
ATOM     34  C   UNL     1      46.404  20.405  18.714  0.00  0.00    +0.082 C 
BRANCH  34  35
ATOM     35  C   UNL     1      45.604  20.221  20.006  0.00  0.00    +0.058 C 
BRANCH  35  36
ATOM     36  C   UNL     1      44.130  20.260  19.694  0.00  0.00    -0.063 C 
ATOM     37  C   UNL     1      43.378  19.219  19.952  0.00  0.00    -0.127 C 
ATOM     38  C   UNL     1      41.884  19.305  19.777  0.00  0.00    +0.071 C 
ATOM     39  C   UNL     1      44.008  17.934  20.425  0.00  0.00    +0.073 C 
ENDBRANCH  35  36
ENDBRANCH  34  35
ENDBRANCH  33  34
TORSDOF 11
ENDMDL
MODEL 4
REMARK VINA RESULT:      -6.1      2.613      7.880
REMARK  Name = ZINC95485966
REMARK  18 active torsions:
REMARK  status: ('A' for Active; 'I' for Inactive)
REMARK    1  A    between atoms: C1_1  and  C2_2
REMARK    2  A    between atoms: C3_3  and  C28_33
REMARK    3  A    between atoms: C8_8  and  O2_19
REMARK    4  A    between atoms: C10_10  and  O1_18
REMARK    5  A    between atoms: C11_11  and  C12_12
REMARK    6  A    between atoms: C12_12  and  C13_13
REMARK    7  A    between atoms: C13_13  and  C14_14
REMARK    8  A    between atoms: C15_15  and  C16_16
REMARK    9  A    between atoms: C15_15  and  C17_17
REMARK   10  A    between atoms: C21_24  and  C22_26
REMARK   11  A    between atoms: C22_26  and  C23_27
REMARK   12  A    between atoms: C23_27  and  C24_28
REMARK   13  A    between atoms: C25_29  and  C26_30
REMARK   14  A    between atoms: C25_29  and  C27_31
REMARK   15  A    between atoms: C28_33  and  C29_34
REMARK   16  A    between atoms: C29_34  and  C30_35
REMARK   17  A    between atoms: C31_36  and  C32_37
REMARK   18  A    between atoms: C31_36  and  C33_38
REMARK                            x       y       z     vdW  Elec       q    Type
REMARK                         _______ _______ _______ _____ _____    ______ ____
ROOT
ATOM      1  C   UNL     1      47.098  21.901  21.053  0.00  0.00    +0.099 C 
ATOM      2  C   UNL     1      47.031  20.659  20.203  0.00  0.00    -0.037 A 
ATOM      3  C   UNL     1      47.997  19.705  20.332  0.00  0.00    -0.089 A 
ATOM     10  C   UNL     1      47.945  18.543  19.547  0.00  0.00    +0.012 A 
ATOM     11  C   UNL     1      48.925  17.541  19.671  0.00  0.00    +0.017 A 
ATOM     12  C   UNL     1      48.870  16.415  18.909  0.00  0.00    -0.016 A 
ATOM     13  C   UNL     1      49.936  15.367  19.118  0.00  0.00    +0.018 C 
ATOM     20  C   UNL     1      49.958  14.405  17.956  0.00  0.00    +0.376 C 
ATOM     21  O   UNL     1      50.999  14.081  17.436  0.00  0.00    -0.430 OA
ATOM     22  C   UNL     1      48.632  13.859  17.465  0.00  0.00    +0.043 C 
ATOM     23  C   UNL     1      47.778  15.056  17.108  0.00  0.00    +0.403 C 
ATOM     24  O   UNL     1      47.059  15.035  16.130  0.00  0.00    -0.420 OA
ATOM     25  C   UNL     1      47.835  16.244  17.970  0.00  0.00    -0.211 A 
ATOM     26  C   UNL     1      46.839  17.217  17.828  0.00  0.00    +0.216 A 
ATOM     29  C   UNL     1      46.886  18.378  18.621  0.00  0.00    -0.119 A 
ATOM     30  C   UNL     1      45.899  19.378  18.510  0.00  0.00    +0.142 A 
ATOM     33  C   UNL     1      45.982  20.502  19.304  0.00  0.00    -0.108 A 
ENDROOT
BRANCH  26  27
ATOM     27  O   UNL     1      45.839  17.043  16.933  0.00  0.00    -0.457 OA
ATOM     28  H   UNL     1      45.699  16.122  16.674  0.00  0.00    +0.393 HD
ENDBRANCH  26  27
BRANCH  30  31
ATOM     31  O   UNL     1      44.875  19.234  17.631  0.00  0.00    -0.472 OA
ATOM     32  H   UNL     1      44.082  19.735  17.867  0.00  0.00    +0.386 HD
ENDBRANCH  30  31
BRANCH   3   4
ATOM      4  C   UNL     1      49.120  19.899  21.316  0.00  0.00    +0.078 C 
BRANCH   4   5
ATOM      5  C   UNL     1      50.139  20.885  20.741  0.00  0.00    +0.059 C 
BRANCH   5   6
ATOM      6  C   UNL     1      51.245  20.123  20.057  0.00  0.00    -0.061 C 
ATOM      7  C   UNL     1      51.443  20.269  18.771  0.00  0.00    -0.127 C 
ATOM      8  C   UNL     1      52.588  19.558  18.098  0.00  0.00    +0.071 C 
ATOM      9  C   UNL     1      50.524  21.150  17.963  0.00  0.00    +0.071 C 
ENDBRANCH   5   6
ENDBRANCH   4   5
ENDBRANCH   3   4
BRANCH  13  14
ATOM     14  C   UNL     1      49.644  14.598  20.408  0.00  0.00    +0.063 C 
BRANCH  14  15
ATOM     15  C   UNL     1      48.223  14.032  20.353  0.00  0.00    +0.047 C 
BRANCH  15  16
ATOM     16  C   UNL     1      47.361  14.746  21.361  0.00  0.00    -0.060 C 
ATOM     17  C   UNL     1      46.069  14.847  21.164  0.00  0.00    -0.126 C 
ATOM     18  C   UNL     1      45.192  15.466  22.221  0.00  0.00    +0.072 C 
ATOM     19  C   UNL     1      45.462  14.345  19.880  0.00  0.00    +0.073 C 
ENDBRANCH  15  16
ENDBRANCH  14  15
ENDBRANCH  13  14
BRANCH  33  34
ATOM     34  C   UNL     1      44.928  21.572  19.195  0.00  0.00    +0.082 C 
BRANCH  34  35
ATOM     35  C   UNL     1      43.661  21.118  19.924  0.00  0.00    +0.058 C 
BRANCH  35  36
ATOM     36  C   UNL     1      42.448  21.533  19.131  0.00  0.00    -0.063 C 
ATOM     37  C   UNL     1      41.378  20.778  19.128  0.00  0.00    -0.127 C 
ATOM     38  C   UNL     1      40.118  21.257  18.456  0.00  0.00    +0.071 C 
ATOM     39  C   UNL     1      41.407  19.428  19.798  0.00  0.00    +0.073 C 
ENDBRANCH  35  36
ENDBRANCH  34  35
ENDBRANCH  33  34
TORSDOF 11
ENDMDL
MODEL 5
REMARK VINA RESULT:      -6.1      3.029      6.335
REMARK  Name = ZINC95485966
REMARK  18 active torsions:
REMARK  status: ('A' for Active; 'I' for Inactive)
REMARK    1  A    between atoms: C1_1  and  C2_2
REMARK    2  A    between atoms: C3_3  and  C28_33
REMARK    3  A    between atoms: C8_8  and  O2_19
REMARK    4  A    between atoms: C10_10  and  O1_18
REMARK    5  A    between atoms: C11_11  and  C12_12
REMARK    6  A    between atoms: C12_12  and  C13_13
REMARK    7  A    between atoms: C13_13  and  C14_14
REMARK    8  A    between atoms: C15_15  and  C16_16
REMARK    9  A    between atoms: C15_15  and  C17_17
REMARK   10  A    between atoms: C21_24  and  C22_26
REMARK   11  A    between atoms: C22_26  and  C23_27
REMARK   12  A    between atoms: C23_27  and  C24_28
REMARK   13  A    between atoms: C25_29  and  C26_30
REMARK   14  A    between atoms: C25_29  and  C27_31
REMARK   15  A    between atoms: C28_33  and  C29_34
REMARK   16  A    between atoms: C29_34  and  C30_35
REMARK   17  A    between atoms: C31_36  and  C32_37
REMARK   18  A    between atoms: C31_36  and  C33_38
REMARK                            x       y       z     vdW  Elec       q    Type
REMARK                         _______ _______ _______ _____ _____    ______ ____
ROOT
ATOM      1  C   UNL     1      50.812  13.759  20.379  0.00  0.00    +0.099 C 
ATOM      2  C   UNL     1      49.507  14.511  20.346  0.00  0.00    -0.037 A 
ATOM      3  C   UNL     1      49.501  15.854  20.584  0.00  0.00    -0.089 A 
ATOM     10  C   UNL     1      48.292  16.567  20.554  0.00  0.00    +0.012 A 
ATOM     11  C   UNL     1      48.264  17.954  20.786  0.00  0.00    +0.017 A 
ATOM     12  C   UNL     1      47.090  18.642  20.756  0.00  0.00    -0.016 A 
ATOM     13  C   UNL     1      47.138  20.133  20.981  0.00  0.00    +0.018 C 
ATOM     20  C   UNL     1      45.761  20.657  21.304  0.00  0.00    +0.376 C 
ATOM     21  O   UNL     1      45.585  21.423  22.221  0.00  0.00    -0.430 OA
ATOM     22  C   UNL     1      44.606  20.193  20.438  0.00  0.00    +0.043 C 
ATOM     23  C   UNL     1      44.596  18.680  20.508  0.00  0.00    +0.403 C 
ATOM     24  O   UNL     1      43.549  18.070  20.564  0.00  0.00    -0.420 OA
ATOM     25  C   UNL     1      45.879  17.967  20.507  0.00  0.00    -0.211 A 
ATOM     26  C   UNL     1      45.874  16.589  20.262  0.00  0.00    +0.216 A 
ATOM     29  C   UNL     1      47.086  15.875  20.282  0.00  0.00    -0.119 A 
ATOM     30  C   UNL     1      47.121  14.488  20.038  0.00  0.00    +0.142 A 
ATOM     33  C   UNL     1      48.330  13.826  20.068  0.00  0.00    -0.108 A 
ENDROOT
BRANCH  26  27
ATOM     27  O   UNL     1      44.709  15.946  20.010  0.00  0.00    -0.457 OA
ATOM     28  H   UNL     1      44.727  15.003  20.221  0.00  0.00    +0.393 HD
ENDBRANCH  26  27
BRANCH  30  31
ATOM     31  O   UNL     1      45.976  13.811  19.770  0.00  0.00    -0.472 OA
ATOM     32  H   UNL     1      45.792  13.708  18.827  0.00  0.00    +0.386 HD
ENDBRANCH  30  31
BRANCH   3   4
ATOM      4  C   UNL     1      50.791  16.572  20.879  0.00  0.00    +0.078 C 
BRANCH   4   5
ATOM      5  C   UNL     1      51.029  17.652  19.821  0.00  0.00    +0.059 C 
BRANCH   5   6
ATOM      6  C   UNL     1      51.717  17.044  18.627  0.00  0.00    -0.061 C 
ATOM      7  C   UNL     1      51.119  17.031  17.462  0.00  0.00    -0.127 C 
ATOM      8  C   UNL     1      51.833  16.482  16.254  0.00  0.00    +0.071 C 
ATOM      9  C   UNL     1      49.716  17.568  17.330  0.00  0.00    +0.071 C 
ENDBRANCH   5   6
ENDBRANCH   4   5
ENDBRANCH   3   4
BRANCH  13  14
ATOM     14  C   UNL     1      47.658  20.820  19.717  0.00  0.00    +0.063 C 
BRANCH  14  15
ATOM     15  C   UNL     1      49.180  20.961  19.804  0.00  0.00    +0.047 C 
BRANCH  15  16
ATOM     16  C   UNL     1      49.766  20.934  18.416  0.00  0.00    -0.060 C 
ATOM     17  C   UNL     1      51.062  21.025  18.250  0.00  0.00    -0.126 C 
ATOM     18  C   UNL     1      51.656  20.891  16.872  0.00  0.00    +0.072 C 
ATOM     19  C   UNL     1      51.958  21.264  19.437  0.00  0.00    +0.073 C 
ENDBRANCH  15  16
ENDBRANCH  14  15
ENDBRANCH  13  14
BRANCH  33  34
ATOM     34  C   UNL     1      48.375  12.344  19.802  0.00  0.00    +0.082 C 
BRANCH  34  35
ATOM     35  C   UNL     1      48.175  12.088  18.306  0.00  0.00    +0.058 C 
BRANCH  35  36
ATOM     36  C   UNL     1      49.518  11.945  17.636  0.00  0.00    -0.063 C 
ATOM     37  C   UNL     1      49.948  12.881  16.826  0.00  0.00    -0.127 C 
ATOM     38  C   UNL     1      51.346  12.812  16.269  0.00  0.00    +0.071 C 
ATOM     39  C   UNL     1      49.044  14.027  16.452  0.00  0.00    +0.073 C 
ENDBRANCH  35  36
ENDBRANCH  34  35
ENDBRANCH  33  34
TORSDOF 11
ENDMDL
MODEL 6
REMARK VINA RESULT:      -6.0      3.552      8.561
REMARK  Name = ZINC95485966
REMARK  18 active torsions:
REMARK  status: ('A' for Active; 'I' for Inactive)
REMARK    1  A    between atoms: C1_1  and  C2_2
REMARK    2  A    between atoms: C3_3  and  C28_33
REMARK    3  A    between atoms: C8_8  and  O2_19
REMARK    4  A    between atoms: C10_10  and  O1_18
REMARK    5  A    between atoms: C11_11  and  C12_12
REMARK    6  A    between atoms: C12_12  and  C13_13
REMARK    7  A    between atoms: C13_13  and  C14_14
REMARK    8  A    between atoms: C15_15  and  C16_16
REMARK    9  A    between atoms: C15_15  and  C17_17
REMARK   10  A    between atoms: C21_24  and  C22_26
REMARK   11  A    between atoms: C22_26  and  C23_27
REMARK   12  A    between atoms: C23_27  and  C24_28
REMARK   13  A    between atoms: C25_29  and  C26_30
REMARK   14  A    between atoms: C25_29  and  C27_31
REMARK   15  A    between atoms: C28_33  and  C29_34
REMARK   16  A    between atoms: C29_34  and  C30_35
REMARK   17  A    between atoms: C31_36  and  C32_37
REMARK   18  A    between atoms: C31_36  and  C33_38
REMARK                            x       y       z     vdW  Elec       q    Type
REMARK                         _______ _______ _______ _____ _____    ______ ____
ROOT
ATOM      1  C   UNL     1      47.846  19.535  21.629  0.00  0.00    +0.099 C 
ATOM      2  C   UNL     1      47.341  18.274  20.977  0.00  0.00    -0.037 A 
ATOM      3  C   UNL     1      48.112  17.647  20.043  0.00  0.00    -0.089 A 
ATOM     10  C   UNL     1      47.654  16.470  19.430  0.00  0.00    +0.012 A 
ATOM     11  C   UNL     1      48.437  15.802  18.471  0.00  0.00    +0.017 A 
ATOM     12  C   UNL     1      47.990  14.661  17.879  0.00  0.00    -0.016 A 
ATOM     13  C   UNL     1      48.896  13.979  16.884  0.00  0.00    +0.018 C 
ATOM     20  C   UNL     1      48.113  12.991  16.055  0.00  0.00    +0.376 C 
ATOM     21  O   UNL     1      48.240  12.946  14.855  0.00  0.00    -0.430 OA
ATOM     22  C   UNL     1      47.163  12.057  16.779  0.00  0.00    +0.043 C 
ATOM     23  C   UNL     1      46.203  12.934  17.554  0.00  0.00    +0.403 C 
ATOM     24  O   UNL     1      45.027  12.645  17.634  0.00  0.00    -0.420 OA
ATOM     25  C   UNL     1      46.724  14.141  18.208  0.00  0.00    -0.211 A 
ATOM     26  C   UNL     1      45.924  14.776  19.166  0.00  0.00    +0.216 A 
ATOM     29  C   UNL     1      46.386  15.950  19.787  0.00  0.00    -0.119 A 
ATOM     30  C   UNL     1      45.611  16.616  20.758  0.00  0.00    +0.142 A 
ATOM     33  C   UNL     1      46.100  17.765  21.343  0.00  0.00    -0.108 A 
ENDROOT
BRANCH  26  27
ATOM     27  O   UNL     1      44.712  14.265  19.489  0.00  0.00    -0.457 OA
ATOM     28  H   UNL     1      44.702  13.303  19.576  0.00  0.00    +0.393 HD
ENDBRANCH  26  27
BRANCH  30  31
ATOM     31  O   UNL     1      44.396  16.129  21.116  0.00  0.00    -0.472 OA
ATOM     32  H   UNL     1      43.774  16.047  20.381  0.00  0.00    +0.386 HD
ENDBRANCH  30  31
BRANCH   3   4
ATOM      4  C   UNL     1      49.455  18.218  19.669  0.00  0.00    +0.078 C 
BRANCH   4   5
ATOM      5  C   UNL     1      49.257  19.456  18.792  0.00  0.00    +0.059 C 
BRANCH   5   6
ATOM      6  C   UNL     1      50.216  19.407  17.630  0.00  0.00    -0.061 C 
ATOM      7  C   UNL     1      51.235  20.228  17.587  0.00  0.00    -0.127 C 
ATOM      8  C   UNL     1      52.230  20.136  16.459  0.00  0.00    +0.071 C 
ATOM      9  C   UNL     1      51.414  21.264  18.667  0.00  0.00    +0.071 C 
ENDBRANCH   5   6
ENDBRANCH   4   5
ENDBRANCH   3   4
BRANCH  13  14
ATOM     14  C   UNL     1      50.008  13.242  17.633  0.00  0.00    +0.063 C 
BRANCH  14  15
ATOM     15  C   UNL     1      51.369  13.743  17.145  0.00  0.00    +0.047 C 
BRANCH  15  16
ATOM     16  C   UNL     1      51.967  14.659  18.182  0.00  0.00    -0.060 C 
ATOM     17  C   UNL     1      52.108  15.936  17.925  0.00  0.00    -0.126 C 
ATOM     18  C   UNL     1      52.606  16.870  18.998  0.00  0.00    +0.072 C 
ATOM     19  C   UNL     1      51.773  16.470  16.557  0.00  0.00    +0.073 C 
ENDBRANCH  15  16
ENDBRANCH  14  15
ENDBRANCH  13  14
BRANCH  33  34
ATOM     34  C   UNL     1      45.280  18.479  22.385  0.00  0.00    +0.082 C 
BRANCH  34  35
ATOM     35  C   UNL     1      44.179  19.290  21.699  0.00  0.00    +0.058 C 
BRANCH  35  36
ATOM     36  C   UNL     1      44.529  20.755  21.748  0.00  0.00    -0.063 C 
ATOM     37  C   UNL     1      44.809  21.399  20.642  0.00  0.00    -0.127 C 
ATOM     38  C   UNL     1      45.018  22.891  20.669  0.00  0.00    +0.071 C 
ATOM     39  C   UNL     1      44.922  20.647  19.341  0.00  0.00    +0.073 C 
ENDBRANCH  35  36
ENDBRANCH  34  35
ENDBRANCH  33  34
TORSDOF 11
ENDMDL
MODEL 7
REMARK VINA RESULT:      -5.9      2.393      7.860
REMARK  Name = ZINC95485966
REMARK  18 active torsions:
REMARK  status: ('A' for Active; 'I' for Inactive)
REMARK    1  A    between atoms: C1_1  and  C2_2
REMARK    2  A    between atoms: C3_3  and  C28_33
REMARK    3  A    between atoms: C8_8  and  O2_19
REMARK    4  A    between atoms: C10_10  and  O1_18
REMARK    5  A    between atoms: C11_11  and  C12_12
REMARK    6  A    between atoms: C12_12  and  C13_13
REMARK    7  A    between atoms: C13_13  and  C14_14
REMARK    8  A    between atoms: C15_15  and  C16_16
REMARK    9  A    between atoms: C15_15  and  C17_17
REMARK   10  A    between atoms: C21_24  and  C22_26
REMARK   11  A    between atoms: C22_26  and  C23_27
REMARK   12  A    between atoms: C23_27  and  C24_28
REMARK   13  A    between atoms: C25_29  and  C26_30
REMARK   14  A    between atoms: C25_29  and  C27_31
REMARK   15  A    between atoms: C28_33  and  C29_34
REMARK   16  A    between atoms: C29_34  and  C30_35
REMARK   17  A    between atoms: C31_36  and  C32_37
REMARK   18  A    between atoms: C31_36  and  C33_38
REMARK                            x       y       z     vdW  Elec       q    Type
REMARK                         _______ _______ _______ _____ _____    ______ ____
ROOT
ATOM      1  C   UNL     1      43.963  17.468  21.574  0.00  0.00    +0.099 C 
ATOM      2  C   UNL     1      45.198  18.003  20.896  0.00  0.00    -0.037 A 
ATOM      3  C   UNL     1      46.181  17.137  20.513  0.00  0.00    -0.089 A 
ATOM     10  C   UNL     1      47.335  17.622  19.880  0.00  0.00    +0.012 A 
ATOM     11  C   UNL     1      48.356  16.746  19.467  0.00  0.00    +0.017 A 
ATOM     12  C   UNL     1      49.474  17.220  18.852  0.00  0.00    -0.016 A 
ATOM     13  C   UNL     1      50.513  16.221  18.407  0.00  0.00    +0.018 C 
ATOM     20  C   UNL     1      51.819  16.918  18.119  0.00  0.00    +0.376 C 
ATOM     21  O   UNL     1      52.865  16.479  18.535  0.00  0.00    -0.430 OA
ATOM     22  C   UNL     1      51.776  18.187  17.290  0.00  0.00    +0.043 C 
ATOM     23  C   UNL     1      50.846  19.141  18.010  0.00  0.00    +0.403 C 
ATOM     24  O   UNL     1      51.099  20.326  18.069  0.00  0.00    -0.420 OA
ATOM     25  C   UNL     1      49.632  18.602  18.635  0.00  0.00    -0.211 A 
ATOM     26  C   UNL     1      48.631  19.500  19.024  0.00  0.00    +0.216 A 
ATOM     29  C   UNL     1      47.469  19.014  19.651  0.00  0.00    -0.119 A 
ATOM     30  C   UNL     1      46.438  19.885  20.055  0.00  0.00    +0.142 A 
ATOM     33  C   UNL     1      45.316  19.369  20.667  0.00  0.00    -0.108 A 
ENDROOT
BRANCH  26  27
ATOM     27  O   UNL     1      48.780  20.827  18.802  0.00  0.00    -0.457 OA
ATOM     28  H   UNL     1      49.158  21.310  19.549  0.00  0.00    +0.393 HD
ENDBRANCH  26  27
BRANCH  30  31
ATOM     31  O   UNL     1      46.547  21.221  19.839  0.00  0.00    -0.472 OA
ATOM     32  H   UNL     1      47.403  21.492  19.481  0.00  0.00    +0.386 HD
ENDBRANCH  30  31
BRANCH   3   4
ATOM      4  C   UNL     1      46.026  15.662  20.771  0.00  0.00    +0.078 C 
BRANCH   4   5
ATOM      5  C   UNL     1      45.383  14.995  19.553  0.00  0.00    +0.059 C 
BRANCH   5   6
ATOM      6  C   UNL     1      45.998  13.635  19.341  0.00  0.00    -0.061 C 
ATOM      7  C   UNL     1      46.608  13.361  18.215  0.00  0.00    -0.127 C 
ATOM      8  C   UNL     1      47.279  12.024  18.028  0.00  0.00    +0.071 C 
ATOM      9  C   UNL     1      46.641  14.382  17.107  0.00  0.00    +0.071 C 
ENDBRANCH   5   6
ENDBRANCH   4   5
ENDBRANCH   3   4
BRANCH  13  14
ATOM     14  C   UNL     1      50.026  15.514  17.140  0.00  0.00    +0.063 C 
BRANCH  14  15
ATOM     15  C   UNL     1      50.426  14.038  17.195  0.00  0.00    +0.047 C 
BRANCH  15  16
ATOM     16  C   UNL     1      51.235  13.692  15.972  0.00  0.00    -0.060 C 
ATOM     17  C   UNL     1      50.651  13.153  14.930  0.00  0.00    -0.126 C 
ATOM     18  C   UNL     1      51.438  12.905  13.669  0.00  0.00    +0.072 C 
ATOM     19  C   UNL     1      49.192  12.781  14.994  0.00  0.00    +0.073 C 
ENDBRANCH  15  16
ENDBRANCH  14  15
ENDBRANCH  13  14
BRANCH  33  34
ATOM     34  C   UNL     1      44.207  20.294  21.096  0.00  0.00    +0.082 C 
BRANCH  34  35
ATOM     35  C   UNL     1      43.600  20.969  19.864  0.00  0.00    +0.058 C 
BRANCH  35  36
ATOM     36  C   UNL     1      42.552  20.069  19.262  0.00  0.00    -0.063 C 
ATOM     37  C   UNL     1      41.512  20.588  18.658  0.00  0.00    -0.127 C 
ATOM     38  C   UNL     1      40.538  19.695  17.932  0.00  0.00    +0.071 C 
ATOM     39  C   UNL     1      41.287  22.078  18.690  0.00  0.00    +0.073 C 
ENDBRANCH  35  36
ENDBRANCH  34  35
ENDBRANCH  33  34
TORSDOF 11
ENDMDL
MODEL 8
REMARK VINA RESULT:      -5.9      4.347      8.957
REMARK  Name = ZINC95485966
REMARK  18 active torsions:
REMARK  status: ('A' for Active; 'I' for Inactive)
REMARK    1  A    between atoms: C1_1  and  C2_2
REMARK    2  A    between atoms: C3_3  and  C28_33
REMARK    3  A    between atoms: C8_8  and  O2_19
REMARK    4  A    between atoms: C10_10  and  O1_18
REMARK    5  A    between atoms: C11_11  and  C12_12
REMARK    6  A    between atoms: C12_12  and  C13_13
REMARK    7  A    between atoms: C13_13  and  C14_14
REMARK    8  A    between atoms: C15_15  and  C16_16
REMARK    9  A    between atoms: C15_15  and  C17_17
REMARK   10  A    between atoms: C21_24  and  C22_26
REMARK   11  A    between atoms: C22_26  and  C23_27
REMARK   12  A    between atoms: C23_27  and  C24_28
REMARK   13  A    between atoms: C25_29  and  C26_30
REMARK   14  A    between atoms: C25_29  and  C27_31
REMARK   15  A    between atoms: C28_33  and  C29_34
REMARK   16  A    between atoms: C29_34  and  C30_35
REMARK   17  A    between atoms: C31_36  and  C32_37
REMARK   18  A    between atoms: C31_36  and  C33_38
REMARK                            x       y       z     vdW  Elec       q    Type
REMARK                         _______ _______ _______ _____ _____    ______ ____
ROOT
ATOM      1  C   UNL     1      48.814  18.555  20.788  0.00  0.00    +0.099 C 
ATOM      2  C   UNL     1      48.054  17.389  20.211  0.00  0.00    -0.037 A 
ATOM      3  C   UNL     1      48.621  16.644  19.219  0.00  0.00    -0.089 A 
ATOM     10  C   UNL     1      47.924  15.554  18.675  0.00  0.00    +0.012 A 
ATOM     11  C   UNL     1      48.494  14.765  17.658  0.00  0.00    +0.017 A 
ATOM     12  C   UNL     1      47.816  13.708  17.134  0.00  0.00    -0.016 A 
ATOM     13  C   UNL     1      48.501  12.887  16.070  0.00  0.00    +0.018 C 
ATOM     20  C   UNL     1      47.494  12.034  15.339  0.00  0.00    +0.376 C 
ATOM     21  O   UNL     1      47.494  11.965  14.133  0.00  0.00    -0.430 OA
ATOM     22  C   UNL     1      46.483  11.266  16.168  0.00  0.00    +0.043 C 
ATOM     23  C   UNL     1      45.755  12.288  17.015  0.00  0.00    +0.403 C 
ATOM     24  O   UNL     1      44.561  12.191  17.213  0.00  0.00    -0.420 OA
ATOM     25  C   UNL     1      46.522  13.398  17.593  0.00  0.00    -0.211 A 
ATOM     26  C   UNL     1      45.930  14.156  18.610  0.00  0.00    +0.216 A 
ATOM     29  C   UNL     1      46.631  15.243  19.163  0.00  0.00    -0.119 A 
ATOM     30  C   UNL     1      46.070  16.028  20.190  0.00  0.00    +0.142 A 
ATOM     33  C   UNL     1      46.790  17.086  20.703  0.00  0.00    -0.108 A 
ENDROOT
BRANCH  26  27
ATOM     27  O   UNL     1      44.690  13.847  19.058  0.00  0.00    -0.457 OA
ATOM     28  H   UNL     1      44.540  12.899  19.174  0.00  0.00    +0.393 HD
ENDBRANCH  26  27
BRANCH  30  31
ATOM     31  O   UNL     1      44.834  15.742  20.672  0.00  0.00    -0.472 OA
ATOM     32  H   UNL     1      44.791  14.921  21.180  0.00  0.00    +0.386 HD
ENDBRANCH  30  31
BRANCH   3   4
ATOM      4  C   UNL     1      49.994  16.992  18.708  0.00  0.00    +0.078 C 
BRANCH   4   5
ATOM      5  C   UNL     1      49.870  17.741  17.379  0.00  0.00    +0.059 C 
BRANCH   5   6
ATOM      6  C   UNL     1      50.409  19.139  17.538  0.00  0.00    -0.061 C 
ATOM      7  C   UNL     1      51.336  19.579  16.724  0.00  0.00    -0.127 C 
ATOM      8  C   UNL     1      51.829  20.999  16.841  0.00  0.00    +0.071 C 
ATOM      9  C   UNL     1      51.909  18.666  15.671  0.00  0.00    +0.071 C 
ENDBRANCH   5   6
ENDBRANCH   4   5
ENDBRANCH   3   4
BRANCH  13  14
ATOM     14  C   UNL     1      49.550  11.985  16.723  0.00  0.00    +0.063 C 
BRANCH  14  15
ATOM     15  C   UNL     1      50.931  12.311  16.149  0.00  0.00    +0.047 C 
BRANCH  15  16
ATOM     16  C   UNL     1      50.770  13.022  14.831  0.00  0.00    -0.060 C 
ATOM     17  C   UNL     1      50.964  12.375  13.708  0.00  0.00    -0.126 C 
ATOM     18  C   UNL     1      50.700  13.056  12.390  0.00  0.00    +0.072 C 
ATOM     19  C   UNL     1      51.450  10.949  13.736  0.00  0.00    +0.073 C 
ENDBRANCH  15  16
ENDBRANCH  14  15
ENDBRANCH  13  14
BRANCH  33  34
ATOM     34  C   UNL     1      46.198  17.925  21.806  0.00  0.00    +0.082 C 
BRANCH  34  35
ATOM     35  C   UNL     1      45.019  18.731  21.257  0.00  0.00    +0.058 C 
BRANCH  35  36
ATOM     36  C   UNL     1      45.522  20.032  20.684  0.00  0.00    -0.063 C 
ATOM     37  C   UNL     1      45.435  20.258  19.397  0.00  0.00    -0.127 C 
ATOM     38  C   UNL     1      45.803  21.610  18.842  0.00  0.00    +0.071 C 
ATOM     39  C   UNL     1      44.967  19.165  18.470  0.00  0.00    +0.073 C 
ENDBRANCH  35  36
ENDBRANCH  34  35
ENDBRANCH  33  34
TORSDOF 11
ENDMDL
MODEL 9
REMARK VINA RESULT:      -5.9      3.609      8.867
REMARK  Name = ZINC95485966
REMARK  18 active torsions:
REMARK  status: ('A' for Active; 'I' for Inactive)
REMARK    1  A    between atoms: C1_1  and  C2_2
REMARK    2  A    between atoms: C3_3  and  C28_33
REMARK    3  A    between atoms: C8_8  and  O2_19
REMARK    4  A    between atoms: C10_10  and  O1_18
REMARK    5  A    between atoms: C11_11  and  C12_12
REMARK    6  A    between atoms: C12_12  and  C13_13
REMARK    7  A    between atoms: C13_13  and  C14_14
REMARK    8  A    between atoms: C15_15  and  C16_16
REMARK    9  A    between atoms: C15_15  and  C17_17
REMARK   10  A    between atoms: C21_24  and  C22_26
REMARK   11  A    between atoms: C22_26  and  C23_27
REMARK   12  A    between atoms: C23_27  and  C24_28
REMARK   13  A    between atoms: C25_29  and  C26_30
REMARK   14  A    between atoms: C25_29  and  C27_31
REMARK   15  A    between atoms: C28_33  and  C29_34
REMARK   16  A    between atoms: C29_34  and  C30_35
REMARK   17  A    between atoms: C31_36  and  C32_37
REMARK   18  A    between atoms: C31_36  and  C33_38
REMARK                            x       y       z     vdW  Elec       q    Type
REMARK                         _______ _______ _______ _____ _____    ______ ____
ROOT
ATOM      1  C   UNL     1      49.019  19.847  19.719  0.00  0.00    +0.099 C 
ATOM      2  C   UNL     1      48.784  18.599  18.908  0.00  0.00    -0.037 A 
ATOM      3  C   UNL     1      49.768  17.659  18.822  0.00  0.00    -0.089 A 
ATOM     10  C   UNL     1      49.561  16.492  18.072  0.00  0.00    +0.012 A 
ATOM     11  C   UNL     1      50.559  15.504  17.979  0.00  0.00    +0.017 A 
ATOM     12  C   UNL     1      50.353  14.373  17.251  0.00  0.00    -0.016 A 
ATOM     13  C   UNL     1      51.454  13.341  17.221  0.00  0.00    +0.018 C 
ATOM     20  C   UNL     1      51.233  12.373  16.086  0.00  0.00    +0.376 C 
ATOM     21  O   UNL     1      52.138  12.060  15.349  0.00  0.00    -0.430 OA
ATOM     22  C   UNL     1      49.839  11.805  15.902  0.00  0.00    +0.043 C 
ATOM     23  C   UNL     1      48.910  12.989  15.740  0.00  0.00    +0.403 C 
ATOM     24  O   UNL     1      47.993  12.953  14.945  0.00  0.00    -0.420 OA
ATOM     25  C   UNL     1      49.139  14.183  16.564  0.00  0.00    -0.211 A 
ATOM     26  C   UNL     1      48.122  15.141  16.644  0.00  0.00    +0.216 A 
ATOM     29  C   UNL     1      48.326  16.307  17.403  0.00  0.00    -0.119 A 
ATOM     30  C   UNL     1      47.325  17.293  17.510  0.00  0.00    +0.142 A 
ATOM     33  C   UNL     1      47.565  18.422  18.264  0.00  0.00    -0.108 A 
ENDROOT
BRANCH  26  27
ATOM     27  O   UNL     1      46.951  14.948  15.992  0.00  0.00    -0.457 OA
ATOM     28  H   UNL     1      47.037  14.916  15.030  0.00  0.00    +0.393 HD
ENDBRANCH  26  27
BRANCH  30  31
ATOM     31  O   UNL     1      46.133  17.130  16.880  0.00  0.00    -0.472 OA
ATOM     32  H   UNL     1      45.756  16.246  16.977  0.00  0.00    +0.386 HD
ENDBRANCH  30  31
BRANCH   3   4
ATOM      4  C   UNL     1      51.078  17.875  19.533  0.00  0.00    +0.078 C 
BRANCH   4   5
ATOM      5  C   UNL     1      52.192  18.077  18.504  0.00  0.00    +0.059 C 
BRANCH   5   6
ATOM      6  C   UNL     1      52.139  19.487  17.975  0.00  0.00    -0.061 C 
ATOM      7  C   UNL     1      51.937  19.701  16.699  0.00  0.00    -0.127 C 
ATOM      8  C   UNL     1      51.819  21.111  16.181  0.00  0.00    +0.071 C 
ATOM      9  C   UNL     1      51.821  18.536  15.749  0.00  0.00    +0.071 C 
ENDBRANCH   5   6
ENDBRANCH   4   5
ENDBRANCH   3   4
BRANCH  13  14
ATOM     14  C   UNL     1      51.466  12.575  18.546  0.00  0.00    +0.063 C 
BRANCH  14  15
ATOM     15  C   UNL     1      50.050  12.535  19.123  0.00  0.00    +0.047 C 
BRANCH  15  16
ATOM     16  C   UNL     1      50.073  13.037  20.544  0.00  0.00    -0.060 C 
ATOM     17  C   UNL     1      49.025  13.649  21.040  0.00  0.00    -0.126 C 
ATOM     18  C   UNL     1      49.007  14.055  22.490  0.00  0.00    +0.072 C 
ATOM     19  C   UNL     1      47.839  13.944  20.159  0.00  0.00    +0.073 C 
ENDBRANCH  15  16
ENDBRANCH  14  15
ENDBRANCH  13  14
BRANCH  33  34
ATOM     34  C   UNL     1      46.497  19.478  18.387  0.00  0.00    +0.082 C 
BRANCH  34  35
ATOM     35  C   UNL     1      45.586  19.146  19.572  0.00  0.00    +0.058 C 
BRANCH  35  36
ATOM     36  C   UNL     1      44.145  19.233  19.138  0.00  0.00    -0.063 C 
ATOM     37  C   UNL     1      43.466  20.335  19.339  0.00  0.00    -0.127 C 
ATOM     38  C   UNL     1      42.074  20.476  18.780  0.00  0.00    +0.071 C 
ATOM     39  C   UNL     1      44.077  21.463  20.130  0.00  0.00    +0.073 C 
ENDBRANCH  35  36
ENDBRANCH  34  35
ENDBRANCH  33  34
TORSDOF 11
ENDMDL
