MODEL 1
REMARK VINA RESULT:      -5.3      0.000      0.000
REMARK  Name = ZINC95486344
REMARK  9 active torsions:
REMARK  status: ('A' for Active; 'I' for Inactive)
REMARK    1  A    between atoms: C1_1  and  O1_2
REMARK    2  A    between atoms: O1_2  and  C2_3
REMARK    3  A    between atoms: C7_8  and  O2_9
REMARK    4  A    between atoms: C12_15  and  O5_25
REMARK    5  A    between atoms: C13_16  and  O3_22
REMARK    6  A    between atoms: O3_22  and  C18_23
REMARK    7  A    between atoms: C18_23  and  O4_24
REMARK    8  A    between atoms: O5_25  and  C19_26
REMARK    9  A    between atoms: C19_26  and  O6_27
REMARK                            x       y       z     vdW  Elec       q    Type
REMARK                         _______ _______ _______ _____ _____    ______ ____
ROOT
ATOM      3  C   UNL     1      48.467  15.602  17.131  0.00  0.00    +0.114 A 
ATOM      4  C   UNL     1      48.954  16.639  17.910  0.00  0.00    -0.011 A 
ATOM      5  C   UNL     1      48.129  17.711  18.228  0.00  0.00    -0.028 A 
ATOM      6  C   UNL     1      46.823  17.758  17.740  0.00  0.00    -0.103 A 
ATOM      7  C   UNL     1      45.960  18.957  18.030  0.00  0.00    +0.118 C 
ATOM      8  C   UNL     1      46.230  19.486  19.436  0.00  0.00    +0.246 C 
ATOM      9  C   UNL     1      47.703  19.715  19.651  0.00  0.00    -0.157 A 
ATOM     10  C   UNL     1      48.149  20.756  20.436  0.00  0.00    -0.041 A 
ATOM     11  C   UNL     1      47.200  21.687  21.137  0.00  0.00    +0.127 C 
ATOM     12  C   UNL     1      45.749  21.266  20.966  0.00  0.00    +0.276 C 
ATOM     13  C   UNL     1      49.520  20.932  20.618  0.00  0.00    -0.040 A 
ATOM     14  C   UNL     1      50.435  20.073  20.037  0.00  0.00    +0.165 A 
ATOM     19  C   UNL     1      49.989  19.011  19.258  0.00  0.00    +0.082 A 
ATOM     24  N   UNL     1      45.520  20.762  19.610  0.00  0.00    -0.502 N 
ATOM     25  H   UNL     1      44.530  20.617  19.475  0.00  0.00    +0.435 HD
ATOM     26  H   UNL     1      45.858  21.430  18.934  0.00  0.00    +0.430 HD
ATOM     27  C   UNL     1      46.338  16.719  16.971  0.00  0.00    +0.050 A 
ATOM     28  C   UNL     1      48.620  18.830  19.067  0.00  0.00    +0.013 A 
ATOM     29  C   UNL     1      47.157  15.643  16.662  0.00  0.00    +0.097 A 
ENDROOT
BRANCH   3   2
ATOM      1  C   UNL     1      50.680  14.774  16.859  0.00  0.00    +0.250 C 
ATOM      2  O   UNL     1      49.269  14.549  16.822  0.00  0.00    -0.299 OA
ENDBRANCH   3   2
BRANCH  29  30
ATOM     30  O   UNL     1      46.677  14.622  15.902  0.00  0.00    -0.482 OA
ATOM     31  H   UNL     1      46.982  14.638  14.984  0.00  0.00    +0.396 HD
ENDBRANCH  29  30
BRANCH  14  15
ATOM     15  O   UNL     1      51.767  20.267  20.227  0.00  0.00    -0.262 OA
BRANCH  15  16
ATOM     16  C   UNL     1      52.260  21.599  20.063  0.00  0.00    +0.403 C 
BRANCH  16  17
ATOM     17  O   UNL     1      53.339  21.595  19.127  0.00  0.00    -0.590 OA
ATOM     18  H   UNL     1      53.692  20.715  18.937  0.00  0.00    +0.405 HD
ENDBRANCH  16  17
ENDBRANCH  15  16
ENDBRANCH  14  15
BRANCH  19  20
ATOM     20  O   UNL     1      50.880  18.157  18.689  0.00  0.00    -0.298 OA
BRANCH  20  21
ATOM     21  C   UNL     1      51.643  18.654  17.588  0.00  0.00    +0.388 C 
BRANCH  21  22
ATOM     22  O   UNL     1      53.002  18.836  17.993  0.00  0.00    -0.582 OA
ATOM     23  H   UNL     1      53.122  18.887  18.950  0.00  0.00    +0.400 HD
ENDBRANCH  21  22
ENDBRANCH  20  21
ENDBRANCH  19  20
TORSDOF 8
ENDMDL
MODEL 2
REMARK VINA RESULT:      -5.3      2.837      5.273
REMARK  Name = ZINC95486344
REMARK  9 active torsions:
REMARK  status: ('A' for Active; 'I' for Inactive)
REMARK    1  A    between atoms: C1_1  and  O1_2
REMARK    2  A    between atoms: O1_2  and  C2_3
REMARK    3  A    between atoms: C7_8  and  O2_9
REMARK    4  A    between atoms: C12_15  and  O5_25
REMARK    5  A    between atoms: C13_16  and  O3_22
REMARK    6  A    between atoms: O3_22  and  C18_23
REMARK    7  A    between atoms: C18_23  and  O4_24
REMARK    8  A    between atoms: O5_25  and  C19_26
REMARK    9  A    between atoms: C19_26  and  O6_27
REMARK                            x       y       z     vdW  Elec       q    Type
REMARK                         _______ _______ _______ _____ _____    ______ ____
ROOT
ATOM      3  C   UNL     1      45.193  21.535  19.469  0.00  0.00    +0.114 A 
ATOM      4  C   UNL     1      46.384  20.890  19.176  0.00  0.00    -0.011 A 
ATOM      5  C   UNL     1      46.391  19.516  18.965  0.00  0.00    -0.028 A 
ATOM      6  C   UNL     1      45.210  18.784  19.078  0.00  0.00    -0.103 A 
ATOM      7  C   UNL     1      45.241  17.288  18.920  0.00  0.00    +0.118 C 
ATOM      8  C   UNL     1      46.248  16.881  17.846  0.00  0.00    +0.246 C 
ATOM      9  C   UNL     1      47.593  17.506  18.107  0.00  0.00    -0.157 A 
ATOM     10  C   UNL     1      48.756  16.833  17.798  0.00  0.00    -0.041 A 
ATOM     11  C   UNL     1      48.743  15.472  17.161  0.00  0.00    +0.127 C 
ATOM     12  C   UNL     1      47.336  15.015  16.812  0.00  0.00    +0.276 C 
ATOM     13  C   UNL     1      49.983  17.447  18.047  0.00  0.00    -0.040 A 
ATOM     14  C   UNL     1      50.051  18.720  18.584  0.00  0.00    +0.165 A 
ATOM     19  C   UNL     1      48.881  19.408  18.882  0.00  0.00    +0.082 A 
ATOM     24  N   UNL     1      46.393  15.418  17.856  0.00  0.00    -0.502 N 
ATOM     25  H   UNL     1      45.496  14.990  17.675  0.00  0.00    +0.435 HD
ATOM     26  H   UNL     1      46.732  15.120  18.758  0.00  0.00    +0.430 HD
ATOM     27  C   UNL     1      44.024  19.430  19.363  0.00  0.00    +0.050 A 
ATOM     28  C   UNL     1      47.649  18.801  18.640  0.00  0.00    +0.013 A 
ATOM     29  C   UNL     1      44.012  20.804  19.563  0.00  0.00    +0.097 A 
ENDROOT
BRANCH   3   2
ATOM      1  C   UNL     1      45.582  23.347  20.960  0.00  0.00    +0.250 C 
ATOM      2  O   UNL     1      45.180  22.880  19.671  0.00  0.00    -0.299 OA
ENDBRANCH   3   2
BRANCH  29  30
ATOM     30  O   UNL     1      42.843  21.437  19.846  0.00  0.00    -0.482 OA
ATOM     31  H   UNL     1      42.291  21.610  19.071  0.00  0.00    +0.396 HD
ENDBRANCH  29  30
BRANCH  14  15
ATOM     15  O   UNL     1      51.260  19.296  18.821  0.00  0.00    -0.262 OA
BRANCH  15  16
ATOM     16  C   UNL     1      51.816  20.094  17.774  0.00  0.00    +0.403 C 
BRANCH  16  17
ATOM     17  O   UNL     1      51.680  21.477  18.107  0.00  0.00    -0.590 OA
ATOM     18  H   UNL     1      51.549  21.643  19.050  0.00  0.00    +0.405 HD
ENDBRANCH  16  17
ENDBRANCH  15  16
ENDBRANCH  14  15
BRANCH  19  20
ATOM     20  O   UNL     1      48.936  20.662  19.403  0.00  0.00    -0.298 OA
BRANCH  20  21
ATOM     21  C   UNL     1      49.247  20.774  20.793  0.00  0.00    +0.388 C 
BRANCH  21  22
ATOM     22  O   UNL     1      50.628  21.110  20.947  0.00  0.00    -0.582 OA
ATOM     23  H   UNL     1      50.791  21.819  21.584  0.00  0.00    +0.400 HD
ENDBRANCH  21  22
ENDBRANCH  20  21
ENDBRANCH  19  20
TORSDOF 8
ENDMDL
MODEL 3
REMARK VINA RESULT:      -5.2      3.110      6.164
REMARK  Name = ZINC95486344
REMARK  9 active torsions:
REMARK  status: ('A' for Active; 'I' for Inactive)
REMARK    1  A    between atoms: C1_1  and  O1_2
REMARK    2  A    between atoms: O1_2  and  C2_3
REMARK    3  A    between atoms: C7_8  and  O2_9
REMARK    4  A    between atoms: C12_15  and  O5_25
REMARK    5  A    between atoms: C13_16  and  O3_22
REMARK    6  A    between atoms: O3_22  and  C18_23
REMARK    7  A    between atoms: C18_23  and  O4_24
REMARK    8  A    between atoms: O5_25  and  C19_26
REMARK    9  A    between atoms: C19_26  and  O6_27
REMARK                            x       y       z     vdW  Elec       q    Type
REMARK                         _______ _______ _______ _____ _____    ______ ____
ROOT
ATOM      3  C   UNL     1      43.683  19.476  19.684  0.00  0.00    +0.114 A 
ATOM      4  C   UNL     1      44.765  18.648  19.435  0.00  0.00    -0.011 A 
ATOM      5  C   UNL     1      46.002  19.201  19.128  0.00  0.00    -0.028 A 
ATOM      6  C   UNL     1      46.148  20.586  19.043  0.00  0.00    -0.103 A 
ATOM      7  C   UNL     1      47.474  21.173  18.640  0.00  0.00    +0.118 C 
ATOM      8  C   UNL     1      48.624  20.356  19.225  0.00  0.00    +0.246 C 
ATOM      9  C   UNL     1      48.467  18.895  18.895  0.00  0.00    -0.157 A 
ATOM     10  C   UNL     1      49.569  18.102  18.657  0.00  0.00    -0.041 A 
ATOM     11  C   UNL     1      50.970  18.640  18.745  0.00  0.00    +0.127 C 
ATOM     12  C   UNL     1      51.003  20.080  19.228  0.00  0.00    +0.276 C 
ATOM     13  C   UNL     1      49.384  16.752  18.363  0.00  0.00    -0.040 A 
ATOM     14  C   UNL     1      48.118  16.195  18.319  0.00  0.00    +0.165 A 
ATOM     19  C   UNL     1      47.006  16.987  18.575  0.00  0.00    +0.082 A 
ATOM     24  N   UNL     1      49.890  20.838  18.654  0.00  0.00    -0.502 N 
ATOM     25  H   UNL     1      50.008  21.817  18.876  0.00  0.00    +0.435 HD
ATOM     26  H   UNL     1      49.875  20.720  17.653  0.00  0.00    +0.430 HD
ATOM     27  C   UNL     1      45.070  21.408  19.299  0.00  0.00    +0.050 A 
ATOM     28  C   UNL     1      47.180  18.340  18.867  0.00  0.00    +0.013 A 
ATOM     29  C   UNL     1      43.836  20.858  19.616  0.00  0.00    +0.097 A 
ENDROOT
BRANCH   3   2
ATOM      1  C   UNL     1      42.259  18.544  21.346  0.00  0.00    +0.250 C 
ATOM      2  O   UNL     1      42.471  18.939  19.989  0.00  0.00    -0.299 OA
ENDBRANCH   3   2
BRANCH  29  30
ATOM     30  O   UNL     1      42.775  21.671  19.865  0.00  0.00    -0.482 OA
ATOM     31  H   UNL     1      42.406  21.575  20.753  0.00  0.00    +0.396 HD
ENDBRANCH  29  30
BRANCH  14  15
ATOM     15  O   UNL     1      47.965  14.876  18.027  0.00  0.00    -0.262 OA
BRANCH  15  16
ATOM     16  C   UNL     1      48.021  14.506  16.648  0.00  0.00    +0.403 C 
BRANCH  16  17
ATOM     17  O   UNL     1      46.734  14.686  16.054  0.00  0.00    -0.590 OA
ATOM     18  H   UNL     1      46.758  14.832  15.098  0.00  0.00    +0.405 HD
ENDBRANCH  16  17
ENDBRANCH  15  16
ENDBRANCH  14  15
BRANCH  19  20
ATOM     20  O   UNL     1      45.758  16.448  18.544  0.00  0.00    -0.298 OA
BRANCH  20  21
ATOM     21  C   UNL     1      45.467  15.430  19.503  0.00  0.00    +0.388 C 
BRANCH  21  22
ATOM     22  O   UNL     1      45.212  14.197  18.827  0.00  0.00    -0.582 OA
ATOM     23  H   UNL     1      44.706  14.295  18.009  0.00  0.00    +0.400 HD
ENDBRANCH  21  22
ENDBRANCH  20  21
ENDBRANCH  19  20
TORSDOF 8
ENDMDL
MODEL 4
REMARK VINA RESULT:      -5.1      1.567      5.275
REMARK  Name = ZINC95486344
REMARK  9 active torsions:
REMARK  status: ('A' for Active; 'I' for Inactive)
REMARK    1  A    between atoms: C1_1  and  O1_2
REMARK    2  A    between atoms: O1_2  and  C2_3
REMARK    3  A    between atoms: C7_8  and  O2_9
REMARK    4  A    between atoms: C12_15  and  O5_25
REMARK    5  A    between atoms: C13_16  and  O3_22
REMARK    6  A    between atoms: O3_22  and  C18_23
REMARK    7  A    between atoms: C18_23  and  O4_24
REMARK    8  A    between atoms: O5_25  and  C19_26
REMARK    9  A    between atoms: C19_26  and  O6_27
REMARK                            x       y       z     vdW  Elec       q    Type
REMARK                         _______ _______ _______ _____ _____    ______ ____
ROOT
ATOM      3  C   UNL     1      51.224  19.551  17.857  0.00  0.00    +0.114 A 
ATOM      4  C   UNL     1      50.175  18.647  17.910  0.00  0.00    -0.011 A 
ATOM      5  C   UNL     1      49.083  18.903  18.730  0.00  0.00    -0.028 A 
ATOM      6  C   UNL     1      49.055  20.052  19.520  0.00  0.00    -0.103 A 
ATOM      7  C   UNL     1      47.901  20.285  20.458  0.00  0.00    +0.118 C 
ATOM      8  C   UNL     1      46.594  19.800  19.834  0.00  0.00    +0.246 C 
ATOM      9  C   UNL     1      46.725  18.379  19.352  0.00  0.00    -0.157 A 
ATOM     10  C   UNL     1      45.657  17.510  19.418  0.00  0.00    -0.041 A 
ATOM     11  C   UNL     1      44.313  17.938  19.939  0.00  0.00    +0.127 C 
ATOM     12  C   UNL     1      44.266  19.425  20.253  0.00  0.00    +0.276 C 
ATOM     13  C   UNL     1      45.813  16.205  18.954  0.00  0.00    -0.040 A 
ATOM     14  C   UNL     1      47.014  15.774  18.419  0.00  0.00    +0.165 A 
ATOM     19  C   UNL     1      48.088  16.652  18.335  0.00  0.00    +0.082 A 
ATOM     24  N   UNL     1      45.530  19.862  20.847  0.00  0.00    -0.502 N 
ATOM     25  H   UNL     1      45.431  20.813  21.172  0.00  0.00    +0.435 HD
ATOM     26  H   UNL     1      45.770  19.264  21.624  0.00  0.00    +0.430 HD
ATOM     27  C   UNL     1      50.097  20.955  19.459  0.00  0.00    +0.050 A 
ATOM     28  C   UNL     1      47.942  17.959  18.799  0.00  0.00    +0.013 A 
ATOM     29  C   UNL     1      51.184  20.706  18.632  0.00  0.00    +0.097 A 
ENDROOT
BRANCH   3   2
ATOM      1  C   UNL     1      52.131  19.578  15.658  0.00  0.00    +0.250 C 
ATOM      2  O   UNL     1      52.292  19.306  17.052  0.00  0.00    -0.299 OA
ENDBRANCH   3   2
BRANCH  29  30
ATOM     30  O   UNL     1      52.210  21.596  18.576  0.00  0.00    -0.482 OA
ATOM     31  H   UNL     1      52.047  22.349  17.993  0.00  0.00    +0.396 HD
ENDBRANCH  29  30
BRANCH  14  15
ATOM     15  O   UNL     1      47.142  14.494  17.977  0.00  0.00    -0.262 OA
BRANCH  15  16
ATOM     16  C   UNL     1      46.819  14.245  16.607  0.00  0.00    +0.403 C 
BRANCH  16  17
ATOM     17  O   UNL     1      48.020  14.201  15.835  0.00  0.00    -0.590 OA
ATOM     18  H   UNL     1      48.828  14.299  16.359  0.00  0.00    +0.405 HD
ENDBRANCH  16  17
ENDBRANCH  15  16
ENDBRANCH  14  15
BRANCH  19  20
ATOM     20  O   UNL     1      49.269  16.241  17.803  0.00  0.00    -0.298 OA
BRANCH  20  21
ATOM     21  C   UNL     1      50.056  15.343  18.588  0.00  0.00    +0.388 C 
BRANCH  21  22
ATOM     22  O   UNL     1      50.120  14.072  17.937  0.00  0.00    -0.582 OA
ATOM     23  H   UNL     1      49.452  13.949  17.249  0.00  0.00    +0.400 HD
ENDBRANCH  21  22
ENDBRANCH  20  21
ENDBRANCH  19  20
TORSDOF 8
ENDMDL
MODEL 5
REMARK VINA RESULT:      -5.1      3.015      4.813
REMARK  Name = ZINC95486344
REMARK  9 active torsions:
REMARK  status: ('A' for Active; 'I' for Inactive)
REMARK    1  A    between atoms: C1_1  and  O1_2
REMARK    2  A    between atoms: O1_2  and  C2_3
REMARK    3  A    between atoms: C7_8  and  O2_9
REMARK    4  A    between atoms: C12_15  and  O5_25
REMARK    5  A    between atoms: C13_16  and  O3_22
REMARK    6  A    between atoms: O3_22  and  C18_23
REMARK    7  A    between atoms: C18_23  and  O4_24
REMARK    8  A    between atoms: O5_25  and  C19_26
REMARK    9  A    between atoms: C19_26  and  O6_27
REMARK                            x       y       z     vdW  Elec       q    Type
REMARK                         _______ _______ _______ _____ _____    ______ ____
ROOT
ATOM      3  C   UNL     1      48.034  14.620  16.749  0.00  0.00    +0.114 A 
ATOM      4  C   UNL     1      47.902  15.899  17.263  0.00  0.00    -0.011 A 
ATOM      5  C   UNL     1      49.037  16.644  17.563  0.00  0.00    -0.028 A 
ATOM      6  C   UNL     1      50.306  16.094  17.374  0.00  0.00    -0.103 A 
ATOM      7  C   UNL     1      51.526  16.881  17.768  0.00  0.00    +0.118 C 
ATOM      8  C   UNL     1      51.327  18.366  17.474  0.00  0.00    +0.246 C 
ATOM      9  C   UNL     1      50.044  18.866  18.082  0.00  0.00    -0.157 A 
ATOM     10  C   UNL     1      49.951  20.148  18.580  0.00  0.00    -0.041 A 
ATOM     11  C   UNL     1      51.101  21.113  18.513  0.00  0.00    +0.127 C 
ATOM     12  C   UNL     1      52.285  20.544  17.748  0.00  0.00    +0.276 C 
ATOM     13  C   UNL     1      48.743  20.579  19.128  0.00  0.00    -0.040 A 
ATOM     14  C   UNL     1      47.638  19.748  19.167  0.00  0.00    +0.165 A 
ATOM     19  C   UNL     1      47.722  18.461  18.651  0.00  0.00    +0.082 A 
ATOM     24  N   UNL     1      52.451  19.121  18.047  0.00  0.00    -0.502 N 
ATOM     25  H   UNL     1      53.316  18.797  17.640  0.00  0.00    +0.435 HD
ATOM     26  H   UNL     1      52.475  18.981  19.046  0.00  0.00    +0.430 HD
ATOM     27  C   UNL     1      50.433  14.822  16.854  0.00  0.00    +0.050 A 
ATOM     28  C   UNL     1      48.927  18.019  18.104  0.00  0.00    +0.013 A 
ATOM     29  C   UNL     1      49.301  14.081  16.544  0.00  0.00    +0.097 A 
ENDROOT
BRANCH   3   2
ATOM      1  C   UNL     1      46.165  13.386  17.549  0.00  0.00    +0.250 C 
ATOM      2  O   UNL     1      46.927  13.890  16.450  0.00  0.00    -0.299 OA
ENDBRANCH   3   2
BRANCH  29  30
ATOM     30  O   UNL     1      49.431  12.827  16.035  0.00  0.00    -0.482 OA
ATOM     31  H   UNL     1      50.218  12.357  16.342  0.00  0.00    +0.396 HD
ENDBRANCH  29  30
BRANCH  14  15
ATOM     15  O   UNL     1      46.473  20.190  19.710  0.00  0.00    -0.262 OA
BRANCH  15  16
ATOM     16  C   UNL     1      45.553  20.843  18.832  0.00  0.00    +0.403 C 
BRANCH  16  17
ATOM     17  O   UNL     1      44.554  19.913  18.412  0.00  0.00    -0.590 OA
ATOM     18  H   UNL     1      44.737  18.998  18.666  0.00  0.00    +0.405 HD
ENDBRANCH  16  17
ENDBRANCH  15  16
ENDBRANCH  14  15
BRANCH  19  20
ATOM     20  O   UNL     1      46.640  17.639  18.677  0.00  0.00    -0.298 OA
BRANCH  20  21
ATOM     21  C   UNL     1      46.212  17.172  19.958  0.00  0.00    +0.388 C 
BRANCH  21  22
ATOM     22  O   UNL     1      44.878  17.623  20.209  0.00  0.00    -0.582 OA
ATOM     23  H   UNL     1      44.195  17.065  19.814  0.00  0.00    +0.400 HD
ENDBRANCH  21  22
ENDBRANCH  20  21
ENDBRANCH  19  20
TORSDOF 8
ENDMDL
MODEL 6
REMARK VINA RESULT:      -5.1      3.378      5.986
REMARK  Name = ZINC95486344
REMARK  9 active torsions:
REMARK  status: ('A' for Active; 'I' for Inactive)
REMARK    1  A    between atoms: C1_1  and  O1_2
REMARK    2  A    between atoms: O1_2  and  C2_3
REMARK    3  A    between atoms: C7_8  and  O2_9
REMARK    4  A    between atoms: C12_15  and  O5_25
REMARK    5  A    between atoms: C13_16  and  O3_22
REMARK    6  A    between atoms: O3_22  and  C18_23
REMARK    7  A    between atoms: C18_23  and  O4_24
REMARK    8  A    between atoms: O5_25  and  C19_26
REMARK    9  A    between atoms: C19_26  and  O6_27
REMARK                            x       y       z     vdW  Elec       q    Type
REMARK                         _______ _______ _______ _____ _____    ______ ____
ROOT
ATOM      3  C   UNL     1      50.541  19.829  18.154  0.00  0.00    +0.114 A 
ATOM      4  C   UNL     1      49.316  19.489  18.705  0.00  0.00    -0.011 A 
ATOM      5  C   UNL     1      48.747  18.255  18.413  0.00  0.00    -0.028 A 
ATOM      6  C   UNL     1      49.391  17.373  17.546  0.00  0.00    -0.103 A 
ATOM      7  C   UNL     1      48.733  16.070  17.181  0.00  0.00    +0.118 C 
ATOM      8  C   UNL     1      47.982  15.492  18.379  0.00  0.00    +0.246 C 
ATOM      9  C   UNL     1      47.049  16.515  18.971  0.00  0.00    -0.157 A 
ATOM     10  C   UNL     1      45.840  16.136  19.514  0.00  0.00    -0.041 A 
ATOM     11  C   UNL     1      45.408  14.697  19.571  0.00  0.00    +0.127 C 
ATOM     12  C   UNL     1      46.493  13.752  19.081  0.00  0.00    +0.276 C 
ATOM     13  C   UNL     1      45.005  17.110  20.061  0.00  0.00    -0.040 A 
ATOM     14  C   UNL     1      45.377  18.443  20.080  0.00  0.00    +0.165 A 
ATOM     19  C   UNL     1      46.602  18.826  19.550  0.00  0.00    +0.082 A 
ATOM     24  N   UNL     1      47.196  14.332  17.935  0.00  0.00    -0.502 N 
ATOM     25  H   UNL     1      47.815  13.637  17.542  0.00  0.00    +0.435 HD
ATOM     26  H   UNL     1      46.530  14.624  17.236  0.00  0.00    +0.430 HD
ATOM     27  C   UNL     1      50.615  17.712  17.005  0.00  0.00    +0.050 A 
ATOM     28  C   UNL     1      47.442  17.860  18.997  0.00  0.00    +0.013 A 
ATOM     29  C   UNL     1      51.191  18.939  17.303  0.00  0.00    +0.097 A 
ENDROOT
BRANCH   3   2
ATOM      1  C   UNL     1      51.847  21.130  19.657  0.00  0.00    +0.250 C 
ATOM      2  O   UNL     1      51.104  21.033  18.439  0.00  0.00    -0.299 OA
ENDBRANCH   3   2
BRANCH  29  30
ATOM     30  O   UNL     1      52.395  19.271  16.766  0.00  0.00    -0.482 OA
ATOM     31  H   UNL     1      52.474  19.070  15.824  0.00  0.00    +0.396 HD
ENDBRANCH  29  30
BRANCH  14  15
ATOM     15  O   UNL     1      44.544  19.374  20.616  0.00  0.00    -0.262 OA
BRANCH  15  16
ATOM     16  C   UNL     1      43.194  19.386  20.146  0.00  0.00    +0.403 C 
BRANCH  16  17
ATOM     17  O   UNL     1      42.741  20.737  20.039  0.00  0.00    -0.590 OA
ATOM     18  H   UNL     1      42.877  21.130  19.166  0.00  0.00    +0.405 HD
ENDBRANCH  16  17
ENDBRANCH  15  16
ENDBRANCH  14  15
BRANCH  19  20
ATOM     20  O   UNL     1      46.981  20.131  19.570  0.00  0.00    -0.298 OA
BRANCH  20  21
ATOM     21  C   UNL     1      46.292  21.020  18.688  0.00  0.00    +0.388 C 
BRANCH  21  22
ATOM     22  O   UNL     1      45.497  21.930  19.452  0.00  0.00    -0.582 OA
ATOM     23  H   UNL     1      45.961  22.739  19.707  0.00  0.00    +0.400 HD
ENDBRANCH  21  22
ENDBRANCH  20  21
ENDBRANCH  19  20
TORSDOF 8
ENDMDL
MODEL 7
REMARK VINA RESULT:      -4.8      2.113      5.139
REMARK  Name = ZINC95486344
REMARK  9 active torsions:
REMARK  status: ('A' for Active; 'I' for Inactive)
REMARK    1  A    between atoms: C1_1  and  O1_2
REMARK    2  A    between atoms: O1_2  and  C2_3
REMARK    3  A    between atoms: C7_8  and  O2_9
REMARK    4  A    between atoms: C12_15  and  O5_25
REMARK    5  A    between atoms: C13_16  and  O3_22
REMARK    6  A    between atoms: O3_22  and  C18_23
REMARK    7  A    between atoms: C18_23  and  O4_24
REMARK    8  A    between atoms: O5_25  and  C19_26
REMARK    9  A    between atoms: C19_26  and  O6_27
REMARK                            x       y       z     vdW  Elec       q    Type
REMARK                         _______ _______ _______ _____ _____    ______ ____
ROOT
ATOM      3  C   UNL     1      50.572  18.737  17.636  0.00  0.00    +0.114 A 
ATOM      4  C   UNL     1      49.334  18.229  17.992  0.00  0.00    -0.011 A 
ATOM      5  C   UNL     1      48.465  18.999  18.756  0.00  0.00    -0.028 A 
ATOM      6  C   UNL     1      48.850  20.269  19.187  0.00  0.00    -0.103 A 
ATOM      7  C   UNL     1      47.931  21.066  20.074  0.00  0.00    +0.118 C 
ATOM      8  C   UNL     1      46.474  20.844  19.675  0.00  0.00    +0.246 C 
ATOM      9  C   UNL     1      46.152  19.375  19.610  0.00  0.00    -0.157 A 
ATOM     10  C   UNL     1      44.906  18.908  19.971  0.00  0.00    -0.041 A 
ATOM     11  C   UNL     1      43.806  19.833  20.410  0.00  0.00    +0.127 C 
ATOM     12  C   UNL     1      44.203  21.295  20.292  0.00  0.00    +0.276 C 
ATOM     13  C   UNL     1      44.643  17.541  19.889  0.00  0.00    -0.040 A 
ATOM     14  C   UNL     1      45.604  16.652  19.443  0.00  0.00    +0.165 A 
ATOM     19  C   UNL     1      46.855  17.120  19.063  0.00  0.00    +0.082 A 
ATOM     24  N   UNL     1      45.604  21.478  20.677  0.00  0.00    -0.502 N 
ATOM     25  H   UNL     1      45.808  22.466  20.723  0.00  0.00    +0.435 HD
ATOM     26  H   UNL     1      45.769  21.058  21.580  0.00  0.00    +0.430 HD
ATOM     27  C   UNL     1      50.081  20.775  18.824  0.00  0.00    +0.050 A 
ATOM     28  C   UNL     1      47.130  18.485  19.143  0.00  0.00    +0.013 A 
ATOM     29  C   UNL     1      50.946  20.012  18.052  0.00  0.00    +0.097 A 
ENDROOT
BRANCH   3   2
ATOM      1  C   UNL     1      51.853  16.742  17.436  0.00  0.00    +0.250 C 
ATOM      2  O   UNL     1      51.424  17.989  16.884  0.00  0.00    -0.299 OA
ENDBRANCH   3   2
BRANCH  29  30
ATOM     30  O   UNL     1      52.159  20.512  17.698  0.00  0.00    -0.482 OA
ATOM     31  H   UNL     1      52.147  21.452  17.473  0.00  0.00    +0.396 HD
ENDBRANCH  29  30
BRANCH  14  15
ATOM     15  O   UNL     1      45.323  15.323  19.376  0.00  0.00    -0.262 OA
BRANCH  15  16
ATOM     16  C   UNL     1      45.572  14.546  20.549  0.00  0.00    +0.403 C 
BRANCH  16  17
ATOM     17  O   UNL     1      46.804  13.839  20.399  0.00  0.00    -0.590 OA
ATOM     18  H   UNL     1      47.496  14.118  21.014  0.00  0.00    +0.405 HD
ENDBRANCH  16  17
ENDBRANCH  15  16
ENDBRANCH  14  15
BRANCH  19  20
ATOM     20  O   UNL     1      47.804  16.256  18.614  0.00  0.00    -0.298 OA
BRANCH  20  21
ATOM     21  C   UNL     1      47.572  15.639  17.346  0.00  0.00    +0.388 C 
BRANCH  21  22
ATOM     22  O   UNL     1      47.409  14.230  17.525  0.00  0.00    -0.582 OA
ATOM     23  H   UNL     1      47.615  13.921  18.417  0.00  0.00    +0.400 HD
ENDBRANCH  21  22
ENDBRANCH  20  21
ENDBRANCH  19  20
TORSDOF 8
ENDMDL
MODEL 8
REMARK VINA RESULT:      -4.6      2.862      7.144
REMARK  Name = ZINC95486344
REMARK  9 active torsions:
REMARK  status: ('A' for Active; 'I' for Inactive)
REMARK    1  A    between atoms: C1_1  and  O1_2
REMARK    2  A    between atoms: O1_2  and  C2_3
REMARK    3  A    between atoms: C7_8  and  O2_9
REMARK    4  A    between atoms: C12_15  and  O5_25
REMARK    5  A    between atoms: C13_16  and  O3_22
REMARK    6  A    between atoms: O3_22  and  C18_23
REMARK    7  A    between atoms: C18_23  and  O4_24
REMARK    8  A    between atoms: O5_25  and  C19_26
REMARK    9  A    between atoms: C19_26  and  O6_27
REMARK                            x       y       z     vdW  Elec       q    Type
REMARK                         _______ _______ _______ _____ _____    ______ ____
ROOT
ATOM      3  C   UNL     1      50.259  19.934  18.417  0.00  0.00    +0.114 A 
ATOM      4  C   UNL     1      49.525  18.760  18.405  0.00  0.00    -0.011 A 
ATOM      5  C   UNL     1      49.985  17.664  17.684  0.00  0.00    -0.028 A 
ATOM      6  C   UNL     1      51.167  17.756  16.949  0.00  0.00    -0.103 A 
ATOM      7  C   UNL     1      51.619  16.588  16.115  0.00  0.00    +0.118 C 
ATOM      8  C   UNL     1      51.299  15.269  16.815  0.00  0.00    +0.246 C 
ATOM      9  C   UNL     1      49.851  15.216  17.223  0.00  0.00    -0.157 A 
ATOM     10  C   UNL     1      49.154  14.027  17.202  0.00  0.00    -0.041 A 
ATOM     11  C   UNL     1      49.805  12.731  16.806  0.00  0.00    +0.127 C 
ATOM     12  C   UNL     1      51.297  12.888  16.561  0.00  0.00    +0.276 C 
ATOM     13  C   UNL     1      47.817  14.015  17.595  0.00  0.00    -0.040 A 
ATOM     14  C   UNL     1      47.184  15.171  18.016  0.00  0.00    +0.165 A 
ATOM     19  C   UNL     1      47.887  16.369  18.056  0.00  0.00    +0.082 A 
ATOM     24  N   UNL     1      51.574  14.159  15.891  0.00  0.00    -0.502 N 
ATOM     25  H   UNL     1      52.546  14.183  15.617  0.00  0.00    +0.435 HD
ATOM     26  H   UNL     1      50.991  14.250  15.073  0.00  0.00    +0.430 HD
ATOM     27  C   UNL     1      51.901  18.924  16.970  0.00  0.00    +0.050 A 
ATOM     28  C   UNL     1      49.225  16.392  17.661  0.00  0.00    +0.013 A 
ATOM     29  C   UNL     1      51.449  20.016  17.698  0.00  0.00    +0.097 A 
ENDROOT
BRANCH   3   2
ATOM      1  C   UNL     1      48.611  20.836  19.875  0.00  0.00    +0.250 C 
ATOM      2  O   UNL     1      49.816  21.007  19.125  0.00  0.00    -0.299 OA
ENDBRANCH   3   2
BRANCH  29  30
ATOM     30  O   UNL     1      52.172  21.167  17.713  0.00  0.00    -0.482 OA
ATOM     31  H   UNL     1      52.075  21.682  18.526  0.00  0.00    +0.396 HD
ENDBRANCH  29  30
BRANCH  14  15
ATOM     15  O   UNL     1      45.878  15.134  18.391  0.00  0.00    -0.262 OA
BRANCH  15  16
ATOM     16  C   UNL     1      45.517  14.187  19.398  0.00  0.00    +0.403 C 
BRANCH  16  17
ATOM     17  O   UNL     1      44.584  13.249  18.857  0.00  0.00    -0.590 OA
ATOM     18  H   UNL     1      44.421  12.484  19.425  0.00  0.00    +0.405 HD
ENDBRANCH  16  17
ENDBRANCH  15  16
ENDBRANCH  14  15
BRANCH  19  20
ATOM     20  O   UNL     1      47.278  17.509  18.476  0.00  0.00    -0.298 OA
BRANCH  20  21
ATOM     21  C   UNL     1      46.315  18.092  17.596  0.00  0.00    +0.388 C 
BRANCH  21  22
ATOM     22  O   UNL     1      45.668  19.185  18.253  0.00  0.00    -0.582 OA
ATOM     23  H   UNL     1      45.811  20.040  17.826  0.00  0.00    +0.400 HD
ENDBRANCH  21  22
ENDBRANCH  20  21
ENDBRANCH  19  20
TORSDOF 8
ENDMDL
MODEL 9
REMARK VINA RESULT:      -4.5      1.599      2.297
REMARK  Name = ZINC95486344
REMARK  9 active torsions:
REMARK  status: ('A' for Active; 'I' for Inactive)
REMARK    1  A    between atoms: C1_1  and  O1_2
REMARK    2  A    between atoms: O1_2  and  C2_3
REMARK    3  A    between atoms: C7_8  and  O2_9
REMARK    4  A    between atoms: C12_15  and  O5_25
REMARK    5  A    between atoms: C13_16  and  O3_22
REMARK    6  A    between atoms: O3_22  and  C18_23
REMARK    7  A    between atoms: C18_23  and  O4_24
REMARK    8  A    between atoms: O5_25  and  C19_26
REMARK    9  A    between atoms: C19_26  and  O6_27
REMARK                            x       y       z     vdW  Elec       q    Type
REMARK                         _______ _______ _______ _____ _____    ______ ____
ROOT
ATOM      3  C   UNL     1      49.539  13.579  16.923  0.00  0.00    +0.114 A 
ATOM      4  C   UNL     1      49.843  14.840  17.408  0.00  0.00    -0.011 A 
ATOM      5  C   UNL     1      48.873  15.836  17.397  0.00  0.00    -0.028 A 
ATOM      6  C   UNL     1      47.607  15.576  16.872  0.00  0.00    -0.103 A 
ATOM      7  C   UNL     1      46.589  16.681  16.799  0.00  0.00    +0.118 C 
ATOM      8  C   UNL     1      46.696  17.594  18.019  0.00  0.00    +0.246 C 
ATOM      9  C   UNL     1      48.112  18.068  18.211  0.00  0.00    -0.157 A 
ATOM     10  C   UNL     1      48.374  19.330  18.700  0.00  0.00    -0.041 A 
ATOM     11  C   UNL     1      47.274  20.276  19.092  0.00  0.00    +0.127 C 
ATOM     12  C   UNL     1      45.900  19.632  18.993  0.00  0.00    +0.276 C 
ATOM     13  C   UNL     1      49.698  19.730  18.873  0.00  0.00    -0.040 A 
ATOM     14  C   UNL     1      50.748  18.880  18.575  0.00  0.00    +0.165 A 
ATOM     19  C   UNL     1      50.488  17.601  18.099  0.00  0.00    +0.082 A 
ATOM     24  N   UNL     1      45.826  18.762  17.818  0.00  0.00    -0.502 N 
ATOM     25  H   UNL     1      44.872  18.454  17.694  0.00  0.00    +0.435 HD
ATOM     26  H   UNL     1      46.126  19.268  16.998  0.00  0.00    +0.430 HD
ATOM     27  C   UNL     1      47.306  14.316  16.397  0.00  0.00    +0.050 A 
ATOM     28  C   UNL     1      49.167  17.192  17.919  0.00  0.00    +0.013 A 
ATOM     29  C   UNL     1      48.269  13.317  16.418  0.00  0.00    +0.097 A 
ENDROOT
BRANCH   3   2
ATOM      1  C   UNL     1      51.521  12.685  15.959  0.00  0.00    +0.250 C 
ATOM      2  O   UNL     1      50.482  12.599  16.937  0.00  0.00    -0.299 OA
ENDBRANCH   3   2
BRANCH  29  30
ATOM     30  O   UNL     1      47.969  12.077  15.946  0.00  0.00    -0.482 OA
ATOM     31  H   UNL     1      47.616  12.073  15.046  0.00  0.00    +0.396 HD
ENDBRANCH  29  30
BRANCH  14  15
ATOM     15  O   UNL     1      52.031  19.296  18.749  0.00  0.00    -0.262 OA
BRANCH  15  16
ATOM     16  C   UNL     1      52.466  20.408  17.964  0.00  0.00    +0.403 C 
BRANCH  16  17
ATOM     17  O   UNL     1      52.976  21.428  18.824  0.00  0.00    -0.590 OA
ATOM     18  H   UNL     1      53.920  21.605  18.709  0.00  0.00    +0.405 HD
ENDBRANCH  16  17
ENDBRANCH  15  16
ENDBRANCH  14  15
BRANCH  19  20
ATOM     20  O   UNL     1      51.512  16.755  17.811  0.00  0.00    -0.298 OA
BRANCH  20  21
ATOM     21  C   UNL     1      52.354  16.363  18.898  0.00  0.00    +0.388 C 
BRANCH  21  22
ATOM     22  O   UNL     1      53.664  16.901  18.704  0.00  0.00    -0.582 OA
ATOM     23  H   UNL     1      53.917  16.994  17.776  0.00  0.00    +0.400 HD
ENDBRANCH  21  22
ENDBRANCH  20  21
ENDBRANCH  19  20
TORSDOF 8
ENDMDL
