MODEL 1
REMARK VINA RESULT:      -7.1      0.000      0.000
REMARK  Name = ZINC03594643
REMARK  0 active torsions:
REMARK  status: ('A' for Active; 'I' for Inactive)
REMARK                            x       y       z     vdW  Elec       q    Type
REMARK                         _______ _______ _______ _____ _____    ______ ____
ROOT
ATOM      1  C   UNL     1      44.426  16.045  21.407  0.00  0.00    +0.119 A 
ATOM      2  C   UNL     1      44.605  17.343  20.956  0.00  0.00    -0.145 A 
ATOM      3  C   UNL     1      45.312  17.674  19.797  0.00  0.00    +0.146 A 
ATOM      4  N   UNL     1      45.430  19.052  19.665  0.00  0.00    -0.552 N 
ATOM      5  C   UNL     1      45.888  19.769  18.623  0.00  0.00    +0.527 C 
ATOM      6  C   UNL     1      45.751  21.265  18.656  0.00  0.00    +0.108 C 
ATOM      7  C   UNL     1      45.429  21.798  20.049  0.00  0.00    -0.030 C 
ATOM      8  C   UNL     1      46.580  21.527  21.023  0.00  0.00    +0.080 C 
ATOM      9  C   UNL     1      46.265  20.126  21.658  0.00  0.00    +0.078 C 
ATOM     10  C   UNL     1      44.929  23.201  19.899  0.00  0.00    +0.056 C 
ATOM     11  C   UNL     1      43.659  23.342  19.591  0.00  0.00    -0.030 C 
ATOM     12  C   UNL     1      42.657  22.232  19.464  0.00  0.00    +0.315 C 
ATOM     13  N   UNL     1      43.020  21.033  20.156  0.00  0.00    -0.356 N 
ATOM     14  H   UNL     1      42.472  21.146  20.997  0.00  0.00    +0.410 HD
ATOM     15  C   UNL     1      42.591  19.710  19.756  0.00  0.00    +0.263 C 
ATOM     16  C   UNL     1      42.649  18.790  20.986  0.00  0.00    +0.090 C 
ATOM     17  C   UNL     1      44.305  21.012  20.736  0.00  0.00    +0.138 C 
ATOM     18  O   UNL     1      46.401  19.218  17.672  0.00  0.00    -0.484 OA
ATOM     19  C   UNL     1      44.989  19.669  20.932  0.00  0.00    +0.166 C 
ATOM     20  C   UNL     1      45.853  16.686  18.960  0.00  0.00    +0.061 A 
ATOM     21  C   UNL     1      45.663  15.377  19.399  0.00  0.00    +0.070 A 
ATOM     22  O   UNL     1      46.068  14.225  18.812  0.00  0.00    -0.300 OA
ATOM     23  C   UNL     1      45.301  13.179  19.444  0.00  0.00    +0.444 C 
ATOM     24  O   UNL     1      44.977  13.719  20.743  0.00  0.00    -0.300 OA
ATOM     25  C   UNL     1      44.077  18.638  21.555  0.00  0.00    +0.104 C 
ATOM     26  C   UNL     1      44.983  15.064  20.584  0.00  0.00    +0.021 A 
ENDROOT
TORSDOF 0
ENDMDL
MODEL 2
REMARK VINA RESULT:      -6.7      4.862      6.585
REMARK  Name = ZINC03594643
REMARK  0 active torsions:
REMARK  status: ('A' for Active; 'I' for Inactive)
REMARK                            x       y       z     vdW  Elec       q    Type
REMARK                         _______ _______ _______ _____ _____    ______ ____
ROOT
ATOM      1  C   UNL     1      50.177  15.137  17.051  0.00  0.00    +0.119 A 
ATOM      2  C   UNL     1      50.357  16.406  17.578  0.00  0.00    -0.145 A 
ATOM      3  C   UNL     1      49.311  17.289  17.859  0.00  0.00    +0.146 A 
ATOM      4  N   UNL     1      49.800  18.526  18.262  0.00  0.00    -0.552 N 
ATOM      5  C   UNL     1      49.133  19.578  18.769  0.00  0.00    +0.527 C 
ATOM      6  C   UNL     1      49.917  20.747  19.294  0.00  0.00    +0.108 C 
ATOM      7  C   UNL     1      51.374  20.731  18.845  0.00  0.00    -0.030 C 
ATOM      8  C   UNL     1      51.485  20.886  17.324  0.00  0.00    +0.080 C 
ATOM      9  C   UNL     1      51.458  19.423  16.755  0.00  0.00    +0.078 C 
ATOM     10  C   UNL     1      52.135  21.677  19.720  0.00  0.00    +0.056 C 
ATOM     11  C   UNL     1      52.527  21.212  20.885  0.00  0.00    -0.030 C 
ATOM     12  C   UNL     1      52.356  19.803  21.371  0.00  0.00    +0.315 C 
ATOM     13  N   UNL     1      52.166  18.842  20.329  0.00  0.00    -0.356 N 
ATOM     14  H   UNL     1      53.105  18.478  20.255  0.00  0.00    +0.410 HD
ATOM     15  C   UNL     1      51.433  17.606  20.495  0.00  0.00    +0.263 C 
ATOM     16  C   UNL     1      51.920  16.607  19.433  0.00  0.00    +0.090 C 
ATOM     17  C   UNL     1      52.032  19.357  19.023  0.00  0.00    +0.138 C 
ATOM     18  O   UNL     1      47.921  19.582  18.803  0.00  0.00    -0.484 OA
ATOM     19  C   UNL     1      51.253  18.545  18.001  0.00  0.00    +0.166 C 
ATOM     20  C   UNL     1      47.970  16.920  17.674  0.00  0.00    +0.061 A 
ATOM     21  C   UNL     1      47.780  15.639  17.159  0.00  0.00    +0.070 A 
ATOM     22  O   UNL     1      46.614  15.009  16.875  0.00  0.00    -0.300 OA
ATOM     23  C   UNL     1      46.949  13.612  16.746  0.00  0.00    +0.444 C 
ATOM     24  O   UNL     1      48.340  13.621  16.358  0.00  0.00    -0.300 OA
ATOM     25  C   UNL     1      51.654  17.088  17.989  0.00  0.00    +0.104 C 
ATOM     26  C   UNL     1      48.843  14.779  16.849  0.00  0.00    +0.021 A 
ENDROOT
TORSDOF 0
ENDMDL
MODEL 3
REMARK VINA RESULT:      -6.7      1.655      3.200
REMARK  Name = ZINC03594643
REMARK  0 active torsions:
REMARK  status: ('A' for Active; 'I' for Inactive)
REMARK                            x       y       z     vdW  Elec       q    Type
REMARK                         _______ _______ _______ _____ _____    ______ ____
ROOT
ATOM      1  C   UNL     1      46.468  16.482  17.647  0.00  0.00    +0.119 A 
ATOM      2  C   UNL     1      46.038  17.538  18.434  0.00  0.00    -0.145 A 
ATOM      3  C   UNL     1      45.350  17.382  19.640  0.00  0.00    +0.146 A 
ATOM      4  N   UNL     1      44.943  18.612  20.142  0.00  0.00    -0.552 N 
ATOM      5  C   UNL     1      44.405  18.904  21.340  0.00  0.00    +0.527 C 
ATOM      6  C   UNL     1      44.211  20.346  21.715  0.00  0.00    +0.108 C 
ATOM      7  C   UNL     1      44.323  21.287  20.520  0.00  0.00    -0.030 C 
ATOM      8  C   UNL     1      43.200  21.031  19.509  0.00  0.00    +0.080 C 
ATOM      9  C   UNL     1      43.773  19.958  18.516  0.00  0.00    +0.078 C 
ATOM     10  C   UNL     1      44.513  22.676  21.046  0.00  0.00    +0.056 C 
ATOM     11  C   UNL     1      45.738  23.013  21.380  0.00  0.00    -0.030 C 
ATOM     12  C   UNL     1      46.964  22.166  21.200  0.00  0.00    +0.315 C 
ATOM     13  N   UNL     1      46.829  21.144  20.209  0.00  0.00    -0.356 N 
ATOM     14  H   UNL     1      47.286  21.596  19.430  0.00  0.00    +0.410 HD
ATOM     15  C   UNL     1      47.559  19.895  20.233  0.00  0.00    +0.263 C 
ATOM     16  C   UNL     1      47.627  19.346  18.800  0.00  0.00    +0.090 C 
ATOM     17  C   UNL     1      45.546  20.988  19.645  0.00  0.00    +0.138 C 
ATOM     18  O   UNL     1      44.083  18.019  22.105  0.00  0.00    -0.484 OA
ATOM     19  C   UNL     1      45.160  19.625  19.091  0.00  0.00    +0.166 C 
ATOM     20  C   UNL     1      45.088  16.112  20.176  0.00  0.00    +0.061 A 
ATOM     21  C   UNL     1      45.531  15.044  19.397  0.00  0.00    +0.070 A 
ATOM     22  O   UNL     1      45.425  13.717  19.649  0.00  0.00    -0.300 OA
ATOM     23  C   UNL     1      46.360  13.077  18.756  0.00  0.00    +0.444 C 
ATOM     24  O   UNL     1      46.478  14.002  17.653  0.00  0.00    -0.300 OA
ATOM     25  C   UNL     1      46.234  19.031  18.210  0.00  0.00    +0.104 C 
ATOM     26  C   UNL     1      46.189  15.219  18.172  0.00  0.00    +0.021 A 
ENDROOT
TORSDOF 0
ENDMDL
MODEL 4
REMARK VINA RESULT:      -6.2      3.129      5.102
REMARK  Name = ZINC03594643
REMARK  0 active torsions:
REMARK  status: ('A' for Active; 'I' for Inactive)
REMARK                            x       y       z     vdW  Elec       q    Type
REMARK                         _______ _______ _______ _____ _____    ______ ____
ROOT
ATOM      1  C   UNL     1      49.000  18.670  18.646  0.00  0.00    +0.119 A 
ATOM      2  C   UNL     1      47.807  18.795  19.340  0.00  0.00    -0.145 A 
ATOM      3  C   UNL     1      47.615  19.676  20.407  0.00  0.00    +0.146 A 
ATOM      4  N   UNL     1      46.363  19.494  20.981  0.00  0.00    -0.552 N 
ATOM      5  C   UNL     1      45.739  20.239  21.911  0.00  0.00    +0.527 C 
ATOM      6  C   UNL     1      44.307  19.932  22.244  0.00  0.00    +0.108 C 
ATOM      7  C   UNL     1      43.860  18.567  21.730  0.00  0.00    -0.030 C 
ATOM      8  C   UNL     1      44.632  17.438  22.420  0.00  0.00    +0.080 C 
ATOM      9  C   UNL     1      45.894  17.189  21.520  0.00  0.00    +0.078 C 
ATOM     10  C   UNL     1      42.364  18.534  21.756  0.00  0.00    +0.056 C 
ATOM     11  C   UNL     1      41.747  19.082  20.732  0.00  0.00    -0.030 C 
ATOM     12  C   UNL     1      42.407  19.652  19.511  0.00  0.00    +0.315 C 
ATOM     13  N   UNL     1      43.728  19.157  19.273  0.00  0.00    -0.356 N 
ATOM     14  H   UNL     1      43.527  18.454  18.577  0.00  0.00    +0.410 HD
ATOM     15  C   UNL     1      44.757  19.903  18.582  0.00  0.00    +0.263 C 
ATOM     16  C   UNL     1      45.774  18.906  18.006  0.00  0.00    +0.090 C 
ATOM     17  C   UNL     1      44.270  18.322  20.272  0.00  0.00    +0.138 C 
ATOM     18  O   UNL     1      46.322  21.144  22.471  0.00  0.00    -0.484 OA
ATOM     19  C   UNL     1      45.782  18.258  20.420  0.00  0.00    +0.166 C 
ATOM     20  C   UNL     1      48.626  20.554  20.824  0.00  0.00    +0.061 A 
ATOM     21  C   UNL     1      49.825  20.446  20.121  0.00  0.00    +0.070 A 
ATOM     22  O   UNL     1      50.969  21.151  20.293  0.00  0.00    -0.300 OA
ATOM     23  C   UNL     1      51.742  20.932  19.094  0.00  0.00    +0.444 C 
ATOM     24  O   UNL     1      51.276  19.656  18.606  0.00  0.00    -0.300 OA
ATOM     25  C   UNL     1      46.488  18.077  19.097  0.00  0.00    +0.104 C 
ATOM     26  C   UNL     1      50.012  19.531  19.075  0.00  0.00    +0.021 A 
ENDROOT
TORSDOF 0
ENDMDL
MODEL 5
REMARK VINA RESULT:      -6.2      3.341      5.422
REMARK  Name = ZINC03594643
REMARK  0 active torsions:
REMARK  status: ('A' for Active; 'I' for Inactive)
REMARK                            x       y       z     vdW  Elec       q    Type
REMARK                         _______ _______ _______ _____ _____    ______ ____
ROOT
ATOM      1  C   UNL     1      49.755  17.764  17.261  0.00  0.00    +0.119 A 
ATOM      2  C   UNL     1      48.820  18.119  18.219  0.00  0.00    -0.145 A 
ATOM      3  C   UNL     1      48.865  19.310  18.949  0.00  0.00    +0.146 A 
ATOM      4  N   UNL     1      47.871  19.336  19.919  0.00  0.00    -0.552 N 
ATOM      5  C   UNL     1      47.480  20.354  20.707  0.00  0.00    +0.527 C 
ATOM      6  C   UNL     1      46.255  20.181  21.559  0.00  0.00    +0.108 C 
ATOM      7  C   UNL     1      45.822  18.724  21.683  0.00  0.00    -0.030 C 
ATOM      8  C   UNL     1      46.882  17.893  22.415  0.00  0.00    +0.080 C 
ATOM      9  C   UNL     1      47.833  17.351  21.290  0.00  0.00    +0.078 C 
ATOM     10  C   UNL     1      44.416  18.705  22.194  0.00  0.00    +0.056 C 
ATOM     11  C   UNL     1      43.465  18.874  21.302  0.00  0.00    -0.030 C 
ATOM     12  C   UNL     1      43.663  18.995  19.819  0.00  0.00    +0.315 C 
ATOM     13  N   UNL     1      44.896  18.446  19.345  0.00  0.00    -0.356 N 
ATOM     14  H   UNL     1      44.571  17.549  19.015  0.00  0.00    +0.410 HD
ATOM     15  C   UNL     1      45.584  18.912  18.161  0.00  0.00    +0.263 C 
ATOM     16  C   UNL     1      46.480  17.776  17.643  0.00  0.00    +0.090 C 
ATOM     17  C   UNL     1      45.799  17.998  20.331  0.00  0.00    +0.138 C 
ATOM     18  O   UNL     1      48.105  21.393  20.728  0.00  0.00    -0.484 OA
ATOM     19  C   UNL     1      47.283  17.985  20.002  0.00  0.00    +0.166 C 
ATOM     20  C   UNL     1      49.856  20.276  18.715  0.00  0.00    +0.061 A 
ATOM     21  C   UNL     1      50.792  19.932  17.741  0.00  0.00    +0.070 A 
ATOM     22  O   UNL     1      51.853  20.652  17.302  0.00  0.00    -0.300 OA
ATOM     23  C   UNL     1      52.248  20.038  16.057  0.00  0.00    +0.444 C 
ATOM     24  O   UNL     1      51.795  18.673  16.181  0.00  0.00    -0.300 OA
ATOM     25  C   UNL     1      47.573  17.364  18.655  0.00  0.00    +0.104 C 
ATOM     26  C   UNL     1      50.752  18.717  17.043  0.00  0.00    +0.021 A 
ENDROOT
TORSDOF 0
ENDMDL
MODEL 6
REMARK VINA RESULT:      -6.0      3.166      7.109
REMARK  Name = ZINC03594643
REMARK  0 active torsions:
REMARK  status: ('A' for Active; 'I' for Inactive)
REMARK                            x       y       z     vdW  Elec       q    Type
REMARK                         _______ _______ _______ _____ _____    ______ ____
ROOT
ATOM      1  C   UNL     1      44.460  15.792  21.924  0.00  0.00    +0.119 A 
ATOM      2  C   UNL     1      45.195  15.246  20.885  0.00  0.00    -0.145 A 
ATOM      3  C   UNL     1      45.447  15.904  19.678  0.00  0.00    +0.146 A 
ATOM      4  N   UNL     1      46.102  15.067  18.783  0.00  0.00    -0.552 N 
ATOM      5  C   UNL     1      46.658  15.363  17.594  0.00  0.00    +0.527 C 
ATOM      6  C   UNL     1      47.466  14.311  16.890  0.00  0.00    +0.108 C 
ATOM      7  C   UNL     1      47.244  12.914  17.462  0.00  0.00    -0.030 C 
ATOM      8  C   UNL     1      45.799  12.452  17.245  0.00  0.00    +0.080 C 
ATOM      9  C   UNL     1      45.016  12.928  18.521  0.00  0.00    +0.078 C 
ATOM     10  C   UNL     1      48.358  12.038  16.979  0.00  0.00    +0.056 C 
ATOM     11  C   UNL     1      49.484  12.096  17.654  0.00  0.00    -0.030 C 
ATOM     12  C   UNL     1      49.718  12.890  18.906  0.00  0.00    +0.315 C 
ATOM     13  N   UNL     1      48.525  13.224  19.621  0.00  0.00    -0.356 N 
ATOM     14  H   UNL     1      48.539  12.503  20.328  0.00  0.00    +0.410 HD
ATOM     15  C   UNL     1      48.389  14.393  20.461  0.00  0.00    +0.263 C 
ATOM     16  C   UNL     1      47.273  14.128  21.484  0.00  0.00    +0.090 C 
ATOM     17  C   UNL     1      47.308  12.886  18.994  0.00  0.00    +0.138 C 
ATOM     18  O   UNL     1      46.509  16.461  17.100  0.00  0.00    -0.484 OA
ATOM     19  C   UNL     1      46.069  13.698  19.335  0.00  0.00    +0.166 C 
ATOM     20  C   UNL     1      45.008  17.218  19.454  0.00  0.00    +0.061 A 
ATOM     21  C   UNL     1      44.282  17.780  20.502  0.00  0.00    +0.070 A 
ATOM     22  O   UNL     1      43.733  19.017  20.578  0.00  0.00    -0.300 OA
ATOM     23  C   UNL     1      43.445  19.227  21.975  0.00  0.00    +0.444 C 
ATOM     24  O   UNL     1      43.276  17.894  22.502  0.00  0.00    -0.300 OA
ATOM     25  C   UNL     1      45.895  13.896  20.823  0.00  0.00    +0.104 C 
ATOM     26  C   UNL     1      44.008  17.092  21.692  0.00  0.00    +0.021 A 
ENDROOT
TORSDOF 0
ENDMDL
MODEL 7
REMARK VINA RESULT:      -6.0      2.568      5.890
REMARK  Name = ZINC03594643
REMARK  0 active torsions:
REMARK  status: ('A' for Active; 'I' for Inactive)
REMARK                            x       y       z     vdW  Elec       q    Type
REMARK                         _______ _______ _______ _____ _____    ______ ____
ROOT
ATOM      1  C   UNL     1      43.742  20.803  18.796  0.00  0.00    +0.119 A 
ATOM      2  C   UNL     1      44.418  19.750  19.392  0.00  0.00    -0.145 A 
ATOM      3  C   UNL     1      43.822  18.835  20.264  0.00  0.00    +0.146 A 
ATOM      4  N   UNL     1      44.769  17.969  20.797  0.00  0.00    -0.552 N 
ATOM      5  C   UNL     1      44.584  16.861  21.538  0.00  0.00    +0.527 C 
ATOM      6  C   UNL     1      45.769  15.992  21.848  0.00  0.00    +0.108 C 
ATOM      7  C   UNL     1      47.099  16.687  21.577  0.00  0.00    -0.030 C 
ATOM      8  C   UNL     1      47.292  17.891  22.505  0.00  0.00    +0.080 C 
ATOM      9  C   UNL     1      46.676  19.112  21.734  0.00  0.00    +0.078 C 
ATOM     10  C   UNL     1      48.165  15.637  21.532  0.00  0.00    +0.056 C 
ATOM     11  C   UNL     1      48.309  14.996  20.394  0.00  0.00    -0.030 C 
ATOM     12  C   UNL     1      47.565  15.284  19.123  0.00  0.00    +0.315 C 
ATOM     13  N   UNL     1      47.017  16.603  19.050  0.00  0.00    -0.356 N 
ATOM     14  H   UNL     1      47.724  17.055  18.489  0.00  0.00    +0.410 HD
ATOM     15  C   UNL     1      45.838  16.946  18.285  0.00  0.00    +0.263 C 
ATOM     16  C   UNL     1      45.891  18.446  17.958  0.00  0.00    +0.090 C 
ATOM     17  C   UNL     1      47.131  17.390  20.214  0.00  0.00    +0.138 C 
ATOM     18  O   UNL     1      43.480  16.569  21.946  0.00  0.00    -0.484 OA
ATOM     19  C   UNL     1      46.106  18.489  20.449  0.00  0.00    +0.166 C 
ATOM     20  C   UNL     1      42.451  18.890  20.560  0.00  0.00    +0.061 A 
ATOM     21  C   UNL     1      41.761  19.937  19.952  0.00  0.00    +0.070 A 
ATOM     22  O   UNL     1      40.445  20.245  20.046  0.00  0.00    -0.300 OA
ATOM     23  C   UNL     1      40.179  21.146  18.951  0.00  0.00    +0.444 C 
ATOM     24  O   UNL     1      41.458  21.763  18.688  0.00  0.00    -0.300 OA
ATOM     25  C   UNL     1      45.872  19.337  19.221  0.00  0.00    +0.104 C 
ATOM     26  C   UNL     1      42.383  20.867  19.107  0.00  0.00    +0.021 A 
ENDROOT
TORSDOF 0
ENDMDL
MODEL 8
REMARK VINA RESULT:      -5.9      3.136      5.379
REMARK  Name = ZINC03594643
REMARK  0 active torsions:
REMARK  status: ('A' for Active; 'I' for Inactive)
REMARK                            x       y       z     vdW  Elec       q    Type
REMARK                         _______ _______ _______ _____ _____    ______ ____
ROOT
ATOM      1  C   UNL     1      43.647  19.660  18.872  0.00  0.00    +0.119 A 
ATOM      2  C   UNL     1      44.973  19.396  19.174  0.00  0.00    -0.145 A 
ATOM      3  C   UNL     1      45.421  18.998  20.437  0.00  0.00    +0.146 A 
ATOM      4  N   UNL     1      46.808  18.927  20.472  0.00  0.00    -0.552 N 
ATOM      5  C   UNL     1      47.608  18.435  21.434  0.00  0.00    +0.527 C 
ATOM      6  C   UNL     1      49.080  18.311  21.159  0.00  0.00    +0.108 C 
ATOM      7  C   UNL     1      49.521  19.106  19.934  0.00  0.00    -0.030 C 
ATOM      8  C   UNL     1      49.329  20.610  20.155  0.00  0.00    +0.080 C 
ATOM      9  C   UNL     1      47.879  20.923  19.640  0.00  0.00    +0.078 C 
ATOM     10  C   UNL     1      50.871  18.607  19.525  0.00  0.00    +0.056 C 
ATOM     11  C   UNL     1      50.896  17.521  18.784  0.00  0.00    -0.030 C 
ATOM     12  C   UNL     1      49.696  16.798  18.245  0.00  0.00    +0.315 C 
ATOM     13  N   UNL     1      48.513  17.599  18.170  0.00  0.00    -0.356 N 
ATOM     14  H   UNL     1      48.536  17.850  17.192  0.00  0.00    +0.410 HD
ATOM     15  C   UNL     1      47.171  17.066  18.257  0.00  0.00    +0.263 C 
ATOM     16  C   UNL     1      46.213  18.050  17.569  0.00  0.00    +0.090 C 
ATOM     17  C   UNL     1      48.599  18.891  18.727  0.00  0.00    +0.138 C 
ATOM     18  O   UNL     1      47.150  18.096  22.505  0.00  0.00    -0.484 OA
ATOM     19  C   UNL     1      47.325  19.546  19.236  0.00  0.00    +0.166 C 
ATOM     20  C   UNL     1      44.527  18.780  21.496  0.00  0.00    +0.061 A 
ATOM     21  C   UNL     1      43.189  19.027  21.196  0.00  0.00    +0.070 A 
ATOM     22  O   UNL     1      42.108  18.907  22.004  0.00  0.00    -0.300 OA
ATOM     23  C   UNL     1      40.965  18.902  21.123  0.00  0.00    +0.444 C 
ATOM     24  O   UNL     1      41.417  19.625  19.959  0.00  0.00    -0.300 OA
ATOM     25  C   UNL     1      46.183  19.436  18.252  0.00  0.00    +0.104 C 
ATOM     26  C   UNL     1      42.761  19.460  19.933  0.00  0.00    +0.021 A 
ENDROOT
TORSDOF 0
ENDMDL
MODEL 9
REMARK VINA RESULT:      -5.8      3.735      6.881
REMARK  Name = ZINC03594643
REMARK  0 active torsions:
REMARK  status: ('A' for Active; 'I' for Inactive)
REMARK                            x       y       z     vdW  Elec       q    Type
REMARK                         _______ _______ _______ _____ _____    ______ ____
ROOT
ATOM      1  C   UNL     1      47.512  21.542  20.863  0.00  0.00    +0.119 A 
ATOM      2  C   UNL     1      48.020  20.478  20.134  0.00  0.00    -0.145 A 
ATOM      3  C   UNL     1      47.282  19.756  19.192  0.00  0.00    +0.146 A 
ATOM      4  N   UNL     1      48.012  18.676  18.712  0.00  0.00    -0.552 N 
ATOM      5  C   UNL     1      47.729  17.844  17.694  0.00  0.00    +0.527 C 
ATOM      6  C   UNL     1      48.769  16.854  17.256  0.00  0.00    +0.108 C 
ATOM      7  C   UNL     1      49.889  16.683  18.277  0.00  0.00    -0.030 C 
ATOM      8  C   UNL     1      49.359  16.083  19.583  0.00  0.00    +0.080 C 
ATOM      9  C   UNL     1      48.952  17.314  20.469  0.00  0.00    +0.078 C 
ATOM     10  C   UNL     1      51.037  16.009  17.591  0.00  0.00    +0.056 C 
ATOM     11  C   UNL     1      51.839  16.782  16.893  0.00  0.00    -0.030 C 
ATOM     12  C   UNL     1      51.756  18.278  16.798  0.00  0.00    +0.315 C 
ATOM     13  N   UNL     1      51.050  18.895  17.878  0.00  0.00    -0.356 N 
ATOM     14  H   UNL     1      51.829  19.187  18.451  0.00  0.00    +0.410 HD
ATOM     15  C   UNL     1      50.341  20.152  17.766  0.00  0.00    +0.263 C 
ATOM     16  C   UNL     1      50.234  20.775  19.166  0.00  0.00    +0.090 C 
ATOM     17  C   UNL     1      50.425  18.024  18.794  0.00  0.00    +0.138 C 
ATOM     18  O   UNL     1      46.652  17.895  17.137  0.00  0.00    -0.484 OA
ATOM     19  C   UNL     1      49.212  18.527  19.560  0.00  0.00    +0.166 C 
ATOM     20  C   UNL     1      45.960  20.103  18.873  0.00  0.00    +0.061 A 
ATOM     21  C   UNL     1      45.448  21.182  19.591  0.00  0.00    +0.070 A 
ATOM     22  O   UNL     1      44.217  21.742  19.505  0.00  0.00    -0.300 OA
ATOM     23  C   UNL     1      44.330  23.026  20.153  0.00  0.00    +0.444 C 
ATOM     24  O   UNL     1      45.418  22.853  21.085  0.00  0.00    -0.300 OA
ATOM     25  C   UNL     1      49.427  19.900  20.152  0.00  0.00    +0.104 C 
ATOM     26  C   UNL     1      46.190  21.873  20.558  0.00  0.00    +0.021 A 
ENDROOT
TORSDOF 0
ENDMDL
