MODEL 1
REMARK VINA RESULT:      -6.7      0.000      0.000
REMARK  Name = ZINC95485929
REMARK  9 active torsions:
REMARK  status: ('A' for Active; 'I' for Inactive)
REMARK    1  A    between atoms: C1_1  and  C2_2
REMARK    2  A    between atoms: C2_2  and  C3_3
REMARK    3  A    between atoms: C3_3  and  C23_29
REMARK    4  A    between atoms: C4_4  and  C5_5
REMARK    5  A    between atoms: C5_5  and  C6_6
REMARK    6  A    between atoms: C10_10  and  O2_14
REMARK    7  A    between atoms: C11_11  and  O1_12
REMARK    8  A    between atoms: O1_12  and  C12_13
REMARK    9  A    between atoms: O2_14  and  C13_15
REMARK                            x       y       z     vdW  Elec       q    Type
REMARK                         _______ _______ _______ _____ _____    ______ ____
ROOT
ATOM      7  C   UNL     1      48.537  19.289  20.082  0.00  0.00    +0.030 A 
ATOM      8  C   UNL     1      47.144  19.270  20.178  0.00  0.00    -0.234 A 
ATOM      9  C   UNL     1      46.458  18.064  20.393  0.00  0.00    +0.202 A 
ATOM     10  O   UNL     1      45.114  18.038  20.506  0.00  0.00    -0.235 OA
ATOM     11  C   UNL     1      44.343  19.072  20.106  0.00  0.00    +0.224 A 
ATOM     12  C   UNL     1      42.984  18.881  19.923  0.00  0.00    -0.151 A 
ATOM     13  C   UNL     1      42.173  19.935  19.518  0.00  0.00    +0.138 A 
ATOM     14  C   UNL     1      42.733  21.206  19.294  0.00  0.00    -0.267 A 
ATOM     15  C   UNL     1      44.101  21.413  19.470  0.00  0.00    +0.377 A 
ATOM     16  O   UNL     1      44.645  22.636  19.254  0.00  0.00    -0.639 OA
ATOM     17  C   UNL     1      41.612  22.065  18.890  0.00  0.00    +0.001 A 
ATOM     18  C   UNL     1      40.523  21.286  18.900  0.00  0.00    +0.117 A 
ATOM     19  O   UNL     1      40.852  20.034  19.268  0.00  0.00    -0.200 OA
ATOM     20  C   UNL     1      44.904  20.343  19.871  0.00  0.00    -0.393 A 
ATOM     21  C   UNL     1      47.184  16.884  20.498  0.00  0.00    -0.096 A 
ATOM     22  C   UNL     1      48.564  16.906  20.400  0.00  0.00    +0.163 A 
ATOM     25  C   UNL     1      46.358  20.515  20.052  0.00  0.00    +0.442 A 
ATOM     26  O   UNL     1      46.879  21.615  20.094  0.00  0.00    -0.442 OA
ATOM     27  C   UNL     1      49.243  18.108  20.188  0.00  0.00    +0.024 A 
ENDROOT
BRANCH  22  23
ATOM     23  O   UNL     1      49.264  15.747  20.505  0.00  0.00    -0.300 OA
ATOM     24  C   UNL     1      49.273  14.890  19.362  0.00  0.00    +0.239 C 
ENDBRANCH  22  23
BRANCH  27  28
ATOM     28  O   UNL     1      50.600  18.116  20.091  0.00  0.00    -0.314 OA
ATOM     29  C   UNL     1      51.337  18.181  21.313  0.00  0.00    +0.209 C 
ENDBRANCH  27  28
BRANCH   7   6
ATOM      6  C   UNL     1      49.264  20.590  19.858  0.00  0.00    +0.131 C 
BRANCH   6   5
ATOM      3  C   UNL     1      50.956  21.052  18.160  0.00  0.00    -0.155 C 
ATOM      4  C   UNL     1      51.936  21.284  19.279  0.00  0.00    +0.068 C 
ATOM      5  C   UNL     1      49.735  20.660  18.428  0.00  0.00    +0.001 C 
BRANCH   3   2
ATOM      1  C   UNL     1      51.912  19.956  16.150  0.00  0.00    +0.014 C 
ATOM      2  C   UNL     1      51.381  21.269  16.730  0.00  0.00    +0.047 C 
ENDBRANCH   3   2
ENDBRANCH   6   5
ENDBRANCH   7   6
TORSDOF 5
ENDMDL
MODEL 2
REMARK VINA RESULT:      -6.6      2.386      3.422
REMARK  Name = ZINC95485929
REMARK  9 active torsions:
REMARK  status: ('A' for Active; 'I' for Inactive)
REMARK    1  A    between atoms: C1_1  and  C2_2
REMARK    2  A    between atoms: C2_2  and  C3_3
REMARK    3  A    between atoms: C3_3  and  C23_29
REMARK    4  A    between atoms: C4_4  and  C5_5
REMARK    5  A    between atoms: C5_5  and  C6_6
REMARK    6  A    between atoms: C10_10  and  O2_14
REMARK    7  A    between atoms: C11_11  and  O1_12
REMARK    8  A    between atoms: O1_12  and  C12_13
REMARK    9  A    between atoms: O2_14  and  C13_15
REMARK                            x       y       z     vdW  Elec       q    Type
REMARK                         _______ _______ _______ _____ _____    ______ ____
ROOT
ATOM      7  C   UNL     1      49.073  16.584  17.730  0.00  0.00    +0.030 A 
ATOM      8  C   UNL     1      47.926  17.259  18.153  0.00  0.00    -0.234 A 
ATOM      9  C   UNL     1      46.650  16.739  17.888  0.00  0.00    +0.202 A 
ATOM     10  O   UNL     1      45.537  17.374  18.309  0.00  0.00    -0.235 OA
ATOM     11  C   UNL     1      45.558  18.665  18.705  0.00  0.00    +0.224 A 
ATOM     12  C   UNL     1      44.370  19.370  18.803  0.00  0.00    -0.151 A 
ATOM     13  C   UNL     1      44.371  20.696  19.217  0.00  0.00    +0.138 A 
ATOM     14  C   UNL     1      45.584  21.331  19.540  0.00  0.00    -0.267 A 
ATOM     15  C   UNL     1      46.789  20.635  19.443  0.00  0.00    +0.377 A 
ATOM     16  O   UNL     1      47.961  21.244  19.753  0.00  0.00    -0.639 OA
ATOM     17  C   UNL     1      45.222  22.699  19.934  0.00  0.00    +0.001 A 
ATOM     18  C   UNL     1      43.889  22.778  19.821  0.00  0.00    +0.117 A 
ATOM     19  O   UNL     1      43.389  21.603  19.398  0.00  0.00    -0.200 OA
ATOM     20  C   UNL     1      46.773  19.304  19.020  0.00  0.00    -0.393 A 
ATOM     21  C   UNL     1      46.541  15.545  17.185  0.00  0.00    -0.096 A 
ATOM     22  C   UNL     1      47.679  14.879  16.765  0.00  0.00    +0.163 A 
ATOM     25  C   UNL     1      48.027  18.538  18.887  0.00  0.00    +0.442 A 
ATOM     26  O   UNL     1      49.080  18.935  19.351  0.00  0.00    -0.442 OA
ATOM     27  C   UNL     1      48.947  15.400  17.033  0.00  0.00    +0.024 A 
ENDROOT
BRANCH  22  23
ATOM     23  O   UNL     1      47.561  13.713  16.080  0.00  0.00    -0.300 OA
ATOM     24  C   UNL     1      46.845  12.654  16.720  0.00  0.00    +0.239 C 
ENDBRANCH  22  23
BRANCH  27  28
ATOM     28  O   UNL     1      50.058  14.737  16.612  0.00  0.00    -0.314 OA
ATOM     29  C   UNL     1      50.555  13.700  17.460  0.00  0.00    +0.209 C 
ENDBRANCH  27  28
BRANCH   7   6
ATOM      6  C   UNL     1      50.438  17.149  18.026  0.00  0.00    +0.131 C 
BRANCH   6   5
ATOM      3  C   UNL     1      51.827  18.875  17.001  0.00  0.00    -0.155 C 
ATOM      4  C   UNL     1      52.498  19.050  18.338  0.00  0.00    +0.068 C 
ATOM      5  C   UNL     1      50.921  17.943  16.840  0.00  0.00    +0.001 C 
BRANCH   3   2
ATOM      1  C   UNL     1      51.655  21.179  16.100  0.00  0.00    +0.014 C 
ATOM      2  C   UNL     1      52.200  19.771  15.848  0.00  0.00    +0.047 C 
ENDBRANCH   3   2
ENDBRANCH   6   5
ENDBRANCH   7   6
TORSDOF 5
ENDMDL
MODEL 3
REMARK VINA RESULT:      -5.9      3.033      6.639
REMARK  Name = ZINC95485929
REMARK  9 active torsions:
REMARK  status: ('A' for Active; 'I' for Inactive)
REMARK    1  A    between atoms: C1_1  and  C2_2
REMARK    2  A    between atoms: C2_2  and  C3_3
REMARK    3  A    between atoms: C3_3  and  C23_29
REMARK    4  A    between atoms: C4_4  and  C5_5
REMARK    5  A    between atoms: C5_5  and  C6_6
REMARK    6  A    between atoms: C10_10  and  O2_14
REMARK    7  A    between atoms: C11_11  and  O1_12
REMARK    8  A    between atoms: O1_12  and  C12_13
REMARK    9  A    between atoms: O2_14  and  C13_15
REMARK                            x       y       z     vdW  Elec       q    Type
REMARK                         _______ _______ _______ _____ _____    ______ ____
ROOT
ATOM      7  C   UNL     1      49.078  18.497  18.825  0.00  0.00    +0.030 A 
ATOM      8  C   UNL     1      48.994  17.202  18.310  0.00  0.00    -0.234 A 
ATOM      9  C   UNL     1      49.950  16.731  17.396  0.00  0.00    +0.202 A 
ATOM     10  O   UNL     1      49.888  15.475  16.907  0.00  0.00    -0.235 OA
ATOM     11  C   UNL     1      48.768  14.728  17.000  0.00  0.00    +0.224 A 
ATOM     12  C   UNL     1      48.630  13.600  16.208  0.00  0.00    -0.151 A 
ATOM     13  C   UNL     1      47.488  12.814  16.295  0.00  0.00    +0.138 A 
ATOM     14  C   UNL     1      46.463  13.161  17.193  0.00  0.00    -0.267 A 
ATOM     15  C   UNL     1      46.585  14.295  17.996  0.00  0.00    +0.377 A 
ATOM     16  O   UNL     1      45.599  14.633  18.863  0.00  0.00    -0.639 OA
ATOM     17  C   UNL     1      45.429  12.130  17.030  0.00  0.00    +0.001 A 
ATOM     18  C   UNL     1      45.887  11.289  16.094  0.00  0.00    +0.117 A 
ATOM     19  O   UNL     1      47.096  11.690  15.660  0.00  0.00    -0.200 OA
ATOM     20  C   UNL     1      47.736  15.078  17.893  0.00  0.00    -0.393 A 
ATOM     21  C   UNL     1      50.978  17.578  16.999  0.00  0.00    -0.096 A 
ATOM     22  C   UNL     1      51.058  18.861  17.509  0.00  0.00    +0.163 A 
ATOM     25  C   UNL     1      47.898  16.296  18.711  0.00  0.00    +0.442 A 
ATOM     26  O   UNL     1      47.171  16.541  19.657  0.00  0.00    -0.442 OA
ATOM     27  C   UNL     1      50.106  19.325  18.419  0.00  0.00    +0.024 A 
ENDROOT
BRANCH  22  23
ATOM     23  O   UNL     1      52.067  19.680  17.115  0.00  0.00    -0.300 OA
ATOM     24  C   UNL     1      52.183  19.939  15.715  0.00  0.00    +0.239 C 
ENDBRANCH  22  23
BRANCH  27  28
ATOM     28  O   UNL     1      50.193  20.590  18.912  0.00  0.00    -0.314 OA
ATOM     29  C   UNL     1      51.021  20.783  20.060  0.00  0.00    +0.209 C 
ENDBRANCH  27  28
BRANCH   7   6
ATOM      6  C   UNL     1      48.051  18.989  19.810  0.00  0.00    +0.131 C 
BRANCH   6   5
ATOM      3  C   UNL     1      46.629  20.963  19.602  0.00  0.00    -0.155 C 
ATOM      4  C   UNL     1      47.307  21.512  20.830  0.00  0.00    +0.068 C 
ATOM      5  C   UNL     1      47.024  19.824  19.089  0.00  0.00    +0.001 C 
BRANCH   3   2
ATOM      1  C   UNL     1      44.161  21.141  19.433  0.00  0.00    +0.014 C 
ATOM      2  C   UNL     1      45.496  21.724  18.964  0.00  0.00    +0.047 C 
ENDBRANCH   3   2
ENDBRANCH   6   5
ENDBRANCH   7   6
TORSDOF 5
ENDMDL
MODEL 4
REMARK VINA RESULT:      -5.7      3.141      7.529
REMARK  Name = ZINC95485929
REMARK  9 active torsions:
REMARK  status: ('A' for Active; 'I' for Inactive)
REMARK    1  A    between atoms: C1_1  and  C2_2
REMARK    2  A    between atoms: C2_2  and  C3_3
REMARK    3  A    between atoms: C3_3  and  C23_29
REMARK    4  A    between atoms: C4_4  and  C5_5
REMARK    5  A    between atoms: C5_5  and  C6_6
REMARK    6  A    between atoms: C10_10  and  O2_14
REMARK    7  A    between atoms: C11_11  and  O1_12
REMARK    8  A    between atoms: O1_12  and  C12_13
REMARK    9  A    between atoms: O2_14  and  C13_15
REMARK                            x       y       z     vdW  Elec       q    Type
REMARK                         _______ _______ _______ _____ _____    ______ ____
ROOT
ATOM      7  C   UNL     1      46.062  17.919  20.046  0.00  0.00    +0.030 A 
ATOM      8  C   UNL     1      46.582  16.890  19.258  0.00  0.00    -0.234 A 
ATOM      9  C   UNL     1      47.665  17.125  18.397  0.00  0.00    +0.202 A 
ATOM     10  O   UNL     1      48.186  16.134  17.646  0.00  0.00    -0.235 OA
ATOM     11  C   UNL     1      47.523  14.978  17.428  0.00  0.00    +0.224 A 
ATOM     12  C   UNL     1      47.924  14.141  16.401  0.00  0.00    -0.151 A 
ATOM     13  C   UNL     1      47.258  12.944  16.167  0.00  0.00    +0.138 A 
ATOM     14  C   UNL     1      46.169  12.576  16.977  0.00  0.00    -0.267 A 
ATOM     15  C   UNL     1      45.751  13.410  18.014  0.00  0.00    +0.377 A 
ATOM     16  O   UNL     1      44.701  13.058  18.797  0.00  0.00    -0.639 OA
ATOM     17  C   UNL     1      45.715  11.277  16.462  0.00  0.00    +0.001 A 
ATOM     18  C   UNL     1      46.522  10.982  15.435  0.00  0.00    +0.117 A 
ATOM     19  O   UNL     1      47.428  11.961  15.259  0.00  0.00    -0.200 OA
ATOM     20  C   UNL     1      46.426  14.612  18.233  0.00  0.00    -0.393 A 
ATOM     21  C   UNL     1      48.208  18.403  18.329  0.00  0.00    -0.096 A 
ATOM     22  C   UNL     1      47.689  19.421  19.110  0.00  0.00    +0.163 A 
ATOM     25  C   UNL     1      46.004  15.531  19.308  0.00  0.00    +0.442 A 
ATOM     26  O   UNL     1      45.226  15.191  20.181  0.00  0.00    -0.442 OA
ATOM     27  C   UNL     1      46.613  19.182  19.966  0.00  0.00    +0.024 A 
ENDROOT
BRANCH  22  23
ATOM     23  O   UNL     1      48.228  20.665  19.036  0.00  0.00    -0.300 OA
ATOM     24  C   UNL     1      49.653  20.759  19.088  0.00  0.00    +0.239 C 
ENDBRANCH  22  23
BRANCH  27  28
ATOM     28  O   UNL     1      46.110  20.192  20.726  0.00  0.00    -0.314 OA
ATOM     29  C   UNL     1      45.376  21.212  20.046  0.00  0.00    +0.209 C 
ENDBRANCH  27  28
BRANCH   7   6
ATOM      6  C   UNL     1      44.903  17.653  20.972  0.00  0.00    +0.131 C 
BRANCH   6   5
ATOM      3  C   UNL     1      42.731  18.764  21.069  0.00  0.00    -0.155 C 
ATOM      4  C   UNL     1      43.031  19.103  22.505  0.00  0.00    +0.068 C 
ATOM      5  C   UNL     1      43.631  18.153  20.338  0.00  0.00    +0.001 C 
BRANCH   3   2
ATOM      1  C   UNL     1      41.607  20.071  19.286  0.00  0.00    +0.014 C 
ATOM      2  C   UNL     1      41.396  19.128  20.472  0.00  0.00    +0.047 C 
ENDBRANCH   3   2
ENDBRANCH   6   5
ENDBRANCH   7   6
TORSDOF 5
ENDMDL
MODEL 5
REMARK VINA RESULT:      -5.5      3.348      7.263
REMARK  Name = ZINC95485929
REMARK  9 active torsions:
REMARK  status: ('A' for Active; 'I' for Inactive)
REMARK    1  A    between atoms: C1_1  and  C2_2
REMARK    2  A    between atoms: C2_2  and  C3_3
REMARK    3  A    between atoms: C3_3  and  C23_29
REMARK    4  A    between atoms: C4_4  and  C5_5
REMARK    5  A    between atoms: C5_5  and  C6_6
REMARK    6  A    between atoms: C10_10  and  O2_14
REMARK    7  A    between atoms: C11_11  and  O1_12
REMARK    8  A    between atoms: O1_12  and  C12_13
REMARK    9  A    between atoms: O2_14  and  C13_15
REMARK                            x       y       z     vdW  Elec       q    Type
REMARK                         _______ _______ _______ _____ _____    ______ ____
ROOT
ATOM      7  C   UNL     1      48.464  17.742  18.606  0.00  0.00    +0.030 A 
ATOM      8  C   UNL     1      48.263  16.626  17.793  0.00  0.00    -0.234 A 
ATOM      9  C   UNL     1      46.966  16.225  17.435  0.00  0.00    +0.202 A 
ATOM     10  O   UNL     1      46.762  15.159  16.634  0.00  0.00    -0.235 OA
ATOM     11  C   UNL     1      47.728  14.245  16.403  0.00  0.00    +0.224 A 
ATOM     12  C   UNL     1      47.390  13.013  15.866  0.00  0.00    -0.151 A 
ATOM     13  C   UNL     1      48.372  12.063  15.613  0.00  0.00    +0.138 A 
ATOM     14  C   UNL     1      49.718  12.349  15.902  0.00  0.00    -0.267 A 
ATOM     15  C   UNL     1      50.074  13.583  16.446  0.00  0.00    +0.377 A 
ATOM     16  O   UNL     1      51.371  13.862  16.726  0.00  0.00    -0.639 OA
ATOM     17  C   UNL     1      50.469  11.147  15.514  0.00  0.00    +0.001 A 
ATOM     18  C   UNL     1      49.564  10.277  15.049  0.00  0.00    +0.117 A 
ATOM     19  O   UNL     1      48.331  10.813  15.108  0.00  0.00    -0.200 OA
ATOM     20  C   UNL     1      49.076  14.526  16.699  0.00  0.00    -0.393 A 
ATOM     21  C   UNL     1      45.880  16.949  17.913  0.00  0.00    -0.096 A 
ATOM     22  C   UNL     1      46.083  18.054  18.721  0.00  0.00    +0.163 A 
ATOM     25  C   UNL     1      49.407  15.837  17.291  0.00  0.00    +0.442 A 
ATOM     26  O   UNL     1      50.553  16.243  17.363  0.00  0.00    -0.442 OA
ATOM     27  C   UNL     1      47.375  18.450  19.073  0.00  0.00    +0.024 A 
ENDROOT
BRANCH  22  23
ATOM     23  O   UNL     1      45.015  18.756  19.181  0.00  0.00    -0.300 OA
ATOM     24  C   UNL     1      44.174  18.104  20.135  0.00  0.00    +0.239 C 
ENDBRANCH  22  23
BRANCH  27  28
ATOM     28  O   UNL     1      47.561  19.537  19.870  0.00  0.00    -0.314 OA
ATOM     29  C   UNL     1      47.526  19.319  21.281  0.00  0.00    +0.209 C 
ENDBRANCH  27  28
BRANCH   7   6
ATOM      6  C   UNL     1      49.861  18.168  18.978  0.00  0.00    +0.131 C 
BRANCH   6   5
ATOM      3  C   UNL     1      50.748  20.365  18.390  0.00  0.00    -0.155 C 
ATOM      4  C   UNL     1      50.844  20.660  19.864  0.00  0.00    +0.068 C 
ATOM      5  C   UNL     1      50.359  19.183  17.981  0.00  0.00    +0.001 C 
BRANCH   3   2
ATOM      1  C   UNL     1      51.886  20.804  16.230  0.00  0.00    +0.014 C 
ATOM      2  C   UNL     1      51.100  21.431  17.384  0.00  0.00    +0.047 C 
ENDBRANCH   3   2
ENDBRANCH   6   5
ENDBRANCH   7   6
TORSDOF 5
ENDMDL
MODEL 6
REMARK VINA RESULT:      -5.4      3.581      7.764
REMARK  Name = ZINC95485929
REMARK  9 active torsions:
REMARK  status: ('A' for Active; 'I' for Inactive)
REMARK    1  A    between atoms: C1_1  and  C2_2
REMARK    2  A    between atoms: C2_2  and  C3_3
REMARK    3  A    between atoms: C3_3  and  C23_29
REMARK    4  A    between atoms: C4_4  and  C5_5
REMARK    5  A    between atoms: C5_5  and  C6_6
REMARK    6  A    between atoms: C10_10  and  O2_14
REMARK    7  A    between atoms: C11_11  and  O1_12
REMARK    8  A    between atoms: O1_12  and  C12_13
REMARK    9  A    between atoms: O2_14  and  C13_15
REMARK                            x       y       z     vdW  Elec       q    Type
REMARK                         _______ _______ _______ _____ _____    ______ ____
ROOT
ATOM      7  C   UNL     1      47.157  14.447  17.960  0.00  0.00    +0.030 A 
ATOM      8  C   UNL     1      48.229  15.306  17.710  0.00  0.00    -0.234 A 
ATOM      9  C   UNL     1      49.431  14.815  17.178  0.00  0.00    +0.202 A 
ATOM     10  O   UNL     1      50.466  15.639  16.915  0.00  0.00    -0.235 OA
ATOM     11  C   UNL     1      50.535  16.885  17.431  0.00  0.00    +0.224 A 
ATOM     12  C   UNL     1      51.742  17.564  17.421  0.00  0.00    -0.151 A 
ATOM     13  C   UNL     1      51.830  18.850  17.940  0.00  0.00    +0.138 A 
ATOM     14  C   UNL     1      50.689  19.470  18.480  0.00  0.00    -0.267 A 
ATOM     15  C   UNL     1      49.467  18.798  18.501  0.00  0.00    +0.377 A 
ATOM     16  O   UNL     1      48.365  19.392  19.021  0.00  0.00    -0.639 OA
ATOM     17  C   UNL     1      51.134  20.798  18.925  0.00  0.00    +0.001 A 
ATOM     18  C   UNL     1      52.440  20.869  18.636  0.00  0.00    +0.117 A 
ATOM     19  O   UNL     1      52.850  19.725  18.059  0.00  0.00    -0.200 OA
ATOM     20  C   UNL     1      49.395  17.504  17.981  0.00  0.00    -0.393 A 
ATOM     21  C   UNL     1      49.547  13.455  16.915  0.00  0.00    -0.096 A 
ATOM     22  C   UNL     1      48.484  12.606  17.166  0.00  0.00    +0.163 A 
ATOM     25  C   UNL     1      48.126  16.751  18.000  0.00  0.00    +0.442 A 
ATOM     26  O   UNL     1      47.059  17.287  18.241  0.00  0.00    -0.442 OA
ATOM     27  C   UNL     1      47.289  13.099  17.693  0.00  0.00    +0.024 A 
ENDROOT
BRANCH  22  23
ATOM     23  O   UNL     1      48.607  11.279  16.905  0.00  0.00    -0.300 OA
ATOM     24  C   UNL     1      48.613  10.887  15.531  0.00  0.00    +0.239 C 
ENDBRANCH  22  23
BRANCH  27  28
ATOM     28  O   UNL     1      46.252  12.254  17.939  0.00  0.00    -0.314 OA
ATOM     29  C   UNL     1      45.327  12.036  16.872  0.00  0.00    +0.209 C 
ENDBRANCH  27  28
BRANCH   7   6
ATOM      6  C   UNL     1      45.868  14.987  18.524  0.00  0.00    +0.131 C 
BRANCH   6   5
ATOM      3  C   UNL     1      45.188  15.219  20.857  0.00  0.00    -0.155 C 
ATOM      4  C   UNL     1      44.705  16.605  20.520  0.00  0.00    +0.068 C 
ATOM      5  C   UNL     1      45.663  14.443  19.914  0.00  0.00    +0.001 C 
BRANCH   3   2
ATOM      1  C   UNL     1      45.277  13.202  22.297  0.00  0.00    +0.014 C 
ATOM      2  C   UNL     1      45.125  14.725  22.280  0.00  0.00    +0.047 C 
ENDBRANCH   3   2
ENDBRANCH   6   5
ENDBRANCH   7   6
TORSDOF 5
ENDMDL
MODEL 7
REMARK VINA RESULT:      -5.3      2.520      4.959
REMARK  Name = ZINC95485929
REMARK  9 active torsions:
REMARK  status: ('A' for Active; 'I' for Inactive)
REMARK    1  A    between atoms: C1_1  and  C2_2
REMARK    2  A    between atoms: C2_2  and  C3_3
REMARK    3  A    between atoms: C3_3  and  C23_29
REMARK    4  A    between atoms: C4_4  and  C5_5
REMARK    5  A    between atoms: C5_5  and  C6_6
REMARK    6  A    between atoms: C10_10  and  O2_14
REMARK    7  A    between atoms: C11_11  and  O1_12
REMARK    8  A    between atoms: O1_12  and  C12_13
REMARK    9  A    between atoms: O2_14  and  C13_15
REMARK                            x       y       z     vdW  Elec       q    Type
REMARK                         _______ _______ _______ _____ _____    ______ ____
ROOT
ATOM      7  C   UNL     1      49.667  18.298  17.883  0.00  0.00    +0.030 A 
ATOM      8  C   UNL     1      48.569  18.793  18.588  0.00  0.00    -0.234 A 
ATOM      9  C   UNL     1      48.632  20.040  19.229  0.00  0.00    +0.202 A 
ATOM     10  O   UNL     1      47.569  20.535  19.897  0.00  0.00    -0.235 OA
ATOM     11  C   UNL     1      46.529  19.756  20.261  0.00  0.00    +0.224 A 
ATOM     12  C   UNL     1      45.637  20.210  21.219  0.00  0.00    -0.151 A 
ATOM     13  C   UNL     1      44.556  19.425  21.601  0.00  0.00    +0.138 A 
ATOM     14  C   UNL     1      44.361  18.162  21.014  0.00  0.00    -0.267 A 
ATOM     15  C   UNL     1      45.253  17.689  20.051  0.00  0.00    +0.377 A 
ATOM     16  O   UNL     1      45.070  16.472  19.484  0.00  0.00    -0.639 OA
ATOM     17  C   UNL     1      43.146  17.620  21.636  0.00  0.00    +0.001 A 
ATOM     18  C   UNL     1      42.727  18.549  22.505  0.00  0.00    +0.117 A 
ATOM     19  O   UNL     1      43.555  19.609  22.486  0.00  0.00    -0.200 OA
ATOM     20  C   UNL     1      46.338  18.487  19.681  0.00  0.00    -0.393 A 
ATOM     21  C   UNL     1      49.811  20.774  19.164  0.00  0.00    -0.096 A 
ATOM     22  C   UNL     1      50.899  20.279  18.466  0.00  0.00    +0.163 A 
ATOM     25  C   UNL     1      47.315  18.017  18.679  0.00  0.00    +0.442 A 
ATOM     26  O   UNL     1      47.101  17.049  17.972  0.00  0.00    -0.442 OA
ATOM     27  C   UNL     1      50.831  19.039  17.828  0.00  0.00    +0.024 A 
ENDROOT
BRANCH  22  23
ATOM     23  O   UNL     1      52.045  21.004  18.408  0.00  0.00    -0.300 OA
ATOM     24  C   UNL     1      52.638  21.382  19.652  0.00  0.00    +0.239 C 
ENDBRANCH  22  23
BRANCH  27  28
ATOM     28  O   UNL     1      51.908  18.563  17.148  0.00  0.00    -0.314 OA
ATOM     29  C   UNL     1      52.168  19.133  15.864  0.00  0.00    +0.209 C 
ENDBRANCH  27  28
BRANCH   7   6
ATOM      6  C   UNL     1      49.586  16.962  17.192  0.00  0.00    +0.131 C 
BRANCH   6   5
ATOM      3  C   UNL     1      49.946  14.658  17.917  0.00  0.00    -0.155 C 
ATOM      4  C   UNL     1      48.985  14.228  16.840  0.00  0.00    +0.068 C 
ATOM      5  C   UNL     1      50.278  15.920  18.034  0.00  0.00    +0.001 C 
BRANCH   3   2
ATOM      1  C   UNL     1      49.459  12.592  19.200  0.00  0.00    +0.014 C 
ATOM      2  C   UNL     1      50.525  13.636  18.862  0.00  0.00    +0.047 C 
ENDBRANCH   3   2
ENDBRANCH   6   5
ENDBRANCH   7   6
TORSDOF 5
ENDMDL
MODEL 8
REMARK VINA RESULT:      -5.3      2.654      5.364
REMARK  Name = ZINC95485929
REMARK  9 active torsions:
REMARK  status: ('A' for Active; 'I' for Inactive)
REMARK    1  A    between atoms: C1_1  and  C2_2
REMARK    2  A    between atoms: C2_2  and  C3_3
REMARK    3  A    between atoms: C3_3  and  C23_29
REMARK    4  A    between atoms: C4_4  and  C5_5
REMARK    5  A    between atoms: C5_5  and  C6_6
REMARK    6  A    between atoms: C10_10  and  O2_14
REMARK    7  A    between atoms: C11_11  and  O1_12
REMARK    8  A    between atoms: O1_12  and  C12_13
REMARK    9  A    between atoms: O2_14  and  C13_15
REMARK                            x       y       z     vdW  Elec       q    Type
REMARK                         _______ _______ _______ _____ _____    ______ ____
ROOT
ATOM      7  C   UNL     1      48.586  16.436  17.832  0.00  0.00    +0.030 A 
ATOM      8  C   UNL     1      48.408  17.710  18.376  0.00  0.00    -0.234 A 
ATOM      9  C   UNL     1      49.425  18.314  19.131  0.00  0.00    +0.202 A 
ATOM     10  O   UNL     1      49.270  19.552  19.645  0.00  0.00    -0.235 OA
ATOM     11  C   UNL     1      48.057  20.136  19.747  0.00  0.00    +0.224 A 
ATOM     12  C   UNL     1      47.894  21.238  20.570  0.00  0.00    -0.151 A 
ATOM     13  C   UNL     1      46.655  21.857  20.682  0.00  0.00    +0.138 A 
ATOM     14  C   UNL     1      45.556  21.365  19.955  0.00  0.00    -0.267 A 
ATOM     15  C   UNL     1      45.702  20.254  19.124  0.00  0.00    +0.377 A 
ATOM     16  O   UNL     1      44.645  19.777  18.422  0.00  0.00    -0.639 OA
ATOM     17  C   UNL     1      44.430  22.242  20.301  0.00  0.00    +0.001 A 
ATOM     18  C   UNL     1      44.912  23.145  21.165  0.00  0.00    +0.117 A 
ATOM     19  O   UNL     1      46.219  22.918  21.390  0.00  0.00    -0.200 OA
ATOM     20  C   UNL     1      46.952  19.639  19.026  0.00  0.00    -0.393 A 
ATOM     21  C   UNL     1      50.611  17.622  19.342  0.00  0.00    -0.096 A 
ATOM     22  C   UNL     1      50.783  16.359  18.804  0.00  0.00    +0.163 A 
ATOM     25  C   UNL     1      47.146  18.451  18.173  0.00  0.00    +0.442 A 
ATOM     26  O   UNL     1      46.316  18.102  17.352  0.00  0.00    -0.442 OA
ATOM     27  C   UNL     1      49.770  15.762  18.052  0.00  0.00    +0.024 A 
ENDROOT
BRANCH  22  23
ATOM     23  O   UNL     1      51.947  15.691  19.016  0.00  0.00    -0.300 OA
ATOM     24  C   UNL     1      53.137  16.476  19.113  0.00  0.00    +0.239 C 
ENDBRANCH  22  23
BRANCH  27  28
ATOM     28  O   UNL     1      49.950  14.518  17.531  0.00  0.00    -0.314 OA
ATOM     29  C   UNL     1      50.761  14.418  16.359  0.00  0.00    +0.209 C 
ENDBRANCH  27  28
BRANCH   7   6
ATOM      6  C   UNL     1      47.490  15.800  17.017  0.00  0.00    +0.131 C 
BRANCH   6   5
ATOM      3  C   UNL     1      46.380  13.687  17.532  0.00  0.00    -0.155 C 
ATOM      4  C   UNL     1      47.020  13.114  16.294  0.00  0.00    +0.068 C 
ATOM      5  C   UNL     1      46.656  14.912  17.905  0.00  0.00    +0.001 C 
BRANCH   3   2
ATOM      1  C   UNL     1      45.187  13.516  19.699  0.00  0.00    +0.014 C 
ATOM      2  C   UNL     1      45.424  12.850  18.342  0.00  0.00    +0.047 C 
ENDBRANCH   3   2
ENDBRANCH   6   5
ENDBRANCH   7   6
TORSDOF 5
ENDMDL
MODEL 9
REMARK VINA RESULT:      -5.3      1.883      4.417
REMARK  Name = ZINC95485929
REMARK  9 active torsions:
REMARK  status: ('A' for Active; 'I' for Inactive)
REMARK    1  A    between atoms: C1_1  and  C2_2
REMARK    2  A    between atoms: C2_2  and  C3_3
REMARK    3  A    between atoms: C3_3  and  C23_29
REMARK    4  A    between atoms: C4_4  and  C5_5
REMARK    5  A    between atoms: C5_5  and  C6_6
REMARK    6  A    between atoms: C10_10  and  O2_14
REMARK    7  A    between atoms: C11_11  and  O1_12
REMARK    8  A    between atoms: O1_12  and  C12_13
REMARK    9  A    between atoms: O2_14  and  C13_15
REMARK                            x       y       z     vdW  Elec       q    Type
REMARK                         _______ _______ _______ _____ _____    ______ ____
ROOT
ATOM      7  C   UNL     1      50.040  18.084  19.137  0.00  0.00    +0.030 A 
ATOM      8  C   UNL     1      48.891  18.860  18.974  0.00  0.00    -0.234 A 
ATOM      9  C   UNL     1      48.974  20.260  18.921  0.00  0.00    +0.202 A 
ATOM     10  O   UNL     1      47.872  21.017  18.745  0.00  0.00    -0.235 OA
ATOM     11  C   UNL     1      46.630  20.524  18.932  0.00  0.00    +0.224 A 
ATOM     12  C   UNL     1      45.562  21.395  19.073  0.00  0.00    -0.151 A 
ATOM     13  C   UNL     1      44.274  20.906  19.259  0.00  0.00    +0.138 A 
ATOM     14  C   UNL     1      44.049  19.518  19.303  0.00  0.00    -0.267 A 
ATOM     15  C   UNL     1      45.115  18.628  19.167  0.00  0.00    +0.377 A 
ATOM     16  O   UNL     1      44.902  17.290  19.210  0.00  0.00    -0.639 OA
ATOM     17  C   UNL     1      42.603  19.359  19.504  0.00  0.00    +0.001 A 
ATOM     18  C   UNL     1      42.097  20.597  19.564  0.00  0.00    +0.117 A 
ATOM     19  O   UNL     1      43.078  21.507  19.421  0.00  0.00    -0.200 OA
ATOM     20  C   UNL     1      46.403  19.134  18.986  0.00  0.00    -0.393 A 
ATOM     21  C   UNL     1      50.218  20.867  19.047  0.00  0.00    -0.096 A 
ATOM     22  C   UNL     1      51.355  20.095  19.211  0.00  0.00    +0.163 A 
ATOM     25  C   UNL     1      47.561  18.228  18.855  0.00  0.00    +0.442 A 
ATOM     26  O   UNL     1      47.427  17.033  18.662  0.00  0.00    -0.442 OA
ATOM     27  C   UNL     1      51.268  18.703  19.260  0.00  0.00    +0.024 A 
ENDROOT
BRANCH  22  23
ATOM     23  O   UNL     1      52.565  20.699  19.332  0.00  0.00    -0.300 OA
ATOM     24  C   UNL     1      52.654  21.798  20.240  0.00  0.00    +0.239 C 
ENDBRANCH  22  23
BRANCH  27  28
ATOM     28  O   UNL     1      52.392  17.955  19.425  0.00  0.00    -0.314 OA
ATOM     29  C   UNL     1      52.762  17.627  20.765  0.00  0.00    +0.209 C 
ENDBRANCH  27  28
BRANCH   7   6
ATOM      6  C   UNL     1      49.940  16.581  19.184  0.00  0.00    +0.131 C 
BRANCH   6   5
ATOM      3  C   UNL     1      50.142  14.769  17.560  0.00  0.00    -0.155 C 
ATOM      4  C   UNL     1      49.183  13.977  18.409  0.00  0.00    +0.068 C 
ATOM      5  C   UNL     1      50.437  16.004  17.884  0.00  0.00    +0.001 C 
BRANCH   3   2
ATOM      1  C   UNL     1      49.747  13.207  15.675  0.00  0.00    +0.014 C 
ATOM      2  C   UNL     1      50.761  14.142  16.338  0.00  0.00    +0.047 C 
ENDBRANCH   3   2
ENDBRANCH   6   5
ENDBRANCH   7   6
TORSDOF 5
ENDMDL
