MODEL 1
REMARK VINA RESULT:      -6.7      0.000      0.000
REMARK  Name = ZINC00086470
REMARK  5 active torsions:
REMARK  status: ('A' for Active; 'I' for Inactive)
REMARK    1  A    between atoms: C1_1  and  C2_2
REMARK    2  A    between atoms: C2_2  and  C21_26
REMARK    3  A    between atoms: C8_8  and  O3_23
REMARK    4  A    between atoms: C11_12  and  C14_17
REMARK    5  A    between atoms: O3_23  and  C20_24
REMARK                            x       y       z     vdW  Elec       q    Type
REMARK                         _______ _______ _______ _____ _____    ______ ____
ROOT
ATOM      1  C   UNL     1      42.094  20.053  19.715  0.00  0.00    +0.085 C 
ATOM      2  C   UNL     1      43.541  19.606  19.934  0.00  0.00    +0.148 C 
ATOM      3  C   UNL     1      43.974  19.979  21.354  0.00  0.00    +0.036 C 
ATOM      4  C   UNL     1      44.432  20.308  18.943  0.00  0.00    -0.069 C 
ATOM      5  C   UNL     1      45.561  19.728  18.538  0.00  0.00    +0.071 C 
ATOM      6  C   UNL     1      45.889  18.392  19.077  0.00  0.00    -0.215 A 
ATOM      7  C   UNL     1      44.869  17.650  19.697  0.00  0.00    +0.243 A 
ATOM      8  C   UNL     1      45.133  16.395  20.217  0.00  0.00    -0.133 A 
ATOM      9  C   UNL     1      46.409  15.862  20.131  0.00  0.00    +0.257 A 
ATOM     12  C   UNL     1      47.437  16.596  19.516  0.00  0.00    -0.315 A 
ATOM     13  C   UNL     1      48.796  16.050  19.425  0.00  0.00    +0.405 C 
ATOM     14  O   UNL     1      49.131  15.068  20.055  0.00  0.00    -0.429 OA
ATOM     15  C   UNL     1      49.760  16.775  18.505  0.00  0.00    +0.035 C 
ATOM     16  C   UNL     1      49.515  18.280  18.685  0.00  0.00    +0.235 C 
ATOM     23  O   UNL     1      48.155  18.578  18.371  0.00  0.00    -0.291 OA
ATOM     24  C   UNL     1      47.177  17.871  18.979  0.00  0.00    +0.263 A 
ATOM     25  O   UNL     1      43.627  18.191  19.772  0.00  0.00    -0.297 OA
ENDROOT
BRANCH  16  17
ATOM     17  C   UNL     1      50.426  19.052  17.765  0.00  0.00    -0.093 A 
ATOM     18  C   UNL     1      51.051  18.410  16.713  0.00  0.00    +0.024 A 
ATOM     19  C   UNL     1      51.881  19.119  15.865  0.00  0.00    +0.009 A 
ATOM     20  C   UNL     1      52.091  20.469  16.073  0.00  0.00    +0.015 A 
ATOM     21  C   UNL     1      51.469  21.110  17.128  0.00  0.00    +0.006 A 
ATOM     22  C   UNL     1      50.638  20.402  17.976  0.00  0.00    +0.037 A 
ENDBRANCH  16  17
BRANCH   9  10
ATOM     10  O   UNL     1      46.666  14.632  20.639  0.00  0.00    -0.281 OA
ATOM     11  C   UNL     1      45.608  13.673  20.583  0.00  0.00    +0.252 C 
ENDBRANCH   9  10
TORSDOF 2
ENDMDL
MODEL 2
REMARK VINA RESULT:      -6.5      1.669      6.273
REMARK  Name = ZINC00086470
REMARK  5 active torsions:
REMARK  status: ('A' for Active; 'I' for Inactive)
REMARK    1  A    between atoms: C1_1  and  C2_2
REMARK    2  A    between atoms: C2_2  and  C21_26
REMARK    3  A    between atoms: C8_8  and  O3_23
REMARK    4  A    between atoms: C11_12  and  C14_17
REMARK    5  A    between atoms: O3_23  and  C20_24
REMARK                            x       y       z     vdW  Elec       q    Type
REMARK                         _______ _______ _______ _____ _____    ______ ____
ROOT
ATOM      1  C   UNL     1      53.037  20.612  18.405  0.00  0.00    +0.085 C 
ATOM      2  C   UNL     1      51.634  20.100  18.071  0.00  0.00    +0.148 C 
ATOM      3  C   UNL     1      51.511  19.917  16.557  0.00  0.00    +0.036 C 
ATOM      4  C   UNL     1      50.615  21.107  18.534  0.00  0.00    -0.069 C 
ATOM      5  C   UNL     1      49.393  20.706  18.882  0.00  0.00    +0.071 C 
ATOM      6  C   UNL     1      49.089  19.262  18.810  0.00  0.00    -0.215 A 
ATOM      7  C   UNL     1      50.160  18.355  18.725  0.00  0.00    +0.243 A 
ATOM      8  C   UNL     1      49.920  16.994  18.655  0.00  0.00    -0.133 A 
ATOM      9  C   UNL     1      48.620  16.516  18.666  0.00  0.00    +0.257 A 
ATOM     12  C   UNL     1      47.542  17.413  18.747  0.00  0.00    -0.315 A 
ATOM     13  C   UNL     1      46.159  16.924  18.749  0.00  0.00    +0.405 C 
ATOM     14  O   UNL     1      45.889  15.776  18.465  0.00  0.00    -0.429 OA
ATOM     15  C   UNL     1      45.084  17.927  19.124  0.00  0.00    +0.035 C 
ATOM     16  C   UNL     1      45.457  19.262  18.464  0.00  0.00    +0.235 C 
ATOM     23  O   UNL     1      46.746  19.670  18.920  0.00  0.00    -0.291 OA
ATOM     24  C   UNL     1      47.776  18.799  18.824  0.00  0.00    +0.263 A 
ATOM     25  O   UNL     1      51.426  18.843  18.715  0.00  0.00    -0.297 OA
ENDROOT
BRANCH  16  17
ATOM     17  C   UNL     1      44.438  20.309  18.833  0.00  0.00    -0.093 A 
ATOM     18  C   UNL     1      43.090  20.052  18.663  0.00  0.00    +0.024 A 
ATOM     19  C   UNL     1      42.155  21.010  19.007  0.00  0.00    +0.009 A 
ATOM     20  C   UNL     1      42.568  22.227  19.515  0.00  0.00    +0.015 A 
ATOM     21  C   UNL     1      43.915  22.486  19.680  0.00  0.00    +0.006 A 
ATOM     22  C   UNL     1      44.851  21.528  19.337  0.00  0.00    +0.037 A 
ENDBRANCH  16  17
BRANCH   9  10
ATOM     10  O   UNL     1      48.387  15.182  18.599  0.00  0.00    -0.281 OA
ATOM     11  C   UNL     1      49.042  14.462  17.553  0.00  0.00    +0.252 C 
ENDBRANCH   9  10
TORSDOF 2
ENDMDL
MODEL 3
REMARK VINA RESULT:      -6.3      1.635      1.923
REMARK  Name = ZINC00086470
REMARK  5 active torsions:
REMARK  status: ('A' for Active; 'I' for Inactive)
REMARK    1  A    between atoms: C1_1  and  C2_2
REMARK    2  A    between atoms: C2_2  and  C21_26
REMARK    3  A    between atoms: C8_8  and  O3_23
REMARK    4  A    between atoms: C11_12  and  C14_17
REMARK    5  A    between atoms: O3_23  and  C20_24
REMARK                            x       y       z     vdW  Elec       q    Type
REMARK                         _______ _______ _______ _____ _____    ______ ____
ROOT
ATOM      1  C   UNL     1      43.144  18.035  21.766  0.00  0.00    +0.085 C 
ATOM      2  C   UNL     1      44.541  17.624  21.298  0.00  0.00    +0.148 C 
ATOM      3  C   UNL     1      45.356  17.146  22.503  0.00  0.00    +0.036 C 
ATOM      4  C   UNL     1      45.225  18.812  20.675  0.00  0.00    -0.069 C 
ATOM      5  C   UNL     1      46.145  18.629  19.729  0.00  0.00    +0.071 C 
ATOM      6  C   UNL     1      46.450  17.244  19.314  0.00  0.00    -0.215 A 
ATOM      7  C   UNL     1      45.544  16.226  19.659  0.00  0.00    +0.243 A 
ATOM      8  C   UNL     1      45.792  14.915  19.291  0.00  0.00    -0.133 A 
ATOM      9  C   UNL     1      46.939  14.597  18.581  0.00  0.00    +0.257 A 
ATOM     12  C   UNL     1      47.853  15.606  18.235  0.00  0.00    -0.315 A 
ATOM     13  C   UNL     1      49.076  15.285  17.493  0.00  0.00    +0.405 C 
ATOM     14  O   UNL     1      49.450  14.140  17.345  0.00  0.00    -0.429 OA
ATOM     15  C   UNL     1      49.851  16.457  16.919  0.00  0.00    +0.035 C 
ATOM     16  C   UNL     1      49.826  17.576  17.969  0.00  0.00    +0.235 C 
ATOM     23  O   UNL     1      48.472  17.924  18.256  0.00  0.00    -0.291 OA
ATOM     24  C   UNL     1      47.607  16.944  18.599  0.00  0.00    +0.263 A 
ATOM     25  O   UNL     1      44.428  16.558  20.355  0.00  0.00    -0.297 OA
ENDROOT
BRANCH  16  17
ATOM     17  C   UNL     1      50.554  18.783  17.436  0.00  0.00    -0.093 A 
ATOM     18  C   UNL     1      51.317  18.679  16.288  0.00  0.00    +0.024 A 
ATOM     19  C   UNL     1      51.979  19.788  15.795  0.00  0.00    +0.009 A 
ATOM     20  C   UNL     1      51.885  20.999  16.455  0.00  0.00    +0.015 A 
ATOM     21  C   UNL     1      51.126  21.102  17.606  0.00  0.00    +0.006 A 
ATOM     22  C   UNL     1      50.463  19.993  18.098  0.00  0.00    +0.037 A 
ENDBRANCH  16  17
BRANCH   9  10
ATOM     10  O   UNL     1      47.179  13.313  18.221  0.00  0.00    -0.281 OA
ATOM     11  C   UNL     1      46.079  12.572  17.689  0.00  0.00    +0.252 C 
ENDBRANCH   9  10
TORSDOF 2
ENDMDL
MODEL 4
REMARK VINA RESULT:      -6.2      2.255      6.977
REMARK  Name = ZINC00086470
REMARK  5 active torsions:
REMARK  status: ('A' for Active; 'I' for Inactive)
REMARK    1  A    between atoms: C1_1  and  C2_2
REMARK    2  A    between atoms: C2_2  and  C21_26
REMARK    3  A    between atoms: C8_8  and  O3_23
REMARK    4  A    between atoms: C11_12  and  C14_17
REMARK    5  A    between atoms: O3_23  and  C20_24
REMARK                            x       y       z     vdW  Elec       q    Type
REMARK                         _______ _______ _______ _____ _____    ______ ____
ROOT
ATOM      1  C   UNL     1      48.696  14.376  16.511  0.00  0.00    +0.085 C 
ATOM      2  C   UNL     1      48.174  15.410  17.511  0.00  0.00    +0.148 C 
ATOM      3  C   UNL     1      48.272  14.838  18.926  0.00  0.00    +0.036 C 
ATOM      4  C   UNL     1      46.733  15.719  17.199  0.00  0.00    -0.069 C 
ATOM      5  C   UNL     1      46.228  16.913  17.503  0.00  0.00    +0.071 C 
ATOM      6  C   UNL     1      47.122  17.907  18.132  0.00  0.00    -0.215 A 
ATOM      7  C   UNL     1      48.511  17.696  18.066  0.00  0.00    +0.243 A 
ATOM      8  C   UNL     1      49.384  18.601  18.643  0.00  0.00    -0.133 A 
ATOM      9  C   UNL     1      48.894  19.722  19.293  0.00  0.00    +0.257 A 
ATOM     12  C   UNL     1      47.508  19.940  19.369  0.00  0.00    -0.315 A 
ATOM     13  C   UNL     1      46.973  21.117  20.063  0.00  0.00    +0.405 C 
ATOM     14  O   UNL     1      47.672  21.811  20.772  0.00  0.00    -0.429 OA
ATOM     15  C   UNL     1      45.501  21.420  19.851  0.00  0.00    +0.035 C 
ATOM     16  C   UNL     1      44.754  20.079  19.862  0.00  0.00    +0.235 C 
ATOM     23  O   UNL     1      45.277  19.239  18.833  0.00  0.00    -0.291 OA
ATOM     24  C   UNL     1      46.612  19.029  18.780  0.00  0.00    +0.263 A 
ATOM     25  O   UNL     1      48.970  16.592  17.425  0.00  0.00    -0.297 OA
ENDROOT
BRANCH  16  17
ATOM     17  C   UNL     1      43.286  20.317  19.619  0.00  0.00    -0.093 A 
ATOM     18  C   UNL     1      42.852  21.548  19.164  0.00  0.00    +0.024 A 
ATOM     19  C   UNL     1      41.506  21.766  18.935  0.00  0.00    +0.009 A 
ATOM     20  C   UNL     1      40.594  20.754  19.168  0.00  0.00    +0.015 A 
ATOM     21  C   UNL     1      41.027  19.524  19.627  0.00  0.00    +0.006 A 
ATOM     22  C   UNL     1      42.374  19.307  19.855  0.00  0.00    +0.037 A 
ENDBRANCH  16  17
BRANCH   9  10
ATOM     10  O   UNL     1      49.751  20.608  19.857  0.00  0.00    -0.281 OA
ATOM     11  C   UNL     1      50.870  21.019  19.068  0.00  0.00    +0.252 C 
ENDBRANCH   9  10
TORSDOF 2
ENDMDL
MODEL 5
REMARK VINA RESULT:      -6.1      1.862      2.231
REMARK  Name = ZINC00086470
REMARK  5 active torsions:
REMARK  status: ('A' for Active; 'I' for Inactive)
REMARK    1  A    between atoms: C1_1  and  C2_2
REMARK    2  A    between atoms: C2_2  and  C21_26
REMARK    3  A    between atoms: C8_8  and  O3_23
REMARK    4  A    between atoms: C11_12  and  C14_17
REMARK    5  A    between atoms: O3_23  and  C20_24
REMARK                            x       y       z     vdW  Elec       q    Type
REMARK                         _______ _______ _______ _____ _____    ______ ____
ROOT
ATOM      1  C   UNL     1      42.927  22.671  19.816  0.00  0.00    +0.085 C 
ATOM      2  C   UNL     1      44.296  22.050  20.098  0.00  0.00    +0.148 C 
ATOM      3  C   UNL     1      44.970  22.811  21.242  0.00  0.00    +0.036 C 
ATOM      4  C   UNL     1      45.151  22.152  18.862  0.00  0.00    -0.069 C 
ATOM      5  C   UNL     1      46.105  21.249  18.637  0.00  0.00    +0.071 C 
ATOM      6  C   UNL     1      46.277  20.159  19.620  0.00  0.00    -0.215 A 
ATOM      7  C   UNL     1      45.240  19.913  20.536  0.00  0.00    +0.243 A 
ATOM      8  C   UNL     1      45.359  18.903  21.475  0.00  0.00    -0.133 A 
ATOM      9  C   UNL     1      46.507  18.127  21.518  0.00  0.00    +0.257 A 
ATOM     12  C   UNL     1      47.551  18.367  20.609  0.00  0.00    -0.315 A 
ATOM     13  C   UNL     1      48.777  17.561  20.648  0.00  0.00    +0.405 C 
ATOM     14  O   UNL     1      49.026  16.825  21.580  0.00  0.00    -0.429 OA
ATOM     15  C   UNL     1      49.716  17.696  19.464  0.00  0.00    +0.035 C 
ATOM     16  C   UNL     1      49.750  19.181  19.076  0.00  0.00    +0.235 C 
ATOM     23  O   UNL     1      48.428  19.615  18.757  0.00  0.00    -0.291 OA
ATOM     24  C   UNL     1      47.436  19.388  19.647  0.00  0.00    +0.263 A 
ATOM     25  O   UNL     1      44.125  20.684  20.478  0.00  0.00    -0.297 OA
ENDROOT
BRANCH  16  17
ATOM     17  C   UNL     1      50.644  19.369  17.878  0.00  0.00    -0.093 A 
ATOM     18  C   UNL     1      51.171  20.615  17.597  0.00  0.00    +0.024 A 
ATOM     19  C   UNL     1      51.996  20.787  16.501  0.00  0.00    +0.009 A 
ATOM     20  C   UNL     1      52.289  19.712  15.683  0.00  0.00    +0.015 A 
ATOM     21  C   UNL     1      51.759  18.466  15.961  0.00  0.00    +0.006 A 
ATOM     22  C   UNL     1      50.935  18.295  17.058  0.00  0.00    +0.037 A 
ENDBRANCH  16  17
BRANCH   9  10
ATOM     10  O   UNL     1      46.622  17.137  22.436  0.00  0.00    -0.281 OA
ATOM     11  C   UNL     1      45.581  16.159  22.470  0.00  0.00    +0.252 C 
ENDBRANCH   9  10
TORSDOF 2
ENDMDL
MODEL 6
REMARK VINA RESULT:      -5.9      2.778      5.939
REMARK  Name = ZINC00086470
REMARK  5 active torsions:
REMARK  status: ('A' for Active; 'I' for Inactive)
REMARK    1  A    between atoms: C1_1  and  C2_2
REMARK    2  A    between atoms: C2_2  and  C21_26
REMARK    3  A    between atoms: C8_8  and  O3_23
REMARK    4  A    between atoms: C11_12  and  C14_17
REMARK    5  A    between atoms: O3_23  and  C20_24
REMARK                            x       y       z     vdW  Elec       q    Type
REMARK                         _______ _______ _______ _____ _____    ______ ____
ROOT
ATOM      1  C   UNL     1      47.517  13.327  16.049  0.00  0.00    +0.085 C 
ATOM      2  C   UNL     1      47.921  14.401  17.062  0.00  0.00    +0.148 C 
ATOM      3  C   UNL     1      48.079  13.759  18.442  0.00  0.00    +0.036 C 
ATOM      4  C   UNL     1      46.845  15.453  17.124  0.00  0.00    -0.069 C 
ATOM      5  C   UNL     1      47.159  16.706  17.451  0.00  0.00    +0.071 C 
ATOM      6  C   UNL     1      48.576  17.018  17.731  0.00  0.00    -0.215 A 
ATOM      7  C   UNL     1      49.559  16.104  17.311  0.00  0.00    +0.243 A 
ATOM      8  C   UNL     1      50.898  16.356  17.554  0.00  0.00    -0.133 A 
ATOM      9  C   UNL     1      51.278  17.512  18.216  0.00  0.00    +0.257 A 
ATOM     12  C   UNL     1      50.304  18.430  18.643  0.00  0.00    -0.315 A 
ATOM     13  C   UNL     1      50.690  19.654  19.353  0.00  0.00    +0.405 C 
ATOM     14  O   UNL     1      51.812  19.813  19.787  0.00  0.00    -0.429 OA
ATOM     15  C   UNL     1      49.614  20.712  19.520  0.00  0.00    +0.035 C 
ATOM     16  C   UNL     1      48.304  19.980  19.844  0.00  0.00    +0.235 C 
ATOM     23  O   UNL     1      47.997  19.071  18.787  0.00  0.00    -0.291 OA
ATOM     24  C   UNL     1      48.940  18.186  18.395  0.00  0.00    +0.263 A 
ATOM     25  O   UNL     1      49.165  14.977  16.666  0.00  0.00    -0.297 OA
ENDROOT
BRANCH  16  17
ATOM     17  C   UNL     1      47.188  20.984  19.985  0.00  0.00    -0.093 A 
ATOM     18  C   UNL     1      46.199  21.057  19.023  0.00  0.00    +0.024 A 
ATOM     19  C   UNL     1      45.172  21.974  19.155  0.00  0.00    +0.009 A 
ATOM     20  C   UNL     1      45.139  22.820  20.247  0.00  0.00    +0.015 A 
ATOM     21  C   UNL     1      46.131  22.750  21.207  0.00  0.00    +0.006 A 
ATOM     22  C   UNL     1      47.157  21.833  21.075  0.00  0.00    +0.037 A 
ENDBRANCH  16  17
BRANCH   9  10
ATOM     10  O   UNL     1      52.590  17.758  18.452  0.00  0.00    -0.281 OA
ATOM     11  C   UNL     1      53.332  16.734  19.117  0.00  0.00    +0.252 C 
ENDBRANCH   9  10
TORSDOF 2
ENDMDL
MODEL 7
REMARK VINA RESULT:      -5.8      2.259      6.693
REMARK  Name = ZINC00086470
REMARK  5 active torsions:
REMARK  status: ('A' for Active; 'I' for Inactive)
REMARK    1  A    between atoms: C1_1  and  C2_2
REMARK    2  A    between atoms: C2_2  and  C21_26
REMARK    3  A    between atoms: C8_8  and  O3_23
REMARK    4  A    between atoms: C11_12  and  C14_17
REMARK    5  A    between atoms: O3_23  and  C20_24
REMARK                            x       y       z     vdW  Elec       q    Type
REMARK                         _______ _______ _______ _____ _____    ______ ____
ROOT
ATOM      1  C   UNL     1      52.558  20.384  16.227  0.00  0.00    +0.085 C 
ATOM      2  C   UNL     1      51.710  19.637  17.259  0.00  0.00    +0.148 C 
ATOM      3  C   UNL     1      52.619  19.105  18.369  0.00  0.00    +0.036 C 
ATOM      4  C   UNL     1      51.018  18.480  16.587  0.00  0.00    -0.069 C 
ATOM      5  C   UNL     1      49.852  18.039  17.058  0.00  0.00    +0.071 C 
ATOM      6  C   UNL     1      49.271  18.725  18.230  0.00  0.00    -0.215 A 
ATOM      7  C   UNL     1      49.767  19.994  18.578  0.00  0.00    +0.243 A 
ATOM      8  C   UNL     1      49.252  20.671  19.670  0.00  0.00    -0.133 A 
ATOM      9  C   UNL     1      48.244  20.100  20.430  0.00  0.00    +0.257 A 
ATOM     12  C   UNL     1      47.744  18.831  20.094  0.00  0.00    -0.315 A 
ATOM     13  C   UNL     1      46.683  18.208  20.893  0.00  0.00    +0.405 C 
ATOM     14  O   UNL     1      46.359  18.650  21.976  0.00  0.00    -0.429 OA
ATOM     15  C   UNL     1      46.013  16.984  20.298  0.00  0.00    +0.035 C 
ATOM     16  C   UNL     1      47.112  16.141  19.635  0.00  0.00    +0.235 C 
ATOM     23  O   UNL     1      47.770  16.923  18.639  0.00  0.00    -0.291 OA
ATOM     24  C   UNL     1      48.256  18.137  18.981  0.00  0.00    +0.263 A 
ATOM     25  O   UNL     1      50.755  20.535  17.822  0.00  0.00    -0.297 OA
ENDROOT
BRANCH  16  17
ATOM     17  C   UNL     1      46.495  14.924  18.994  0.00  0.00    -0.093 A 
ATOM     18  C   UNL     1      46.922  14.509  17.747  0.00  0.00    +0.024 A 
ATOM     19  C   UNL     1      46.361  13.389  17.161  0.00  0.00    +0.009 A 
ATOM     20  C   UNL     1      45.369  12.689  17.821  0.00  0.00    +0.015 A 
ATOM     21  C   UNL     1      44.938  13.107  19.066  0.00  0.00    +0.006 A 
ATOM     22  C   UNL     1      45.500  14.226  19.652  0.00  0.00    +0.037 A 
ENDBRANCH  16  17
BRANCH   9  10
ATOM     10  O   UNL     1      47.740  20.765  21.498  0.00  0.00    -0.281 OA
ATOM     11  C   UNL     1      47.091  22.011  21.238  0.00  0.00    +0.252 C 
ENDBRANCH   9  10
TORSDOF 2
ENDMDL
MODEL 8
REMARK VINA RESULT:      -5.8      2.780      6.143
REMARK  Name = ZINC00086470
REMARK  5 active torsions:
REMARK  status: ('A' for Active; 'I' for Inactive)
REMARK    1  A    between atoms: C1_1  and  C2_2
REMARK    2  A    between atoms: C2_2  and  C21_26
REMARK    3  A    between atoms: C8_8  and  O3_23
REMARK    4  A    between atoms: C11_12  and  C14_17
REMARK    5  A    between atoms: O3_23  and  C20_24
REMARK                            x       y       z     vdW  Elec       q    Type
REMARK                         _______ _______ _______ _____ _____    ______ ____
ROOT
ATOM      1  C   UNL     1      52.931  21.514  19.516  0.00  0.00    +0.085 C 
ATOM      2  C   UNL     1      51.816  20.467  19.568  0.00  0.00    +0.148 C 
ATOM      3  C   UNL     1      51.708  19.916  20.991  0.00  0.00    +0.036 C 
ATOM      4  C   UNL     1      52.148  19.342  18.624  0.00  0.00    -0.069 C 
ATOM      5  C   UNL     1      51.169  18.634  18.062  0.00  0.00    +0.071 C 
ATOM      6  C   UNL     1      49.774  18.999  18.385  0.00  0.00    -0.215 A 
ATOM      7  C   UNL     1      49.527  20.254  18.967  0.00  0.00    +0.243 A 
ATOM      8  C   UNL     1      48.236  20.636  19.287  0.00  0.00    -0.133 A 
ATOM      9  C   UNL     1      47.176  19.779  19.037  0.00  0.00    +0.257 A 
ATOM     12  C   UNL     1      47.412  18.520  18.459  0.00  0.00    -0.315 A 
ATOM     13  C   UNL     1      46.302  17.597  18.197  0.00  0.00    +0.405 C 
ATOM     14  O   UNL     1      45.195  17.784  18.659  0.00  0.00    -0.429 OA
ATOM     15  C   UNL     1      46.608  16.397  17.321  0.00  0.00    +0.035 C 
ATOM     16  C   UNL     1      47.997  15.881  17.725  0.00  0.00    +0.235 C 
ATOM     23  O   UNL     1      48.957  16.924  17.553  0.00  0.00    -0.291 OA
ATOM     24  C   UNL     1      48.721  18.125  18.125  0.00  0.00    +0.263 A 
ATOM     25  O   UNL     1      50.578  21.079  19.205  0.00  0.00    -0.297 OA
ENDROOT
BRANCH  16  17
ATOM     17  C   UNL     1      48.369  14.705  16.859  0.00  0.00    -0.093 A 
ATOM     18  C   UNL     1      47.382  13.969  16.232  0.00  0.00    +0.024 A 
ATOM     19  C   UNL     1      47.724  12.894  15.433  0.00  0.00    +0.009 A 
ATOM     20  C   UNL     1      49.053  12.553  15.266  0.00  0.00    +0.015 A 
ATOM     21  C   UNL     1      50.040  13.286  15.896  0.00  0.00    +0.006 A 
ATOM     22  C   UNL     1      49.698  14.362  16.695  0.00  0.00    +0.037 A 
ENDBRANCH  16  17
BRANCH   9  10
ATOM     10  O   UNL     1      45.912  20.154  19.349  0.00  0.00    -0.281 OA
ATOM     11  C   UNL     1      45.521  21.481  18.988  0.00  0.00    +0.252 C 
ENDBRANCH   9  10
TORSDOF 2
ENDMDL
MODEL 9
REMARK VINA RESULT:      -5.7      3.954      5.047
REMARK  Name = ZINC00086470
REMARK  5 active torsions:
REMARK  status: ('A' for Active; 'I' for Inactive)
REMARK    1  A    between atoms: C1_1  and  C2_2
REMARK    2  A    between atoms: C2_2  and  C21_26
REMARK    3  A    between atoms: C8_8  and  O3_23
REMARK    4  A    between atoms: C11_12  and  C14_17
REMARK    5  A    between atoms: O3_23  and  C20_24
REMARK                            x       y       z     vdW  Elec       q    Type
REMARK                         _______ _______ _______ _____ _____    ______ ____
ROOT
ATOM      1  C   UNL     1      45.423  12.487  17.239  0.00  0.00    +0.085 C 
ATOM      2  C   UNL     1      46.548  13.315  17.864  0.00  0.00    +0.148 C 
ATOM      3  C   UNL     1      46.188  13.641  19.315  0.00  0.00    +0.036 C 
ATOM      4  C   UNL     1      46.707  14.598  17.091  0.00  0.00    -0.069 C 
ATOM      5  C   UNL     1      47.894  15.202  17.041  0.00  0.00    +0.071 C 
ATOM      6  C   UNL     1      49.027  14.568  17.747  0.00  0.00    -0.215 A 
ATOM      7  C   UNL     1      48.907  13.221  18.132  0.00  0.00    +0.243 A 
ATOM      8  C   UNL     1      49.944  12.588  18.796  0.00  0.00    -0.133 A 
ATOM      9  C   UNL     1      51.107  13.282  19.089  0.00  0.00    +0.257 A 
ATOM     12  C   UNL     1      51.236  14.629  18.712  0.00  0.00    -0.315 A 
ATOM     13  C   UNL     1      52.457  15.380  19.023  0.00  0.00    +0.405 C 
ATOM     14  O   UNL     1      53.292  14.949  19.791  0.00  0.00    -0.429 OA
ATOM     15  C   UNL     1      52.623  16.723  18.336  0.00  0.00    +0.035 C 
ATOM     16  C   UNL     1      51.247  17.404  18.331  0.00  0.00    +0.235 C 
ATOM     23  O   UNL     1      50.310  16.571  17.648  0.00  0.00    -0.291 OA
ATOM     24  C   UNL     1      50.190  15.280  18.031  0.00  0.00    +0.263 A 
ATOM     25  O   UNL     1      47.759  12.560  17.837  0.00  0.00    -0.297 OA
ENDROOT
BRANCH  16  17
ATOM     17  C   UNL     1      51.345  18.733  17.626  0.00  0.00    -0.093 A 
ATOM     18  C   UNL     1      50.970  19.891  18.280  0.00  0.00    +0.024 A 
ATOM     19  C   UNL     1      51.066  21.110  17.635  0.00  0.00    +0.009 A 
ATOM     20  C   UNL     1      51.530  21.170  16.335  0.00  0.00    +0.015 A 
ATOM     21  C   UNL     1      51.901  20.011  15.679  0.00  0.00    +0.006 A 
ATOM     22  C   UNL     1      51.806  18.791  16.324  0.00  0.00    +0.037 A 
ENDBRANCH  16  17
BRANCH   9  10
ATOM     10  O   UNL     1      52.122  12.660  19.738  0.00  0.00    -0.281 OA
ATOM     11  C   UNL     1      52.683  11.506  19.109  0.00  0.00    +0.252 C 
ENDBRANCH   9  10
TORSDOF 2
ENDMDL
