MODEL 1
REMARK VINA RESULT:      -5.9      0.000      0.000
REMARK  Name = ZINC95486149
REMARK  11 active torsions:
REMARK  status: ('A' for Active; 'I' for Inactive)
REMARK    1  A    between atoms: C1_1  and  C2_2
REMARK    2  A    between atoms: C6_6  and  O1_8
REMARK    3  A    between atoms: O1_8  and  C8_9
REMARK    4  A    between atoms: C9_10  and  O4_31
REMARK    5  A    between atoms: C11_12  and  C24_30
REMARK    6  A    between atoms: C12_13  and  C13_14
REMARK    7  A    between atoms: C14_15  and  O3_29
REMARK    8  A    between atoms: C16_17  and  O2_28
REMARK    9  A    between atoms: C20_21  and  C23_27
REMARK   10  A    between atoms: C21_24  and  C22_26
REMARK   11  A    between atoms: O4_31  and  C25_32
REMARK                            x       y       z     vdW  Elec       q    Type
REMARK                         _______ _______ _______ _____ _____    ______ ____
ROOT
ATOM     16  C   UNL     1      47.877  20.344  20.906  0.00  0.00    -0.039 A 
ATOM     17  C   UNL     1      48.433  21.250  21.815  0.00  0.00    +0.169 A 
ATOM     20  C   UNL     1      47.770  22.431  22.095  0.00  0.00    -0.018 A 
ATOM     21  C   UNL     1      46.562  22.711  21.477  0.00  0.00    +0.157 A 
ATOM     24  C   UNL     1      46.005  21.811  20.572  0.00  0.00    -0.165 A 
ATOM     25  C   UNL     1      44.686  22.160  19.932  0.00  0.00    +0.239 C 
ATOM     26  C   UNL     1      44.684  23.645  19.561  0.00  0.00    +0.092 C 
ATOM     27  N   UNL     1      44.483  21.370  18.709  0.00  0.00    -0.504 N 
ATOM     28  H   UNL     1      43.557  21.543  18.348  0.00  0.00    +0.432 HD
ATOM     29  H   UNL     1      45.171  21.622  18.016  0.00  0.00    +0.429 HD
ATOM     30  C   UNL     1      44.621  19.943  19.044  0.00  0.00    +0.178 C 
ATOM     31  C   UNL     1      43.811  19.626  20.302  0.00  0.00    +0.088 C 
ATOM     32  C   UNL     1      46.099  19.643  19.295  0.00  0.00    +0.132 C 
ATOM     33  C   UNL     1      46.662  20.637  20.280  0.00  0.00    -0.043 A 
ENDROOT
BRANCH  16  15
ATOM      1  C   UNL     1      51.149  21.342  17.048  0.00  0.00    +0.094 C 
ATOM      2  C   UNL     1      50.813  20.107  17.844  0.00  0.00    -0.007 A 
ATOM      3  C   UNL     1      49.873  20.177  18.827  0.00  0.00    -0.066 A 
ATOM      4  C   UNL     1      49.553  19.033  19.573  0.00  0.00    +0.052 A 
ATOM      5  C   UNL     1      50.214  17.812  19.296  0.00  0.00    -0.111 A 
ATOM      6  C   UNL     1      49.893  16.662  20.045  0.00  0.00    +0.195 A 
ATOM      9  C   UNL     1      48.941  16.734  21.038  0.00  0.00    -0.114 A 
ATOM     10  C   UNL     1      48.288  17.929  21.315  0.00  0.00    +0.015 A 
ATOM     11  C   UNL     1      47.251  17.976  22.408  0.00  0.00    +0.096 C 
ATOM     12  C   UNL     1      51.183  17.768  18.275  0.00  0.00    +0.186 A 
ATOM     15  C   UNL     1      48.580  19.078  20.600  0.00  0.00    -0.126 A 
ATOM     34  C   UNL     1      51.465  18.911  17.559  0.00  0.00    -0.114 A 
BRANCH   6   7
ATOM      7  O   UNL     1      50.521  15.486  19.789  0.00  0.00    -0.287 OA
ATOM      8  C   UNL     1      49.698  14.325  19.667  0.00  0.00    +0.247 C 
ENDBRANCH   6   7
BRANCH  12  13
ATOM     13  O   UNL     1      51.829  16.608  17.993  0.00  0.00    -0.288 OA
ATOM     14  C   UNL     1      51.705  16.102  16.662  0.00  0.00    +0.247 C 
ENDBRANCH  12  13
ENDBRANCH  16  15
BRANCH  17  18
ATOM     18  O   UNL     1      49.617  20.970  22.420  0.00  0.00    -0.482 OA
ATOM     19  H   UNL     1      50.168  20.340  21.934  0.00  0.00    +0.403 HD
ENDBRANCH  17  18
BRANCH  21  22
ATOM     22  O   UNL     1      45.915  23.872  21.757  0.00  0.00    -0.490 OA
ATOM     23  H   UNL     1      44.961  23.838  21.604  0.00  0.00    +0.401 HD
ENDBRANCH  21  22
TORSDOF 5
ENDMDL
MODEL 2
REMARK VINA RESULT:      -5.7      3.327      6.396
REMARK  Name = ZINC95486149
REMARK  11 active torsions:
REMARK  status: ('A' for Active; 'I' for Inactive)
REMARK    1  A    between atoms: C1_1  and  C2_2
REMARK    2  A    between atoms: C6_6  and  O1_8
REMARK    3  A    between atoms: O1_8  and  C8_9
REMARK    4  A    between atoms: C9_10  and  O4_31
REMARK    5  A    between atoms: C11_12  and  C24_30
REMARK    6  A    between atoms: C12_13  and  C13_14
REMARK    7  A    between atoms: C14_15  and  O3_29
REMARK    8  A    between atoms: C16_17  and  O2_28
REMARK    9  A    between atoms: C20_21  and  C23_27
REMARK   10  A    between atoms: C21_24  and  C22_26
REMARK   11  A    between atoms: O4_31  and  C25_32
REMARK                            x       y       z     vdW  Elec       q    Type
REMARK                         _______ _______ _______ _____ _____    ______ ____
ROOT
ATOM     16  C   UNL     1      48.095  17.025  18.211  0.00  0.00    -0.039 A 
ATOM     17  C   UNL     1      47.017  17.266  17.353  0.00  0.00    +0.169 A 
ATOM     20  C   UNL     1      46.589  16.268  16.496  0.00  0.00    -0.018 A 
ATOM     21  C   UNL     1      47.226  15.038  16.493  0.00  0.00    +0.157 A 
ATOM     24  C   UNL     1      48.299  14.794  17.347  0.00  0.00    -0.165 A 
ATOM     25  C   UNL     1      48.953  13.437  17.307  0.00  0.00    +0.239 C 
ATOM     26  C   UNL     1      49.076  12.979  15.853  0.00  0.00    +0.092 C 
ATOM     27  N   UNL     1      50.299  13.498  17.897  0.00  0.00    -0.504 N 
ATOM     28  H   UNL     1      50.683  12.567  17.952  0.00  0.00    +0.432 HD
ATOM     29  H   UNL     1      50.897  14.080  17.331  0.00  0.00    +0.429 HD
ATOM     30  C   UNL     1      50.193  14.068  19.250  0.00  0.00    +0.178 C 
ATOM     31  C   UNL     1      49.056  13.386  20.012  0.00  0.00    +0.088 C 
ATOM     32  C   UNL     1      49.904  15.564  19.126  0.00  0.00    +0.132 C 
ATOM     33  C   UNL     1      48.738  15.784  18.197  0.00  0.00    -0.043 A 
ENDROOT
BRANCH  16  15
ATOM      1  C   UNL     1      51.878  19.553  15.787  0.00  0.00    +0.094 C 
ATOM      2  C   UNL     1      51.223  19.692  17.138  0.00  0.00    -0.007 A 
ATOM      3  C   UNL     1      50.219  18.840  17.488  0.00  0.00    -0.066 A 
ATOM      4  C   UNL     1      49.604  18.960  18.743  0.00  0.00    +0.052 A 
ATOM      5  C   UNL     1      50.034  19.970  19.636  0.00  0.00    -0.111 A 
ATOM      6  C   UNL     1      49.417  20.090  20.898  0.00  0.00    +0.195 A 
ATOM      9  C   UNL     1      48.402  19.228  21.250  0.00  0.00    -0.114 A 
ATOM     10  C   UNL     1      47.975  18.234  20.377  0.00  0.00    +0.015 A 
ATOM     11  C   UNL     1      46.864  17.305  20.792  0.00  0.00    +0.096 C 
ATOM     12  C   UNL     1      51.074  20.838  19.249  0.00  0.00    +0.186 A 
ATOM     15  C   UNL     1      48.559  18.088  19.131  0.00  0.00    -0.126 A 
ATOM     34  C   UNL     1      51.658  20.684  18.011  0.00  0.00    -0.114 A 
BRANCH   6   7
ATOM      7  O   UNL     1      49.820  21.055  21.763  0.00  0.00    -0.287 OA
ATOM      8  C   UNL     1      48.802  21.728  22.505  0.00  0.00    +0.247 C 
ENDBRANCH   6   7
BRANCH  12  13
ATOM     13  O   UNL     1      51.501  21.813  20.091  0.00  0.00    -0.288 OA
ATOM     14  C   UNL     1      52.912  21.925  20.293  0.00  0.00    +0.247 C 
ENDBRANCH  12  13
ENDBRANCH  16  15
BRANCH  17  18
ATOM     18  O   UNL     1      46.395  18.474  17.361  0.00  0.00    -0.482 OA
ATOM     19  H   UNL     1      46.304  18.876  16.486  0.00  0.00    +0.403 HD
ENDBRANCH  17  18
BRANCH  21  22
ATOM     22  O   UNL     1      46.801  14.061  15.650  0.00  0.00    -0.490 OA
ATOM     23  H   UNL     1      46.499  13.259  16.097  0.00  0.00    +0.401 HD
ENDBRANCH  21  22
TORSDOF 5
ENDMDL
MODEL 3
REMARK VINA RESULT:      -5.6      3.011      6.468
REMARK  Name = ZINC95486149
REMARK  11 active torsions:
REMARK  status: ('A' for Active; 'I' for Inactive)
REMARK    1  A    between atoms: C1_1  and  C2_2
REMARK    2  A    between atoms: C6_6  and  O1_8
REMARK    3  A    between atoms: O1_8  and  C8_9
REMARK    4  A    between atoms: C9_10  and  O4_31
REMARK    5  A    between atoms: C11_12  and  C24_30
REMARK    6  A    between atoms: C12_13  and  C13_14
REMARK    7  A    between atoms: C14_15  and  O3_29
REMARK    8  A    between atoms: C16_17  and  O2_28
REMARK    9  A    between atoms: C20_21  and  C23_27
REMARK   10  A    between atoms: C21_24  and  C22_26
REMARK   11  A    between atoms: O4_31  and  C25_32
REMARK                            x       y       z     vdW  Elec       q    Type
REMARK                         _______ _______ _______ _____ _____    ______ ____
ROOT
ATOM     16  C   UNL     1      48.928  17.644  18.566  0.00  0.00    -0.039 A 
ATOM     17  C   UNL     1      49.021  17.448  17.185  0.00  0.00    +0.169 A 
ATOM     20  C   UNL     1      50.138  17.898  16.504  0.00  0.00    -0.018 A 
ATOM     21  C   UNL     1      51.156  18.538  17.192  0.00  0.00    +0.157 A 
ATOM     24  C   UNL     1      51.068  18.734  18.568  0.00  0.00    -0.165 A 
ATOM     25  C   UNL     1      52.206  19.430  19.269  0.00  0.00    +0.239 C 
ATOM     26  C   UNL     1      52.688  20.598  18.408  0.00  0.00    +0.092 C 
ATOM     27  N   UNL     1      51.765  19.954  20.569  0.00  0.00    -0.504 N 
ATOM     28  H   UNL     1      52.558  20.329  21.066  0.00  0.00    +0.432 HD
ATOM     29  H   UNL     1      51.075  20.678  20.434  0.00  0.00    +0.429 HD
ATOM     30  C   UNL     1      51.175  18.851  21.345  0.00  0.00    +0.178 C 
ATOM     31  C   UNL     1      52.092  17.628  21.286  0.00  0.00    +0.088 C 
ATOM     32  C   UNL     1      49.815  18.502  20.739  0.00  0.00    +0.132 C 
ATOM     33  C   UNL     1      49.956  18.297  19.252  0.00  0.00    -0.043 A 
ENDROOT
BRANCH  16  15
ATOM      1  C   UNL     1      45.605  21.582  18.754  0.00  0.00    +0.094 C 
ATOM      2  C   UNL     1      45.580  20.165  19.267  0.00  0.00    -0.007 A 
ATOM      3  C   UNL     1      46.650  19.352  19.045  0.00  0.00    -0.066 A 
ATOM      4  C   UNL     1      46.636  18.031  19.519  0.00  0.00    +0.052 A 
ATOM      5  C   UNL     1      45.506  17.555  20.224  0.00  0.00    -0.111 A 
ATOM      6  C   UNL     1      45.492  16.229  20.701  0.00  0.00    +0.195 A 
ATOM      9  C   UNL     1      46.576  15.408  20.476  0.00  0.00    -0.114 A 
ATOM     10  C   UNL     1      47.689  15.869  19.784  0.00  0.00    +0.015 A 
ATOM     11  C   UNL     1      48.859  14.947  19.556  0.00  0.00    +0.096 C 
ATOM     12  C   UNL     1      44.412  18.417  20.439  0.00  0.00    +0.186 A 
ATOM     15  C   UNL     1      47.736  17.166  19.302  0.00  0.00    -0.126 A 
ATOM     34  C   UNL     1      44.466  19.709  19.964  0.00  0.00    -0.114 A 
BRANCH   6   7
ATOM      7  O   UNL     1      44.413  15.760  21.378  0.00  0.00    -0.287 OA
ATOM      8  C   UNL     1      44.669  14.921  22.505  0.00  0.00    +0.247 C 
ENDBRANCH   6   7
BRANCH  12  13
ATOM     13  O   UNL     1      43.318  17.980  21.113  0.00  0.00    -0.288 OA
ATOM     14  C   UNL     1      42.237  18.902  21.264  0.00  0.00    +0.247 C 
ENDBRANCH  12  13
ENDBRANCH  16  15
BRANCH  17  18
ATOM     18  O   UNL     1      48.020  16.819  16.515  0.00  0.00    -0.482 OA
ATOM     19  H   UNL     1      47.257  16.595  17.067  0.00  0.00    +0.403 HD
ENDBRANCH  17  18
BRANCH  21  22
ATOM     22  O   UNL     1      52.252  18.977  16.519  0.00  0.00    -0.490 OA
ATOM     23  H   UNL     1      52.052  19.390  15.668  0.00  0.00    +0.401 HD
ENDBRANCH  21  22
TORSDOF 5
ENDMDL
MODEL 4
REMARK VINA RESULT:      -5.4      0.932      3.162
REMARK  Name = ZINC95486149
REMARK  11 active torsions:
REMARK  status: ('A' for Active; 'I' for Inactive)
REMARK    1  A    between atoms: C1_1  and  C2_2
REMARK    2  A    between atoms: C6_6  and  O1_8
REMARK    3  A    between atoms: O1_8  and  C8_9
REMARK    4  A    between atoms: C9_10  and  O4_31
REMARK    5  A    between atoms: C11_12  and  C24_30
REMARK    6  A    between atoms: C12_13  and  C13_14
REMARK    7  A    between atoms: C14_15  and  O3_29
REMARK    8  A    between atoms: C16_17  and  O2_28
REMARK    9  A    between atoms: C20_21  and  C23_27
REMARK   10  A    between atoms: C21_24  and  C22_26
REMARK   11  A    between atoms: O4_31  and  C25_32
REMARK                            x       y       z     vdW  Elec       q    Type
REMARK                         _______ _______ _______ _____ _____    ______ ____
ROOT
ATOM     16  C   UNL     1      48.057  20.241  20.376  0.00  0.00    -0.039 A 
ATOM     17  C   UNL     1      48.570  20.969  21.454  0.00  0.00    +0.169 A 
ATOM     20  C   UNL     1      47.785  21.931  22.064  0.00  0.00    -0.018 A 
ATOM     21  C   UNL     1      46.499  22.167  21.607  0.00  0.00    +0.157 A 
ATOM     24  C   UNL     1      45.984  21.443  20.535  0.00  0.00    -0.165 A 
ATOM     25  C   UNL     1      44.577  21.736  20.081  0.00  0.00    +0.239 C 
ATOM     26  C   UNL     1      44.344  23.247  20.104  0.00  0.00    +0.092 C 
ATOM     27  N   UNL     1      44.368  21.248  18.710  0.00  0.00    -0.504 N 
ATOM     28  H   UNL     1      43.398  21.362  18.458  0.00  0.00    +0.432 HD
ATOM     29  H   UNL     1      44.949  21.763  18.067  0.00  0.00    +0.429 HD
ATOM     30  C   UNL     1      44.724  19.820  18.660  0.00  0.00    +0.178 C 
ATOM     31  C   UNL     1      44.083  19.085  19.838  0.00  0.00    +0.088 C 
ATOM     32  C   UNL     1      46.246  19.695  18.743  0.00  0.00    +0.132 C 
ATOM     33  C   UNL     1      46.760  20.491  19.915  0.00  0.00    -0.043 A 
ENDROOT
BRANCH  16  15
ATOM      1  C   UNL     1      46.770  15.713  22.478  0.00  0.00    +0.094 C 
ATOM      2  C   UNL     1      47.751  16.132  21.413  0.00  0.00    -0.007 A 
ATOM      3  C   UNL     1      47.854  17.448  21.076  0.00  0.00    -0.066 A 
ATOM      4  C   UNL     1      48.763  17.849  20.086  0.00  0.00    +0.052 A 
ATOM      5  C   UNL     1      49.569  16.878  19.445  0.00  0.00    -0.111 A 
ATOM      6  C   UNL     1      50.484  17.280  18.451  0.00  0.00    +0.195 A 
ATOM      9  C   UNL     1      50.587  18.612  18.112  0.00  0.00    -0.114 A 
ATOM     10  C   UNL     1      49.799  19.570  18.738  0.00  0.00    +0.015 A 
ATOM     11  C   UNL     1      49.935  21.019  18.345  0.00  0.00    +0.096 C 
ATOM     12  C   UNL     1      49.442  15.524  19.812  0.00  0.00    +0.186 A 
ATOM     15  C   UNL     1      48.890  19.210  19.717  0.00  0.00    -0.126 A 
ATOM     34  C   UNL     1      48.542  15.170  20.793  0.00  0.00    -0.114 A 
BRANCH   6   7
ATOM      7  O   UNL     1      51.262  16.358  17.829  0.00  0.00    -0.287 OA
ATOM      8  C   UNL     1      51.764  16.699  16.536  0.00  0.00    +0.247 C 
ENDBRANCH   6   7
BRANCH  12  13
ATOM     13  O   UNL     1      50.205  14.577  19.209  0.00  0.00    -0.288 OA
ATOM     14  C   UNL     1      49.555  13.360  18.835  0.00  0.00    +0.247 C 
ENDBRANCH  12  13
ENDBRANCH  16  15
BRANCH  17  18
ATOM     18  O   UNL     1      49.831  20.732  21.899  0.00  0.00    -0.482 OA
ATOM     19  H   UNL     1      50.379  20.228  21.281  0.00  0.00    +0.403 HD
ENDBRANCH  17  18
BRANCH  21  22
ATOM     22  O   UNL     1      45.732  23.113  22.211  0.00  0.00    -0.490 OA
ATOM     23  H   UNL     1      44.785  23.017  22.045  0.00  0.00    +0.401 HD
ENDBRANCH  21  22
TORSDOF 5
ENDMDL
MODEL 5
REMARK VINA RESULT:      -5.4      2.439      3.956
REMARK  Name = ZINC95486149
REMARK  11 active torsions:
REMARK  status: ('A' for Active; 'I' for Inactive)
REMARK    1  A    between atoms: C1_1  and  C2_2
REMARK    2  A    between atoms: C6_6  and  O1_8
REMARK    3  A    between atoms: O1_8  and  C8_9
REMARK    4  A    between atoms: C9_10  and  O4_31
REMARK    5  A    between atoms: C11_12  and  C24_30
REMARK    6  A    between atoms: C12_13  and  C13_14
REMARK    7  A    between atoms: C14_15  and  O3_29
REMARK    8  A    between atoms: C16_17  and  O2_28
REMARK    9  A    between atoms: C20_21  and  C23_27
REMARK   10  A    between atoms: C21_24  and  C22_26
REMARK   11  A    between atoms: O4_31  and  C25_32
REMARK                            x       y       z     vdW  Elec       q    Type
REMARK                         _______ _______ _______ _____ _____    ______ ____
ROOT
ATOM     16  C   UNL     1      46.691  18.615  21.090  0.00  0.00    -0.039 A 
ATOM     17  C   UNL     1      46.762  17.448  21.857  0.00  0.00    +0.169 A 
ATOM     20  C   UNL     1      45.598  16.856  22.311  0.00  0.00    -0.018 A 
ATOM     21  C   UNL     1      44.370  17.419  22.004  0.00  0.00    +0.157 A 
ATOM     24  C   UNL     1      44.294  18.581  21.240  0.00  0.00    -0.165 A 
ATOM     25  C   UNL     1      42.934  19.150  20.930  0.00  0.00    +0.239 C 
ATOM     26  C   UNL     1      42.051  19.053  22.176  0.00  0.00    +0.092 C 
ATOM     27  N   UNL     1      43.044  20.563  20.540  0.00  0.00    -0.504 N 
ATOM     28  H   UNL     1      42.141  20.900  20.243  0.00  0.00    +0.432 HD
ATOM     29  H   UNL     1      43.372  21.112  21.320  0.00  0.00    +0.429 HD
ATOM     30  C   UNL     1      44.000  20.669  19.426  0.00  0.00    +0.178 C 
ATOM     31  C   UNL     1      43.685  19.609  18.370  0.00  0.00    +0.088 C 
ATOM     32  C   UNL     1      45.411  20.448  19.973  0.00  0.00    +0.132 C 
ATOM     33  C   UNL     1      45.449  19.183  20.791  0.00  0.00    -0.043 A 
ENDROOT
BRANCH  16  15
ATOM      1  C   UNL     1      48.144  16.025  16.875  0.00  0.00    +0.094 C 
ATOM      2  C   UNL     1      48.706  17.206  17.625  0.00  0.00    -0.007 A 
ATOM      3  C   UNL     1      48.064  17.663  18.737  0.00  0.00    -0.066 A 
ATOM      4  C   UNL     1      48.580  18.760  19.441  0.00  0.00    +0.052 A 
ATOM      5  C   UNL     1      49.766  19.385  18.989  0.00  0.00    -0.111 A 
ATOM      6  C   UNL     1      50.285  20.488  19.698  0.00  0.00    +0.195 A 
ATOM      9  C   UNL     1      49.635  20.947  20.822  0.00  0.00    -0.114 A 
ATOM     10  C   UNL     1      48.470  20.339  21.272  0.00  0.00    +0.015 A 
ATOM     11  C   UNL     1      47.783  20.865  22.505  0.00  0.00    +0.096 C 
ATOM     12  C   UNL     1      50.409  18.893  17.836  0.00  0.00    +0.186 A 
ATOM     15  C   UNL     1      47.932  19.254  20.600  0.00  0.00    -0.126 A 
ATOM     34  C   UNL     1      49.876  17.809  17.174  0.00  0.00    -0.114 A 
BRANCH   6   7
ATOM      7  O   UNL     1      51.422  21.096  19.273  0.00  0.00    -0.287 OA
ATOM      8  C   UNL     1      52.532  21.096  20.171  0.00  0.00    +0.247 C 
ENDBRANCH   6   7
BRANCH  12  13
ATOM     13  O   UNL     1      51.548  19.478  17.385  0.00  0.00    -0.288 OA
ATOM     14  C   UNL     1      51.832  19.357  15.989  0.00  0.00    +0.247 C 
ENDBRANCH  12  13
ENDBRANCH  16  15
BRANCH  17  18
ATOM     18  O   UNL     1      47.969  16.899  22.153  0.00  0.00    -0.482 OA
ATOM     19  H   UNL     1      48.211  16.152  21.588  0.00  0.00    +0.403 HD
ENDBRANCH  17  18
BRANCH  21  22
ATOM     22  O   UNL     1      43.229  16.833  22.453  0.00  0.00    -0.490 OA
ATOM     23  H   UNL     1      42.751  16.335  21.777  0.00  0.00    +0.401 HD
ENDBRANCH  21  22
TORSDOF 5
ENDMDL
MODEL 6
REMARK VINA RESULT:      -5.4      2.506      4.267
REMARK  Name = ZINC95486149
REMARK  11 active torsions:
REMARK  status: ('A' for Active; 'I' for Inactive)
REMARK    1  A    between atoms: C1_1  and  C2_2
REMARK    2  A    between atoms: C6_6  and  O1_8
REMARK    3  A    between atoms: O1_8  and  C8_9
REMARK    4  A    between atoms: C9_10  and  O4_31
REMARK    5  A    between atoms: C11_12  and  C24_30
REMARK    6  A    between atoms: C12_13  and  C13_14
REMARK    7  A    between atoms: C14_15  and  O3_29
REMARK    8  A    between atoms: C16_17  and  O2_28
REMARK    9  A    between atoms: C20_21  and  C23_27
REMARK   10  A    between atoms: C21_24  and  C22_26
REMARK   11  A    between atoms: O4_31  and  C25_32
REMARK                            x       y       z     vdW  Elec       q    Type
REMARK                         _______ _______ _______ _____ _____    ______ ____
ROOT
ATOM     16  C   UNL     1      47.134  19.163  20.474  0.00  0.00    -0.039 A 
ATOM     17  C   UNL     1      47.962  19.517  21.543  0.00  0.00    +0.169 A 
ATOM     20  C   UNL     1      47.736  20.703  22.220  0.00  0.00    -0.018 A 
ATOM     21  C   UNL     1      46.692  21.530  21.836  0.00  0.00    +0.157 A 
ATOM     24  C   UNL     1      45.865  21.180  20.772  0.00  0.00    -0.165 A 
ATOM     25  C   UNL     1      44.741  22.112  20.400  0.00  0.00    +0.239 C 
ATOM     26  C   UNL     1      45.239  23.556  20.476  0.00  0.00    +0.092 C 
ATOM     27  N   UNL     1      44.284  21.843  19.029  0.00  0.00    -0.504 N 
ATOM     28  H   UNL     1      43.471  22.406  18.831  0.00  0.00    +0.432 HD
ATOM     29  H   UNL     1      45.017  22.061  18.371  0.00  0.00    +0.429 HD
ATOM     30  C   UNL     1      43.933  20.418  18.922  0.00  0.00    +0.178 C 
ATOM     31  C   UNL     1      43.063  20.007  20.111  0.00  0.00    +0.088 C 
ATOM     32  C   UNL     1      45.224  19.598  18.922  0.00  0.00    +0.132 C 
ATOM     33  C   UNL     1      46.088  20.006  20.088  0.00  0.00    -0.043 A 
ENDROOT
BRANCH  16  15
ATOM      1  C   UNL     1      43.937  15.659  22.495  0.00  0.00    +0.094 C 
ATOM      2  C   UNL     1      44.970  15.625  21.398  0.00  0.00    -0.007 A 
ATOM      3  C   UNL     1      45.667  16.756  21.097  0.00  0.00    -0.066 A 
ATOM      4  C   UNL     1      46.631  16.734  20.079  0.00  0.00    +0.052 A 
ATOM      5  C   UNL     1      46.871  15.533  19.371  0.00  0.00    -0.111 A 
ATOM      6  C   UNL     1      47.840  15.510  18.347  0.00  0.00    +0.195 A 
ATOM      9  C   UNL     1      48.544  16.655  18.045  0.00  0.00    -0.114 A 
ATOM     10  C   UNL     1      48.314  17.838  18.736  0.00  0.00    +0.015 A 
ATOM     11  C   UNL     1      49.101  19.073  18.382  0.00  0.00    +0.096 C 
ATOM     12  C   UNL     1      46.136  14.378  19.701  0.00  0.00    +0.186 A 
ATOM     15  C   UNL     1      47.369  17.896  19.746  0.00  0.00    -0.126 A 
ATOM     34  C   UNL     1      45.202  14.436  20.713  0.00  0.00    -0.114 A 
BRANCH   6   7
ATOM      7  O   UNL     1      48.079  14.364  17.661  0.00  0.00    -0.287 OA
ATOM      8  C   UNL     1      49.092  14.408  16.655  0.00  0.00    +0.247 C 
ENDBRANCH   6   7
BRANCH  12  13
ATOM     13  O   UNL     1      46.350  13.215  19.035  0.00  0.00    -0.288 OA
ATOM     14  C   UNL     1      45.246  12.667  18.312  0.00  0.00    +0.247 C 
ENDBRANCH  12  13
ENDBRANCH  16  15
BRANCH  17  18
ATOM     18  O   UNL     1      48.982  18.701  21.916  0.00  0.00    -0.482 OA
ATOM     19  H   UNL     1      49.860  19.038  21.687  0.00  0.00    +0.403 HD
ENDBRANCH  17  18
BRANCH  21  22
ATOM     22  O   UNL     1      46.474  22.693  22.504  0.00  0.00    -0.490 OA
ATOM     23  H   UNL     1      46.926  22.747  23.357  0.00  0.00    +0.401 HD
ENDBRANCH  21  22
TORSDOF 5
ENDMDL
MODEL 7
REMARK VINA RESULT:      -5.3      4.156      8.324
REMARK  Name = ZINC95486149
REMARK  11 active torsions:
REMARK  status: ('A' for Active; 'I' for Inactive)
REMARK    1  A    between atoms: C1_1  and  C2_2
REMARK    2  A    between atoms: C6_6  and  O1_8
REMARK    3  A    between atoms: O1_8  and  C8_9
REMARK    4  A    between atoms: C9_10  and  O4_31
REMARK    5  A    between atoms: C11_12  and  C24_30
REMARK    6  A    between atoms: C12_13  and  C13_14
REMARK    7  A    between atoms: C14_15  and  O3_29
REMARK    8  A    between atoms: C16_17  and  O2_28
REMARK    9  A    between atoms: C20_21  and  C23_27
REMARK   10  A    between atoms: C21_24  and  C22_26
REMARK   11  A    between atoms: O4_31  and  C25_32
REMARK                            x       y       z     vdW  Elec       q    Type
REMARK                         _______ _______ _______ _____ _____    ______ ____
ROOT
ATOM     16  C   UNL     1      47.948  13.888  17.215  0.00  0.00    -0.039 A 
ATOM     17  C   UNL     1      47.570  13.763  15.874  0.00  0.00    +0.169 A 
ATOM     20  C   UNL     1      48.151  12.783  15.089  0.00  0.00    -0.018 A 
ATOM     21  C   UNL     1      49.101  11.933  15.632  0.00  0.00    +0.157 A 
ATOM     24  C   UNL     1      49.479  12.055  16.968  0.00  0.00    -0.165 A 
ATOM     25  C   UNL     1      50.512  11.102  17.510  0.00  0.00    +0.239 C 
ATOM     26  C   UNL     1      51.614  10.906  16.468  0.00  0.00    +0.092 C 
ATOM     27  N   UNL     1      51.115  11.642  18.737  0.00  0.00    -0.504 N 
ATOM     28  H   UNL     1      51.731  10.952  19.140  0.00  0.00    +0.432 HD
ATOM     29  H   UNL     1      51.636  12.480  18.526  0.00  0.00    +0.429 HD
ATOM     30  C   UNL     1      50.039  11.957  19.690  0.00  0.00    +0.178 C 
ATOM     31  C   UNL     1      49.061  10.785  19.773  0.00  0.00    +0.088 C 
ATOM     32  C   UNL     1      49.305  13.206  19.199  0.00  0.00    +0.132 C 
ATOM     33  C   UNL     1      48.913  13.032  17.754  0.00  0.00    -0.043 A 
ENDROOT
BRANCH  16  15
ATOM      1  C   UNL     1      50.939  18.072  16.844  0.00  0.00    +0.094 C 
ATOM      2  C   UNL     1      49.668  17.755  17.590  0.00  0.00    -0.007 A 
ATOM      3  C   UNL     1      49.112  16.517  17.474  0.00  0.00    -0.066 A 
ATOM      4  C   UNL     1      47.930  16.213  18.165  0.00  0.00    +0.052 A 
ATOM      5  C   UNL     1      47.325  17.199  18.980  0.00  0.00    -0.111 A 
ATOM      6  C   UNL     1      46.137  16.893  19.676  0.00  0.00    +0.195 A 
ATOM      9  C   UNL     1      45.577  15.640  19.557  0.00  0.00    -0.114 A 
ATOM     10  C   UNL     1      46.166  14.667  18.759  0.00  0.00    +0.015 A 
ATOM     11  C   UNL     1      45.528  13.306  18.651  0.00  0.00    +0.096 C 
ATOM     12  C   UNL     1      47.920  18.471  19.082  0.00  0.00    +0.186 A 
ATOM     15  C   UNL     1      47.331  14.934  18.061  0.00  0.00    -0.126 A 
ATOM     34  C   UNL     1      49.085  18.730  18.393  0.00  0.00    -0.114 A 
BRANCH   6   7
ATOM      7  O   UNL     1      45.547  17.831  20.460  0.00  0.00    -0.287 OA
ATOM      8  C   UNL     1      44.135  17.996  20.324  0.00  0.00    +0.247 C 
ENDBRANCH   6   7
BRANCH  12  13
ATOM     13  O   UNL     1      47.356  19.431  19.859  0.00  0.00    -0.288 OA
ATOM     14  C   UNL     1      47.190  20.725  19.274  0.00  0.00    +0.247 C 
ENDBRANCH  12  13
ENDBRANCH  16  15
BRANCH  17  18
ATOM     18  O   UNL     1      46.637  14.597  15.347  0.00  0.00    -0.482 OA
ATOM     19  H   UNL     1      46.406  15.342  15.920  0.00  0.00    +0.403 HD
ENDBRANCH  17  18
BRANCH  21  22
ATOM     22  O   UNL     1      49.668  10.973  14.857  0.00  0.00    -0.490 OA
ATOM     23  H   UNL     1      49.254  10.103  14.942  0.00  0.00    +0.401 HD
ENDBRANCH  21  22
TORSDOF 5
ENDMDL
MODEL 8
REMARK VINA RESULT:      -5.2      2.297      3.625
REMARK  Name = ZINC95486149
REMARK  11 active torsions:
REMARK  status: ('A' for Active; 'I' for Inactive)
REMARK    1  A    between atoms: C1_1  and  C2_2
REMARK    2  A    between atoms: C6_6  and  O1_8
REMARK    3  A    between atoms: O1_8  and  C8_9
REMARK    4  A    between atoms: C9_10  and  O4_31
REMARK    5  A    between atoms: C11_12  and  C24_30
REMARK    6  A    between atoms: C12_13  and  C13_14
REMARK    7  A    between atoms: C14_15  and  O3_29
REMARK    8  A    between atoms: C16_17  and  O2_28
REMARK    9  A    between atoms: C20_21  and  C23_27
REMARK   10  A    between atoms: C21_24  and  C22_26
REMARK   11  A    between atoms: O4_31  and  C25_32
REMARK                            x       y       z     vdW  Elec       q    Type
REMARK                         _______ _______ _______ _____ _____    ______ ____
ROOT
ATOM     16  C   UNL     1      47.242  18.179  18.972  0.00  0.00    -0.039 A 
ATOM     17  C   UNL     1      46.233  18.440  18.040  0.00  0.00    +0.169 A 
ATOM     20  C   UNL     1      45.641  19.690  18.006  0.00  0.00    -0.018 A 
ATOM     21  C   UNL     1      46.049  20.674  18.892  0.00  0.00    +0.157 A 
ATOM     24  C   UNL     1      47.054  20.417  19.822  0.00  0.00    -0.165 A 
ATOM     25  C   UNL     1      47.464  21.523  20.759  0.00  0.00    +0.239 C 
ATOM     26  C   UNL     1      46.216  22.265  21.239  0.00  0.00    +0.092 C 
ATOM     27  N   UNL     1      48.163  20.972  21.929  0.00  0.00    -0.504 N 
ATOM     28  H   UNL     1      48.516  21.729  22.495  0.00  0.00    +0.432 HD
ATOM     29  H   UNL     1      47.532  20.405  22.474  0.00  0.00    +0.429 HD
ATOM     30  C   UNL     1      49.286  20.146  21.458  0.00  0.00    +0.178 C 
ATOM     31  C   UNL     1      50.072  20.901  20.385  0.00  0.00    +0.088 C 
ATOM     32  C   UNL     1      48.724  18.852  20.868  0.00  0.00    +0.132 C 
ATOM     33  C   UNL     1      47.643  19.174  19.869  0.00  0.00    -0.043 A 
ENDROOT
BRANCH  16  15
ATOM      1  C   UNL     1      51.497  18.466  16.075  0.00  0.00    +0.094 C 
ATOM      2  C   UNL     1      50.851  17.369  16.881  0.00  0.00    -0.007 A 
ATOM      3  C   UNL     1      49.694  17.622  17.554  0.00  0.00    -0.066 A 
ATOM      4  C   UNL     1      49.084  16.607  18.306  0.00  0.00    +0.052 A 
ATOM      5  C   UNL     1      49.679  15.324  18.358  0.00  0.00    -0.111 A 
ATOM      6  C   UNL     1      49.067  14.304  19.114  0.00  0.00    +0.195 A 
ATOM      9  C   UNL     1      47.896  14.562  19.793  0.00  0.00    -0.114 A 
ATOM     10  C   UNL     1      47.306  15.819  19.745  0.00  0.00    +0.015 A 
ATOM     11  C   UNL     1      46.025  16.070  20.498  0.00  0.00    +0.096 C 
ATOM     12  C   UNL     1      50.877  15.089  17.654  0.00  0.00    +0.186 A 
ATOM     15  C   UNL     1      47.881  16.845  19.014  0.00  0.00    -0.126 A 
ATOM     34  C   UNL     1      51.442  16.110  16.921  0.00  0.00    -0.114 A 
BRANCH   6   7
ATOM      7  O   UNL     1      49.629  13.070  19.172  0.00  0.00    -0.287 OA
ATOM      8  C   UNL     1      48.749  11.950  19.066  0.00  0.00    +0.247 C 
ENDBRANCH   6   7
BRANCH  12  13
ATOM     13  O   UNL     1      51.464  13.866  17.691  0.00  0.00    -0.288 OA
ATOM     14  C   UNL     1      51.517  13.133  16.466  0.00  0.00    +0.247 C 
ENDBRANCH  12  13
ENDBRANCH  16  15
BRANCH  17  18
ATOM     18  O   UNL     1      45.839  17.473  17.171  0.00  0.00    -0.482 OA
ATOM     19  H   UNL     1      46.308  17.488  16.326  0.00  0.00    +0.403 HD
ENDBRANCH  17  18
BRANCH  21  22
ATOM     22  O   UNL     1      45.464  21.899  18.854  0.00  0.00    -0.490 OA
ATOM     23  H   UNL     1      44.606  21.912  18.410  0.00  0.00    +0.401 HD
ENDBRANCH  21  22
TORSDOF 5
ENDMDL
MODEL 9
REMARK VINA RESULT:      -5.2      2.759      6.983
REMARK  Name = ZINC95486149
REMARK  11 active torsions:
REMARK  status: ('A' for Active; 'I' for Inactive)
REMARK    1  A    between atoms: C1_1  and  C2_2
REMARK    2  A    between atoms: C6_6  and  O1_8
REMARK    3  A    between atoms: O1_8  and  C8_9
REMARK    4  A    between atoms: C9_10  and  O4_31
REMARK    5  A    between atoms: C11_12  and  C24_30
REMARK    6  A    between atoms: C12_13  and  C13_14
REMARK    7  A    between atoms: C14_15  and  O3_29
REMARK    8  A    between atoms: C16_17  and  O2_28
REMARK    9  A    between atoms: C20_21  and  C23_27
REMARK   10  A    between atoms: C21_24  and  C22_26
REMARK   11  A    between atoms: O4_31  and  C25_32
REMARK                            x       y       z     vdW  Elec       q    Type
REMARK                         _______ _______ _______ _____ _____    ______ ____
ROOT
ATOM     16  C   UNL     1      49.477  18.526  20.141  0.00  0.00    -0.039 A 
ATOM     17  C   UNL     1      50.056  18.745  21.395  0.00  0.00    +0.169 A 
ATOM     20  C   UNL     1      51.309  18.227  21.670  0.00  0.00    -0.018 A 
ATOM     21  C   UNL     1      51.982  17.496  20.705  0.00  0.00    +0.157 A 
ATOM     24  C   UNL     1      51.409  17.276  19.454  0.00  0.00    -0.165 A 
ATOM     25  C   UNL     1      52.187  16.480  18.439  0.00  0.00    +0.239 C 
ATOM     26  C   UNL     1      52.863  15.297  19.136  0.00  0.00    +0.092 C 
ATOM     27  N   UNL     1      51.289  15.961  17.397  0.00  0.00    -0.504 N 
ATOM     28  H   UNL     1      51.836  15.515  16.676  0.00  0.00    +0.432 HD
ATOM     29  H   UNL     1      50.645  15.295  17.795  0.00  0.00    +0.429 HD
ATOM     30  C   UNL     1      50.540  17.088  16.820  0.00  0.00    +0.178 C 
ATOM     31  C   UNL     1      51.496  18.238  16.501  0.00  0.00    +0.088 C 
ATOM     32  C   UNL     1      49.499  17.553  17.839  0.00  0.00    +0.132 C 
ATOM     33  C   UNL     1      50.159  17.781  19.175  0.00  0.00    -0.043 A 
ENDROOT
BRANCH  16  15
ATOM      1  C   UNL     1      46.030  15.042  21.742  0.00  0.00    +0.094 C 
ATOM      2  C   UNL     1      45.925  16.394  21.084  0.00  0.00    -0.007 A 
ATOM      3  C   UNL     1      47.060  17.082  20.779  0.00  0.00    -0.066 A 
ATOM      4  C   UNL     1      46.973  18.341  20.166  0.00  0.00    +0.052 A 
ATOM      5  C   UNL     1      45.701  18.885  19.869  0.00  0.00    -0.111 A 
ATOM      6  C   UNL     1      45.613  20.150  19.252  0.00  0.00    +0.195 A 
ATOM      9  C   UNL     1      46.762  20.844  18.944  0.00  0.00    -0.114 A 
ATOM     10  C   UNL     1      48.014  20.316  19.233  0.00  0.00    +0.015 A 
ATOM     11  C   UNL     1      49.252  21.100  18.883  0.00  0.00    +0.096 C 
ATOM     12  C   UNL     1      44.543  18.153  20.195  0.00  0.00    +0.186 A 
ATOM     15  C   UNL     1      48.137  19.077  19.839  0.00  0.00    -0.126 A 
ATOM     34  C   UNL     1      44.669  16.917  20.791  0.00  0.00    -0.114 A 
BRANCH   6   7
ATOM      7  O   UNL     1      44.398  20.682  18.963  0.00  0.00    -0.287 OA
ATOM      8  C   UNL     1      44.081  21.939  19.562  0.00  0.00    +0.247 C 
ENDBRANCH   6   7
BRANCH  12  13
ATOM     13  O   UNL     1      43.313  18.656  19.919  0.00  0.00    -0.288 OA
ATOM     14  C   UNL     1      42.409  18.803  21.016  0.00  0.00    +0.247 C 
ENDBRANCH  12  13
ENDBRANCH  16  15
BRANCH  17  18
ATOM     18  O   UNL     1      49.391  19.464  22.337  0.00  0.00    -0.482 OA
ATOM     19  H   UNL     1      49.955  20.068  22.841  0.00  0.00    +0.403 HD
ENDBRANCH  17  18
BRANCH  21  22
ATOM     22  O   UNL     1      53.213  16.990  20.980  0.00  0.00    -0.490 OA
ATOM     23  H   UNL     1      53.923  17.369  20.446  0.00  0.00    +0.401 HD
ENDBRANCH  21  22
TORSDOF 5
ENDMDL
