MODEL 1
REMARK VINA RESULT:      -5.5      0.000      0.000
REMARK  Name = ZINC95486024
REMARK  7 active torsions:
REMARK  status: ('A' for Active; 'I' for Inactive)
REMARK    1  A    between atoms: C1_1  and  N1_2
REMARK    2  A    between atoms: C7_8  and  O1_9
REMARK    3  A    between atoms: O1_9  and  C8_10
REMARK    4  A    between atoms: C12_15  and  O6_24
REMARK    5  A    between atoms: C15_18  and  O3_19
REMARK    6  A    between atoms: O3_19  and  C16_20
REMARK    7  A    between atoms: O6_24  and  C18_25
REMARK                            x       y       z     vdW  Elec       q    Type
REMARK                         _______ _______ _______ _____ _____    ______ ____
ROOT
ATOM      1  C   UNL     1      49.708  20.655  20.649  0.00  0.00    +0.339 C 
ATOM      2  N   UNL     1      49.328  19.784  19.533  0.00  0.00    -0.508 N 
ATOM      3  C   UNL     1      50.217  19.596  18.493  0.00  0.00    +0.192 A 
ATOM      4  C   UNL     1      50.026  18.552  17.573  0.00  0.00    -0.173 A 
ATOM      5  C   UNL     1      48.856  17.667  17.733  0.00  0.00    +0.448 A 
ATOM      6  C   UNL     1      47.809  18.106  18.669  0.00  0.00    -0.225 A 
ATOM      7  C   UNL     1      46.555  17.483  18.692  0.00  0.00    +0.211 A 
ATOM     10  C   UNL     1      45.593  17.909  19.587  0.00  0.00    -0.027 A 
ATOM     11  O   UNL     1      44.315  17.478  19.810  0.00  0.00    -0.292 OA
ATOM     12  C   UNL     1      43.950  18.011  21.096  0.00  0.00    +0.439 C 
ATOM     13  O   UNL     1      44.756  19.198  21.216  0.00  0.00    -0.292 OA
ATOM     14  C   UNL     1      45.864  18.967  20.454  0.00  0.00    +0.105 A 
ATOM     15  C   UNL     1      47.105  19.593  20.436  0.00  0.00    +0.038 A 
ATOM     18  O   UNL     1      48.760  16.621  17.117  0.00  0.00    -0.442 OA
ATOM     19  C   UNL     1      50.930  18.364  16.527  0.00  0.00    +0.085 A 
ATOM     20  C   UNL     1      52.010  19.208  16.396  0.00  0.00    +0.015 A 
ATOM     21  C   UNL     1      52.203  20.243  17.300  0.00  0.00    -0.004 A 
ATOM     22  C   UNL     1      51.318  20.443  18.343  0.00  0.00    +0.075 A 
ATOM     25  C   UNL     1      48.089  19.167  19.551  0.00  0.00    +0.244 A 
ENDROOT
BRANCH   7   8
ATOM      8  O   UNL     1      46.291  16.450  17.849  0.00  0.00    -0.315 OA
ATOM      9  C   UNL     1      46.126  15.158  18.436  0.00  0.00    +0.248 C 
ENDBRANCH   7   8
BRANCH  15  16
ATOM     16  O   UNL     1      47.358  20.623  21.289  0.00  0.00    -0.314 OA
ATOM     17  C   UNL     1      46.626  21.833  21.079  0.00  0.00    +0.225 C 
ENDBRANCH  15  16
BRANCH  22  23
ATOM     23  O   UNL     1      51.519  21.461  19.222  0.00  0.00    -0.311 OA
ATOM     24  C   UNL     1      52.840  21.616  19.744  0.00  0.00    +0.238 C 
ENDBRANCH  22  23
TORSDOF 3
ENDMDL
MODEL 2
REMARK VINA RESULT:      -5.3      1.906      6.417
REMARK  Name = ZINC95486024
REMARK  7 active torsions:
REMARK  status: ('A' for Active; 'I' for Inactive)
REMARK    1  A    between atoms: C1_1  and  N1_2
REMARK    2  A    between atoms: C7_8  and  O1_9
REMARK    3  A    between atoms: O1_9  and  C8_10
REMARK    4  A    between atoms: C12_15  and  O6_24
REMARK    5  A    between atoms: C15_18  and  O3_19
REMARK    6  A    between atoms: O3_19  and  C16_20
REMARK    7  A    between atoms: O6_24  and  C18_25
REMARK                            x       y       z     vdW  Elec       q    Type
REMARK                         _______ _______ _______ _____ _____    ______ ____
ROOT
ATOM      1  C   UNL     1      45.550  18.255  18.363  0.00  0.00    +0.339 C 
ATOM      2  N   UNL     1      46.489  19.243  18.903  0.00  0.00    -0.508 N 
ATOM      3  C   UNL     1      45.993  20.376  19.520  0.00  0.00    +0.192 A 
ATOM      4  C   UNL     1      46.832  21.181  20.307  0.00  0.00    -0.173 A 
ATOM      5  C   UNL     1      48.250  20.802  20.457  0.00  0.00    +0.448 A 
ATOM      6  C   UNL     1      48.765  19.770  19.543  0.00  0.00    -0.225 A 
ATOM      7  C   UNL     1      50.141  19.534  19.425  0.00  0.00    +0.211 A 
ATOM     10  C   UNL     1      50.597  18.553  18.566  0.00  0.00    -0.027 A 
ATOM     11  O   UNL     1      51.864  18.131  18.271  0.00  0.00    -0.292 OA
ATOM     12  C   UNL     1      51.702  16.851  17.634  0.00  0.00    +0.439 C 
ATOM     13  O   UNL     1      50.394  16.927  17.039  0.00  0.00    -0.292 OA
ATOM     14  C   UNL     1      49.692  17.811  17.807  0.00  0.00    +0.105 A 
ATOM     15  C   UNL     1      48.326  18.040  17.917  0.00  0.00    +0.038 A 
ATOM     18  O   UNL     1      48.962  21.320  21.297  0.00  0.00    -0.442 OA
ATOM     19  C   UNL     1      46.324  22.322  20.931  0.00  0.00    +0.085 A 
ATOM     20  C   UNL     1      44.998  22.657  20.770  0.00  0.00    +0.015 A 
ATOM     21  C   UNL     1      44.166  21.866  19.991  0.00  0.00    -0.004 A 
ATOM     22  C   UNL     1      44.651  20.732  19.367  0.00  0.00    +0.075 A 
ATOM     25  C   UNL     1      47.849  19.015  18.787  0.00  0.00    +0.244 A 
ENDROOT
BRANCH   7   8
ATOM      8  O   UNL     1      51.023  20.256  20.165  0.00  0.00    -0.315 OA
ATOM      9  C   UNL     1      51.831  21.206  19.468  0.00  0.00    +0.248 C 
ENDBRANCH   7   8
BRANCH  15  16
ATOM     16  O   UNL     1      47.453  17.307  17.173  0.00  0.00    -0.314 OA
ATOM     17  C   UNL     1      47.552  15.885  17.272  0.00  0.00    +0.225 C 
ENDBRANCH  15  16
BRANCH  22  23
ATOM     23  O   UNL     1      43.824  19.966  18.607  0.00  0.00    -0.311 OA
ATOM     24  C   UNL     1      42.425  20.242  18.689  0.00  0.00    +0.238 C 
ENDBRANCH  22  23
TORSDOF 3
ENDMDL
MODEL 3
REMARK VINA RESULT:      -5.2      1.611      4.186
REMARK  Name = ZINC95486024
REMARK  7 active torsions:
REMARK  status: ('A' for Active; 'I' for Inactive)
REMARK    1  A    between atoms: C1_1  and  N1_2
REMARK    2  A    between atoms: C7_8  and  O1_9
REMARK    3  A    between atoms: O1_9  and  C8_10
REMARK    4  A    between atoms: C12_15  and  O6_24
REMARK    5  A    between atoms: C15_18  and  O3_19
REMARK    6  A    between atoms: O3_19  and  C16_20
REMARK    7  A    between atoms: O6_24  and  C18_25
REMARK                            x       y       z     vdW  Elec       q    Type
REMARK                         _______ _______ _______ _____ _____    ______ ____
ROOT
ATOM      1  C   UNL     1      47.095  17.329  17.807  0.00  0.00    +0.339 C 
ATOM      2  N   UNL     1      47.408  18.362  18.798  0.00  0.00    -0.508 N 
ATOM      3  C   UNL     1      48.644  18.979  18.759  0.00  0.00    +0.192 A 
ATOM      4  C   UNL     1      48.870  20.164  19.479  0.00  0.00    -0.173 A 
ATOM      5  C   UNL     1      47.771  20.731  20.282  0.00  0.00    +0.448 A 
ATOM      6  C   UNL     1      46.598  19.872  20.510  0.00  0.00    -0.225 A 
ATOM      7  C   UNL     1      45.632  20.211  21.467  0.00  0.00    +0.211 A 
ATOM     10  C   UNL     1      44.536  19.392  21.654  0.00  0.00    -0.027 A 
ATOM     11  O   UNL     1      43.471  19.492  22.505  0.00  0.00    -0.292 OA
ATOM     12  C   UNL     1      42.479  18.590  21.984  0.00  0.00    +0.439 C 
ATOM     13  O   UNL     1      43.252  17.593  21.291  0.00  0.00    -0.292 OA
ATOM     14  C   UNL     1      44.400  18.222  20.906  0.00  0.00    +0.105 A 
ATOM     15  C   UNL     1      45.355  17.878  19.958  0.00  0.00    +0.038 A 
ATOM     18  O   UNL     1      47.831  21.860  20.736  0.00  0.00    -0.442 OA
ATOM     19  C   UNL     1      50.120  20.784  19.432  0.00  0.00    +0.085 A 
ATOM     20  C   UNL     1      51.132  20.230  18.681  0.00  0.00    +0.015 A 
ATOM     21  C   UNL     1      50.914  19.058  17.970  0.00  0.00    -0.004 A 
ATOM     22  C   UNL     1      49.683  18.431  18.003  0.00  0.00    +0.075 A 
ATOM     25  C   UNL     1      46.458  18.699  19.746  0.00  0.00    +0.244 A 
ENDROOT
BRANCH   7   8
ATOM      8  O   UNL     1      45.763  21.351  22.195  0.00  0.00    -0.315 OA
ATOM      9  C   UNL     1      44.834  22.404  21.926  0.00  0.00    +0.248 C 
ENDBRANCH   7   8
BRANCH  15  16
ATOM     16  O   UNL     1      45.210  16.735  19.232  0.00  0.00    -0.314 OA
ATOM     17  C   UNL     1      45.341  15.498  19.937  0.00  0.00    +0.225 C 
ENDBRANCH  15  16
BRANCH  22  23
ATOM     23  O   UNL     1      49.484  17.283  17.302  0.00  0.00    -0.311 OA
ATOM     24  C   UNL     1      50.586  16.378  17.212  0.00  0.00    +0.238 C 
ENDBRANCH  22  23
TORSDOF 3
ENDMDL
MODEL 4
REMARK VINA RESULT:      -5.2      1.636      6.362
REMARK  Name = ZINC95486024
REMARK  7 active torsions:
REMARK  status: ('A' for Active; 'I' for Inactive)
REMARK    1  A    between atoms: C1_1  and  N1_2
REMARK    2  A    between atoms: C7_8  and  O1_9
REMARK    3  A    between atoms: O1_9  and  C8_10
REMARK    4  A    between atoms: C12_15  and  O6_24
REMARK    5  A    between atoms: C15_18  and  O3_19
REMARK    6  A    between atoms: O3_19  and  C16_20
REMARK    7  A    between atoms: O6_24  and  C18_25
REMARK                            x       y       z     vdW  Elec       q    Type
REMARK                         _______ _______ _______ _____ _____    ______ ____
ROOT
ATOM      1  C   UNL     1      45.407  17.328  19.419  0.00  0.00    +0.339 C 
ATOM      2  N   UNL     1      46.312  18.481  19.418  0.00  0.00    -0.508 N 
ATOM      3  C   UNL     1      45.858  19.694  19.900  0.00  0.00    +0.192 A 
ATOM      4  C   UNL     1      46.765  20.724  20.199  0.00  0.00    -0.173 A 
ATOM      5  C   UNL     1      48.205  20.493  19.980  0.00  0.00    +0.448 A 
ATOM      6  C   UNL     1      48.579  19.306  19.196  0.00  0.00    -0.225 A 
ATOM      7  C   UNL     1      49.884  19.143  18.711  0.00  0.00    +0.211 A 
ATOM     10  C   UNL     1      50.211  18.014  17.985  0.00  0.00    -0.027 A 
ATOM     11  O   UNL     1      51.388  17.621  17.411  0.00  0.00    -0.292 OA
ATOM     12  C   UNL     1      51.232  16.216  17.145  0.00  0.00    +0.439 C 
ATOM     13  O   UNL     1      49.812  16.052  16.981  0.00  0.00    -0.292 OA
ATOM     14  C   UNL     1      49.241  17.048  17.720  0.00  0.00    +0.105 A 
ATOM     15  C   UNL     1      47.944  17.202  18.195  0.00  0.00    +0.038 A 
ATOM     18  O   UNL     1      49.047  21.250  20.428  0.00  0.00    -0.442 OA
ATOM     19  C   UNL     1      46.300  21.946  20.689  0.00  0.00    +0.085 A 
ATOM     20  C   UNL     1      44.950  22.139  20.877  0.00  0.00    +0.015 A 
ATOM     21  C   UNL     1      44.050  21.125  20.581  0.00  0.00    -0.004 A 
ATOM     22  C   UNL     1      44.492  19.908  20.097  0.00  0.00    +0.075 A 
ATOM     25  C   UNL     1      47.601  18.326  18.940  0.00  0.00    +0.244 A 
ENDROOT
BRANCH   7   8
ATOM      8  O   UNL     1      50.830  20.084  18.971  0.00  0.00    -0.315 OA
ATOM      9  C   UNL     1      51.215  20.933  17.888  0.00  0.00    +0.248 C 
ENDBRANCH   7   8
BRANCH  15  16
ATOM     16  O   UNL     1      47.007  16.250  17.932  0.00  0.00    -0.314 OA
ATOM     17  C   UNL     1      46.591  16.109  16.572  0.00  0.00    +0.225 C 
ENDBRANCH  15  16
BRANCH  22  23
ATOM     23  O   UNL     1      43.599  18.924  19.811  0.00  0.00    -0.311 OA
ATOM     24  C   UNL     1      42.214  19.242  19.953  0.00  0.00    +0.238 C 
ENDBRANCH  22  23
TORSDOF 3
ENDMDL
MODEL 5
REMARK VINA RESULT:      -5.2      1.737      3.961
REMARK  Name = ZINC95486024
REMARK  7 active torsions:
REMARK  status: ('A' for Active; 'I' for Inactive)
REMARK    1  A    between atoms: C1_1  and  N1_2
REMARK    2  A    between atoms: C7_8  and  O1_9
REMARK    3  A    between atoms: O1_9  and  C8_10
REMARK    4  A    between atoms: C12_15  and  O6_24
REMARK    5  A    between atoms: C15_18  and  O3_19
REMARK    6  A    between atoms: O3_19  and  C16_20
REMARK    7  A    between atoms: O6_24  and  C18_25
REMARK                            x       y       z     vdW  Elec       q    Type
REMARK                         _______ _______ _______ _____ _____    ______ ____
ROOT
ATOM      1  C   UNL     1      48.053  16.633  17.633  0.00  0.00    +0.339 C 
ATOM      2  N   UNL     1      48.098  17.780  18.544  0.00  0.00    -0.508 N 
ATOM      3  C   UNL     1      49.081  18.737  18.374  0.00  0.00    +0.192 A 
ATOM      4  C   UNL     1      48.979  19.982  19.015  0.00  0.00    -0.173 A 
ATOM      5  C   UNL     1      47.812  20.247  19.877  0.00  0.00    +0.448 A 
ATOM      6  C   UNL     1      46.976  19.093  20.242  0.00  0.00    -0.225 A 
ATOM      7  C   UNL     1      46.015  19.191  21.258  0.00  0.00    +0.211 A 
ATOM     10  C   UNL     1      45.237  18.095  21.575  0.00  0.00    -0.027 A 
ATOM     11  O   UNL     1      44.249  17.929  22.505  0.00  0.00    -0.292 OA
ATOM     12  C   UNL     1      43.549  16.735  22.111  0.00  0.00    +0.439 C 
ATOM     13  O   UNL     1      44.545  15.972  21.405  0.00  0.00    -0.292 OA
ATOM     14  C   UNL     1      45.419  16.889  20.897  0.00  0.00    +0.105 A 
ATOM     15  C   UNL     1      46.370  16.783  19.890  0.00  0.00    +0.038 A 
ATOM     18  O   UNL     1      47.553  21.370  20.270  0.00  0.00    -0.442 OA
ATOM     19  C   UNL     1      49.973  20.946  18.836  0.00  0.00    +0.085 A 
ATOM     20  C   UNL     1      51.056  20.671  18.031  0.00  0.00    +0.015 A 
ATOM     21  C   UNL     1      51.162  19.441  17.397  0.00  0.00    -0.004 A 
ATOM     22  C   UNL     1      50.187  18.475  17.562  0.00  0.00    +0.075 A 
ATOM     25  C   UNL     1      47.153  17.881  19.549  0.00  0.00    +0.244 A 
ENDROOT
BRANCH   7   8
ATOM      8  O   UNL     1      45.837  20.366  21.917  0.00  0.00    -0.315 OA
ATOM      9  C   UNL     1      44.598  21.046  21.710  0.00  0.00    +0.248 C 
ENDBRANCH   7   8
BRANCH  15  16
ATOM     16  O   UNL     1      46.535  15.601  19.235  0.00  0.00    -0.314 OA
ATOM     17  C   UNL     1      47.035  14.500  19.998  0.00  0.00    +0.225 C 
ENDBRANCH  15  16
BRANCH  22  23
ATOM     23  O   UNL     1      50.304  17.275  16.935  0.00  0.00    -0.311 OA
ATOM     24  C   UNL     1      51.610  16.699  16.873  0.00  0.00    +0.238 C 
ENDBRANCH  22  23
TORSDOF 3
ENDMDL
MODEL 6
REMARK VINA RESULT:      -5.1      1.954      4.494
REMARK  Name = ZINC95486024
REMARK  7 active torsions:
REMARK  status: ('A' for Active; 'I' for Inactive)
REMARK    1  A    between atoms: C1_1  and  N1_2
REMARK    2  A    between atoms: C7_8  and  O1_9
REMARK    3  A    between atoms: O1_9  and  C8_10
REMARK    4  A    between atoms: C12_15  and  O6_24
REMARK    5  A    between atoms: C15_18  and  O3_19
REMARK    6  A    between atoms: O3_19  and  C16_20
REMARK    7  A    between atoms: O6_24  and  C18_25
REMARK                            x       y       z     vdW  Elec       q    Type
REMARK                         _______ _______ _______ _____ _____    ______ ____
ROOT
ATOM      1  C   UNL     1      49.948  17.221  16.844  0.00  0.00    +0.339 C 
ATOM      2  N   UNL     1      48.979  17.490  17.909  0.00  0.00    -0.508 N 
ATOM      3  C   UNL     1      49.068  18.673  18.618  0.00  0.00    +0.192 A 
ATOM      4  C   UNL     1      48.000  19.102  19.422  0.00  0.00    -0.173 A 
ATOM      5  C   UNL     1      46.787  18.266  19.503  0.00  0.00    +0.448 A 
ATOM      6  C   UNL     1      46.883  16.898  18.969  0.00  0.00    -0.225 A 
ATOM      7  C   UNL     1      45.886  15.949  19.235  0.00  0.00    +0.211 A 
ATOM     10  C   UNL     1      45.996  14.675  18.714  0.00  0.00    -0.027 A 
ATOM     11  O   UNL     1      45.179  13.584  18.821  0.00  0.00    -0.292 OA
ATOM     12  C   UNL     1      45.591  12.694  17.768  0.00  0.00    +0.439 C 
ATOM     13  O   UNL     1      46.977  13.023  17.563  0.00  0.00    -0.292 OA
ATOM     14  C   UNL     1      47.103  14.329  17.939  0.00  0.00    +0.105 A 
ATOM     15  C   UNL     1      48.096  15.263  17.672  0.00  0.00    +0.038 A 
ATOM     18  O   UNL     1      45.754  18.688  19.990  0.00  0.00    -0.442 OA
ATOM     19  C   UNL     1      48.094  20.300  20.132  0.00  0.00    +0.085 A 
ATOM     20  C   UNL     1      49.240  21.059  20.044  0.00  0.00    +0.015 A 
ATOM     21  C   UNL     1      50.300  20.638  19.254  0.00  0.00    -0.004 A 
ATOM     22  C   UNL     1      50.223  19.455  18.543  0.00  0.00    +0.075 A 
ATOM     25  C   UNL     1      47.994  16.555  18.177  0.00  0.00    +0.244 A 
ENDROOT
BRANCH   7   8
ATOM      8  O   UNL     1      44.807  16.287  19.989  0.00  0.00    -0.315 OA
ATOM      9  C   UNL     1      44.745  15.751  21.312  0.00  0.00    +0.248 C 
ENDBRANCH   7   8
BRANCH  15  16
ATOM     16  O   UNL     1      49.170  14.914  16.912  0.00  0.00    -0.314 OA
ATOM     17  C   UNL     1      50.061  13.939  17.459  0.00  0.00    +0.225 C 
ENDBRANCH  15  16
BRANCH  22  23
ATOM     23  O   UNL     1      51.269  19.054  17.772  0.00  0.00    -0.311 OA
ATOM     24  C   UNL     1      52.545  19.629  18.060  0.00  0.00    +0.238 C 
ENDBRANCH  22  23
TORSDOF 3
ENDMDL
MODEL 7
REMARK VINA RESULT:      -5.1      2.827      5.996
REMARK  Name = ZINC95486024
REMARK  7 active torsions:
REMARK  status: ('A' for Active; 'I' for Inactive)
REMARK    1  A    between atoms: C1_1  and  N1_2
REMARK    2  A    between atoms: C7_8  and  O1_9
REMARK    3  A    between atoms: O1_9  and  C8_10
REMARK    4  A    between atoms: C12_15  and  O6_24
REMARK    5  A    between atoms: C15_18  and  O3_19
REMARK    6  A    between atoms: O3_19  and  C16_20
REMARK    7  A    between atoms: O6_24  and  C18_25
REMARK                            x       y       z     vdW  Elec       q    Type
REMARK                         _______ _______ _______ _____ _____    ______ ____
ROOT
ATOM      1  C   UNL     1      51.077  15.163  16.820  0.00  0.00    +0.339 C 
ATOM      2  N   UNL     1      49.644  15.371  17.049  0.00  0.00    -0.508 N 
ATOM      3  C   UNL     1      48.756  14.367  16.715  0.00  0.00    +0.192 A 
ATOM      4  C   UNL     1      47.435  14.399  17.191  0.00  0.00    -0.173 A 
ATOM      5  C   UNL     1      47.011  15.526  18.044  0.00  0.00    +0.448 A 
ATOM      6  C   UNL     1      47.909  16.689  18.107  0.00  0.00    -0.225 A 
ATOM      7  C   UNL     1      47.481  17.901  18.666  0.00  0.00    +0.211 A 
ATOM     10  C   UNL     1      48.347  18.975  18.722  0.00  0.00    -0.027 A 
ATOM     11  O   UNL     1      48.181  20.243  19.206  0.00  0.00    -0.292 OA
ATOM     12  C   UNL     1      49.511  20.772  19.355  0.00  0.00    +0.439 C 
ATOM     13  O   UNL     1      50.278  20.054  18.371  0.00  0.00    -0.292 OA
ATOM     14  C   UNL     1      49.638  18.860  18.208  0.00  0.00    +0.105 A 
ATOM     15  C   UNL     1      50.071  17.663  17.650  0.00  0.00    +0.038 A 
ATOM     18  O   UNL     1      45.965  15.494  18.667  0.00  0.00    -0.442 OA
ATOM     19  C   UNL     1      46.543  13.379  16.853  0.00  0.00    +0.085 A 
ATOM     20  C   UNL     1      46.962  12.342  16.050  0.00  0.00    +0.015 A 
ATOM     21  C   UNL     1      48.265  12.307  15.575  0.00  0.00    -0.004 A 
ATOM     22  C   UNL     1      49.162  13.307  15.900  0.00  0.00    +0.075 A 
ATOM     25  C   UNL     1      49.216  16.566  17.599  0.00  0.00    +0.244 A 
ENDROOT
BRANCH   7   8
ATOM      8  O   UNL     1      46.223  18.013  19.168  0.00  0.00    -0.315 OA
ATOM      9  C   UNL     1      45.303  18.828  18.439  0.00  0.00    +0.248 C 
ENDBRANCH   7   8
BRANCH  15  16
ATOM     16  O   UNL     1      51.335  17.562  17.155  0.00  0.00    -0.314 OA
ATOM     17  C   UNL     1      51.660  18.389  16.035  0.00  0.00    +0.225 C 
ENDBRANCH  15  16
BRANCH  22  23
ATOM     23  O   UNL     1      50.436  13.260  15.428  0.00  0.00    -0.311 OA
ATOM     24  C   UNL     1      50.626  12.702  14.126  0.00  0.00    +0.238 C 
ENDBRANCH  22  23
TORSDOF 3
ENDMDL
MODEL 8
REMARK VINA RESULT:      -5.1      1.403      5.546
REMARK  Name = ZINC95486024
REMARK  7 active torsions:
REMARK  status: ('A' for Active; 'I' for Inactive)
REMARK    1  A    between atoms: C1_1  and  N1_2
REMARK    2  A    between atoms: C7_8  and  O1_9
REMARK    3  A    between atoms: O1_9  and  C8_10
REMARK    4  A    between atoms: C12_15  and  O6_24
REMARK    5  A    between atoms: C15_18  and  O3_19
REMARK    6  A    between atoms: O3_19  and  C16_20
REMARK    7  A    between atoms: O6_24  and  C18_25
REMARK                            x       y       z     vdW  Elec       q    Type
REMARK                         _______ _______ _______ _____ _____    ______ ____
ROOT
ATOM      1  C   UNL     1      47.494  21.148  20.211  0.00  0.00    +0.339 C 
ATOM      2  N   UNL     1      47.247  19.757  19.822  0.00  0.00    -0.508 N 
ATOM      3  C   UNL     1      46.120  19.114  20.301  0.00  0.00    +0.192 A 
ATOM      4  C   UNL     1      45.690  17.909  19.722  0.00  0.00    -0.173 A 
ATOM      5  C   UNL     1      46.464  17.339  18.603  0.00  0.00    +0.448 A 
ATOM      6  C   UNL     1      47.796  17.912  18.353  0.00  0.00    -0.225 A 
ATOM      7  C   UNL     1      48.706  17.273  17.500  0.00  0.00    +0.211 A 
ATOM     10  C   UNL     1      49.947  17.837  17.274  0.00  0.00    -0.027 A 
ATOM     11  O   UNL     1      50.997  17.426  16.503  0.00  0.00    -0.292 OA
ATOM     12  C   UNL     1      51.835  18.585  16.348  0.00  0.00    +0.439 C 
ATOM     13  O   UNL     1      51.567  19.362  17.529  0.00  0.00    -0.292 OA
ATOM     14  C   UNL     1      50.298  19.030  17.906  0.00  0.00    +0.105 A 
ATOM     15  C   UNL     1      49.402  19.669  18.754  0.00  0.00    +0.038 A 
ATOM     18  O   UNL     1      46.022  16.434  17.919  0.00  0.00    -0.442 OA
ATOM     19  C   UNL     1      44.549  17.267  20.207  0.00  0.00    +0.085 A 
ATOM     20  C   UNL     1      43.848  17.818  21.256  0.00  0.00    +0.015 A 
ATOM     21  C   UNL     1      44.271  19.006  21.834  0.00  0.00    -0.004 A 
ATOM     22  C   UNL     1      45.397  19.657  21.365  0.00  0.00    +0.075 A 
ATOM     25  C   UNL     1      48.143  19.122  18.982  0.00  0.00    +0.244 A 
ENDROOT
BRANCH   7   8
ATOM      8  O   UNL     1      48.364  16.111  16.883  0.00  0.00    -0.315 OA
ATOM      9  C   UNL     1      49.015  14.922  17.331  0.00  0.00    +0.248 C 
ENDBRANCH   7   8
BRANCH  15  16
ATOM     16  O   UNL     1      49.756  20.834  19.363  0.00  0.00    -0.314 OA
ATOM     17  C   UNL     1      50.835  20.775  20.298  0.00  0.00    +0.225 C 
ENDBRANCH  15  16
BRANCH  22  23
ATOM     23  O   UNL     1      45.800  20.822  21.940  0.00  0.00    -0.311 OA
ATOM     24  C   UNL     1      44.784  21.652  22.504  0.00  0.00    +0.238 C 
ENDBRANCH  22  23
TORSDOF 3
ENDMDL
MODEL 9
REMARK VINA RESULT:      -5.0      2.226      4.374
REMARK  Name = ZINC95486024
REMARK  7 active torsions:
REMARK  status: ('A' for Active; 'I' for Inactive)
REMARK    1  A    between atoms: C1_1  and  N1_2
REMARK    2  A    between atoms: C7_8  and  O1_9
REMARK    3  A    between atoms: O1_9  and  C8_10
REMARK    4  A    between atoms: C12_15  and  O6_24
REMARK    5  A    between atoms: C15_18  and  O3_19
REMARK    6  A    between atoms: O3_19  and  C16_20
REMARK    7  A    between atoms: O6_24  and  C18_25
REMARK                            x       y       z     vdW  Elec       q    Type
REMARK                         _______ _______ _______ _____ _____    ______ ____
ROOT
ATOM      1  C   UNL     1      46.803  17.892  20.044  0.00  0.00    +0.339 C 
ATOM      2  N   UNL     1      47.776  17.594  18.990  0.00  0.00    -0.508 N 
ATOM      3  C   UNL     1      48.742  18.533  18.680  0.00  0.00    +0.192 A 
ATOM      4  C   UNL     1      49.860  18.175  17.909  0.00  0.00    -0.173 A 
ATOM      5  C   UNL     1      49.980  16.785  17.429  0.00  0.00    +0.448 A 
ATOM      6  C   UNL     1      48.786  15.934  17.544  0.00  0.00    -0.225 A 
ATOM      7  C   UNL     1      48.715  14.700  16.883  0.00  0.00    +0.211 A 
ATOM     10  C   UNL     1      47.585  13.916  17.015  0.00  0.00    -0.027 A 
ATOM     11  O   UNL     1      47.269  12.695  16.486  0.00  0.00    -0.292 OA
ATOM     12  C   UNL     1      46.164  12.213  17.273  0.00  0.00    +0.439 C 
ATOM     13  O   UNL     1      45.527  13.415  17.742  0.00  0.00    -0.292 OA
ATOM     14  C   UNL     1      46.512  14.358  17.788  0.00  0.00    +0.105 A 
ATOM     15  C   UNL     1      46.574  15.582  18.445  0.00  0.00    +0.038 A 
ATOM     18  O   UNL     1      51.021  16.362  16.960  0.00  0.00    -0.442 OA
ATOM     19  C   UNL     1      50.833  19.127  17.602  0.00  0.00    +0.085 A 
ATOM     20  C   UNL     1      50.694  20.420  18.056  0.00  0.00    +0.015 A 
ATOM     21  C   UNL     1      49.590  20.779  18.816  0.00  0.00    -0.004 A 
ATOM     22  C   UNL     1      48.616  19.849  19.131  0.00  0.00    +0.075 A 
ATOM     25  C   UNL     1      47.709  16.377  18.334  0.00  0.00    +0.244 A 
ENDROOT
BRANCH   7   8
ATOM      8  O   UNL     1      49.761  14.267  16.131  0.00  0.00    -0.315 OA
ATOM      9  C   UNL     1      50.479  13.129  16.610  0.00  0.00    +0.248 C 
ENDBRANCH   7   8
BRANCH  15  16
ATOM     16  O   UNL     1      45.521  16.001  19.199  0.00  0.00    -0.314 OA
ATOM     17  C   UNL     1      45.099  15.140  20.259  0.00  0.00    +0.225 C 
ENDBRANCH  15  16
BRANCH  22  23
ATOM     23  O   UNL     1      47.540  20.215  19.876  0.00  0.00    -0.311 OA
ATOM     24  C   UNL     1      47.678  21.385  20.685  0.00  0.00    +0.238 C 
ENDBRANCH  22  23
TORSDOF 3
ENDMDL
