MODEL 1
REMARK VINA RESULT:      -8.6      0.000      0.000
REMARK  Name = ZINC95486072
REMARK  7 active torsions:
REMARK  status: ('A' for Active; 'I' for Inactive)
REMARK    1  A    between atoms: C1_1  and  C2_2
REMARK    2  A    between atoms: C6_7  and  C29_35
REMARK    3  A    between atoms: C6_7  and  C30_36
REMARK    4  A    between atoms: C10_12  and  C28_34
REMARK    5  A    between atoms: C15_18  and  C27_33
REMARK    6  A    between atoms: C21_25  and  C24_29
REMARK    7  A    between atoms: C21_25  and  C25_30
REMARK                            x       y       z     vdW  Elec       q    Type
REMARK                         _______ _______ _______ _____ _____    ______ ____
ROOT
ATOM      1  C   UNL     1      49.614  17.447  20.195  0.00  0.00    +0.029 C 
ATOM      2  C   UNL     1      48.966  17.878  18.886  0.00  0.00    -0.043 C 
ATOM      3  C   UNL     1      48.968  16.646  17.951  0.00  0.00    +0.036 C 
ATOM      4  C   UNL     1      50.399  16.130  17.810  0.00  0.00    +0.018 C 
ATOM      5  C   UNL     1      51.300  17.234  17.324  0.00  0.00    +0.369 C 
ATOM      6  C   UNL     1      51.150  18.657  17.805  0.00  0.00    -0.092 C 
ATOM      7  C   UNL     1      52.122  18.924  18.954  0.00  0.00    +0.055 C 
ATOM      8  C   UNL     1      51.572  19.571  16.629  0.00  0.00    +0.041 C 
ATOM      9  O   UNL     1      52.178  16.974  16.520  0.00  0.00    -0.464 OA
ATOM     10  C   UNL     1      47.497  18.290  19.092  0.00  0.00    +0.041 C 
ATOM     11  C   UNL     1      46.867  18.294  17.693  0.00  0.00    +0.010 C 
ATOM     12  C   UNL     1      45.415  18.742  17.726  0.00  0.00    +0.030 C 
ATOM     13  C   UNL     1      44.962  18.992  19.152  0.00  0.00    +0.141 C 
ATOM     14  C   UNL     1      45.826  20.031  19.852  0.00  0.00    -0.041 C 
ATOM     15  C   UNL     1      45.638  21.421  19.235  0.00  0.00    +0.033 C 
ATOM     16  C   UNL     1      45.402  20.072  21.331  0.00  0.00    +0.040 C 
ATOM     17  C   UNL     1      43.874  20.199  21.449  0.00  0.00    +0.034 C 
ATOM     18  C   UNL     1      43.219  19.038  20.708  0.00  0.00    -0.149 C 
ATOM     19  C   UNL     1      44.016  17.754  20.928  0.00  0.00    +0.218 C 
ATOM     20  C   UNL     1      41.748  18.986  20.925  0.00  0.00    +0.385 C 
ATOM     21  O   UNL     1      41.222  18.057  21.501  0.00  0.00    -0.448 OA
ATOM     22  C   UNL     1      40.939  20.157  20.390  0.00  0.00    +0.034 C 
ATOM     23  C   UNL     1      41.318  20.477  18.947  0.00  0.00    -0.057 C 
ATOM     24  C   UNL     1      40.735  21.852  18.591  0.00  0.00    +0.034 C 
ATOM     25  C   UNL     1      40.711  19.438  18.009  0.00  0.00    +0.027 C 
ATOM     26  C   UNL     1      42.845  20.541  18.759  0.00  0.00    +0.060 C 
ATOM     27  O   UNL     1      45.056  17.756  19.921  0.00  0.00    -0.363 OA
ATOM     28  C   UNL     1      43.462  19.247  19.186  0.00  0.00    -0.011 C 
ATOM     29  C   UNL     1      47.318  19.646  19.758  0.00  0.00    -0.022 C 
ATOM     30  C   UNL     1      47.882  19.650  21.189  0.00  0.00    +0.020 C 
ATOM     31  C   UNL     1      48.102  20.706  18.976  0.00  0.00    +0.020 C 
ATOM     32  C   UNL     1      49.590  20.308  18.915  0.00  0.00    +0.012 C 
ATOM     33  C   UNL     1      49.714  18.988  18.167  0.00  0.00    +0.007 C 
ENDROOT
TORSDOF 0
ENDMDL
MODEL 2
REMARK VINA RESULT:      -7.7      2.957      7.849
REMARK  Name = ZINC95486072
REMARK  7 active torsions:
REMARK  status: ('A' for Active; 'I' for Inactive)
REMARK    1  A    between atoms: C1_1  and  C2_2
REMARK    2  A    between atoms: C6_7  and  C29_35
REMARK    3  A    between atoms: C6_7  and  C30_36
REMARK    4  A    between atoms: C10_12  and  C28_34
REMARK    5  A    between atoms: C15_18  and  C27_33
REMARK    6  A    between atoms: C21_25  and  C24_29
REMARK    7  A    between atoms: C21_25  and  C25_30
REMARK                            x       y       z     vdW  Elec       q    Type
REMARK                         _______ _______ _______ _____ _____    ______ ____
ROOT
ATOM      1  C   UNL     1      47.013  19.211  20.662  0.00  0.00    +0.029 C 
ATOM      2  C   UNL     1      46.174  18.729  19.487  0.00  0.00    -0.043 C 
ATOM      3  C   UNL     1      46.182  19.858  18.429  0.00  0.00    +0.036 C 
ATOM      4  C   UNL     1      45.685  21.150  19.075  0.00  0.00    +0.018 C 
ATOM      5  C   UNL     1      44.327  20.931  19.687  0.00  0.00    +0.369 C 
ATOM      6  C   UNL     1      43.968  19.650  20.400  0.00  0.00    -0.092 C 
ATOM      7  C   UNL     1      44.168  19.818  21.906  0.00  0.00    +0.055 C 
ATOM      8  C   UNL     1      42.456  19.417  20.164  0.00  0.00    +0.041 C 
ATOM      9  O   UNL     1      43.490  21.813  19.606  0.00  0.00    -0.464 OA
ATOM     10  C   UNL     1      46.790  17.483  18.826  0.00  0.00    +0.041 C 
ATOM     11  C   UNL     1      46.108  17.358  17.457  0.00  0.00    +0.010 C 
ATOM     12  C   UNL     1      46.576  16.126  16.700  0.00  0.00    +0.030 C 
ATOM     13  C   UNL     1      47.652  15.393  17.479  0.00  0.00    +0.141 C 
ATOM     14  C   UNL     1      47.175  14.982  18.864  0.00  0.00    -0.041 C 
ATOM     15  C   UNL     1      46.085  13.908  18.782  0.00  0.00    +0.033 C 
ATOM     16  C   UNL     1      48.386  14.419  19.628  0.00  0.00    +0.040 C 
ATOM     17  C   UNL     1      49.121  13.373  18.773  0.00  0.00    +0.034 C 
ATOM     18  C   UNL     1      49.537  14.013  17.453  0.00  0.00    -0.149 C 
ATOM     19  C   UNL     1      50.005  15.448  17.685  0.00  0.00    +0.218 C 
ATOM     20  C   UNL     1      50.412  13.122  16.643  0.00  0.00    +0.385 C 
ATOM     21  O   UNL     1      51.562  13.416  16.393  0.00  0.00    -0.448 OA
ATOM     22  C   UNL     1      49.791  11.826  16.147  0.00  0.00    +0.034 C 
ATOM     23  C   UNL     1      48.432  12.076  15.500  0.00  0.00    -0.057 C 
ATOM     24  C   UNL     1      47.720  10.725  15.341  0.00  0.00    +0.034 C 
ATOM     25  C   UNL     1      48.622  12.688  14.115  0.00  0.00    +0.027 C 
ATOM     26  C   UNL     1      47.545  12.986  16.370  0.00  0.00    +0.060 C 
ATOM     27  O   UNL     1      48.809  16.264  17.656  0.00  0.00    -0.363 OA
ATOM     28  C   UNL     1      48.248  14.281  16.627  0.00  0.00    -0.011 C 
ATOM     29  C   UNL     1      46.610  16.201  19.626  0.00  0.00    -0.022 C 
ATOM     30  C   UNL     1      47.342  16.273  20.977  0.00  0.00    +0.020 C 
ATOM     31  C   UNL     1      45.125  16.001  19.943  0.00  0.00    +0.020 C 
ATOM     32  C   UNL     1      44.594  17.221  20.720  0.00  0.00    +0.012 C 
ATOM     33  C   UNL     1      44.722  18.457  19.840  0.00  0.00    +0.007 C 
ENDROOT
TORSDOF 0
ENDMDL
MODEL 3
REMARK VINA RESULT:      -7.1      2.136      7.865
REMARK  Name = ZINC95486072
REMARK  7 active torsions:
REMARK  status: ('A' for Active; 'I' for Inactive)
REMARK    1  A    between atoms: C1_1  and  C2_2
REMARK    2  A    between atoms: C6_7  and  C29_35
REMARK    3  A    between atoms: C6_7  and  C30_36
REMARK    4  A    between atoms: C10_12  and  C28_34
REMARK    5  A    between atoms: C15_18  and  C27_33
REMARK    6  A    between atoms: C21_25  and  C24_29
REMARK    7  A    between atoms: C21_25  and  C25_30
REMARK                            x       y       z     vdW  Elec       q    Type
REMARK                         _______ _______ _______ _____ _____    ______ ____
ROOT
ATOM      1  C   UNL     1      43.963  21.154  21.632  0.00  0.00    +0.029 C 
ATOM      2  C   UNL     1      44.468  20.962  20.209  0.00  0.00    -0.043 C 
ATOM      3  C   UNL     1      44.380  22.336  19.506  0.00  0.00    +0.036 C 
ATOM      4  C   UNL     1      42.947  22.856  19.605  0.00  0.00    +0.018 C 
ATOM      5  C   UNL     1      41.991  21.844  19.033  0.00  0.00    +0.369 C 
ATOM      6  C   UNL     1      42.177  20.361  19.243  0.00  0.00    -0.092 C 
ATOM      7  C   UNL     1      41.327  19.891  20.423  0.00  0.00    +0.055 C 
ATOM      8  C   UNL     1      41.626  19.660  17.976  0.00  0.00    +0.041 C 
ATOM      9  O   UNL     1      41.037  22.230  18.380  0.00  0.00    -0.464 OA
ATOM     10  C   UNL     1      45.947  20.533  20.187  0.00  0.00    +0.041 C 
ATOM     11  C   UNL     1      46.428  20.776  18.750  0.00  0.00    +0.010 C 
ATOM     12  C   UNL     1      47.872  20.343  18.554  0.00  0.00    +0.030 C 
ATOM     13  C   UNL     1      48.468  19.854  19.862  0.00  0.00    +0.141 C 
ATOM     14  C   UNL     1      47.672  18.703  20.458  0.00  0.00    -0.041 C 
ATOM     15  C   UNL     1      47.783  17.442  19.594  0.00  0.00    +0.033 C 
ATOM     16  C   UNL     1      48.247  18.411  21.855  0.00  0.00    +0.040 C 
ATOM     17  C   UNL     1      49.778  18.280  21.790  0.00  0.00    +0.034 C 
ATOM     18  C   UNL     1      50.362  19.557  21.196  0.00  0.00    -0.149 C 
ATOM     19  C   UNL     1      49.605  20.776  21.717  0.00  0.00    +0.218 C 
ATOM     20  C   UNL     1      51.849  19.584  21.265  0.00  0.00    +0.385 C 
ATOM     21  O   UNL     1      52.440  20.405  21.935  0.00  0.00    -0.448 OA
ATOM     22  C   UNL     1      52.588  18.530  20.455  0.00  0.00    +0.034 C 
ATOM     23  C   UNL     1      52.057  18.461  19.027  0.00  0.00    -0.057 C 
ATOM     24  C   UNL     1      52.589  17.173  18.380  0.00  0.00    +0.034 C 
ATOM     25  C   UNL     1      52.573  19.652  18.224  0.00  0.00    +0.027 C 
ATOM     26  C   UNL     1      50.519  18.416  18.990  0.00  0.00    +0.060 C 
ATOM     27  O   UNL     1      48.466  20.939  20.838  0.00  0.00    -0.363 OA
ATOM     28  C   UNL     1      49.962  19.611  19.695  0.00  0.00    -0.011 C 
ATOM     29  C   UNL     1      46.182  19.084  20.586  0.00  0.00    -0.022 C 
ATOM     30  C   UNL     1      45.770  18.829  22.046  0.00  0.00    +0.020 C 
ATOM     31  C   UNL     1      45.311  18.169  19.720  0.00  0.00    +0.020 C 
ATOM     32  C   UNL     1      43.829  18.558  19.883  0.00  0.00    +0.012 C 
ATOM     33  C   UNL     1      43.640  19.986  19.390  0.00  0.00    +0.007 C 
ENDROOT
TORSDOF 0
ENDMDL
MODEL 4
REMARK VINA RESULT:      -7.0      2.984      4.568
REMARK  Name = ZINC95486072
REMARK  7 active torsions:
REMARK  status: ('A' for Active; 'I' for Inactive)
REMARK    1  A    between atoms: C1_1  and  C2_2
REMARK    2  A    between atoms: C6_7  and  C29_35
REMARK    3  A    between atoms: C6_7  and  C30_36
REMARK    4  A    between atoms: C10_12  and  C28_34
REMARK    5  A    between atoms: C15_18  and  C27_33
REMARK    6  A    between atoms: C21_25  and  C24_29
REMARK    7  A    between atoms: C21_25  and  C25_30
REMARK                            x       y       z     vdW  Elec       q    Type
REMARK                         _______ _______ _______ _____ _____    ______ ____
ROOT
ATOM      1  C   UNL     1      48.874  12.255  18.199  0.00  0.00    +0.029 C 
ATOM      2  C   UNL     1      48.526  13.275  17.122  0.00  0.00    -0.043 C 
ATOM      3  C   UNL     1      47.581  12.572  16.119  0.00  0.00    +0.036 C 
ATOM      4  C   UNL     1      48.260  11.307  15.598  0.00  0.00    +0.018 C 
ATOM      5  C   UNL     1      49.599  11.649  15.000  0.00  0.00    +0.369 C 
ATOM      6  C   UNL     1      50.507  12.687  15.614  0.00  0.00    -0.092 C 
ATOM      7  C   UNL     1      51.540  12.008  16.513  0.00  0.00    +0.055 C 
ATOM      8  C   UNL     1      51.281  13.347  14.447  0.00  0.00    +0.041 C 
ATOM      9  O   UNL     1      49.963  11.073  13.990  0.00  0.00    -0.464 OA
ATOM     10  C   UNL     1      47.757  14.474  17.707  0.00  0.00    +0.041 C 
ATOM     11  C   UNL     1      47.124  15.187  16.505  0.00  0.00    +0.010 C 
ATOM     12  C   UNL     1      46.370  16.440  16.922  0.00  0.00    +0.030 C 
ATOM     13  C   UNL     1      46.388  16.601  18.430  0.00  0.00    +0.141 C 
ATOM     14  C   UNL     1      47.804  16.659  18.983  0.00  0.00    -0.041 C 
ATOM     15  C   UNL     1      48.524  17.938  18.541  0.00  0.00    +0.033 C 
ATOM     16  C   UNL     1      47.709  16.635  20.518  0.00  0.00    +0.040 C 
ATOM     17  C   UNL     1      46.694  17.682  21.009  0.00  0.00    +0.034 C 
ATOM     18  C   UNL     1      45.343  17.409  20.357  0.00  0.00    -0.149 C 
ATOM     19  C   UNL     1      45.088  15.906  20.278  0.00  0.00    +0.218 C 
ATOM     20  C   UNL     1      44.262  18.266  20.917  0.00  0.00    +0.385 C 
ATOM     21  O   UNL     1      43.326  17.792  21.526  0.00  0.00    -0.448 OA
ATOM     22  C   UNL     1      44.391  19.763  20.687  0.00  0.00    +0.034 C 
ATOM     23  C   UNL     1      44.702  20.072  19.225  0.00  0.00    -0.057 C 
ATOM     24  C   UNL     1      45.155  21.536  19.130  0.00  0.00    +0.034 C 
ATOM     25  C   UNL     1      43.442  19.902  18.381  0.00  0.00    +0.027 C 
ATOM     26  C   UNL     1      45.835  19.183  18.682  0.00  0.00    +0.060 C 
ATOM     27  O   UNL     1      45.722  15.462  19.054  0.00  0.00    -0.363 OA
ATOM     28  C   UNL     1      45.469  17.742  18.844  0.00  0.00    -0.011 C 
ATOM     29  C   UNL     1      48.622  15.440  18.502  0.00  0.00    -0.022 C 
ATOM     30  C   UNL     1      49.216  14.768  19.752  0.00  0.00    +0.020 C 
ATOM     31  C   UNL     1      49.808  15.889  17.642  0.00  0.00    +0.020 C 
ATOM     32  C   UNL     1      50.618  14.657  17.194  0.00  0.00    +0.012 C 
ATOM     33  C   UNL     1      49.727  13.771  16.335  0.00  0.00    +0.007 C 
ENDROOT
TORSDOF 0
ENDMDL
MODEL 5
REMARK VINA RESULT:      -6.4      3.050      7.457
REMARK  Name = ZINC95486072
REMARK  7 active torsions:
REMARK  status: ('A' for Active; 'I' for Inactive)
REMARK    1  A    between atoms: C1_1  and  C2_2
REMARK    2  A    between atoms: C6_7  and  C29_35
REMARK    3  A    between atoms: C6_7  and  C30_36
REMARK    4  A    between atoms: C10_12  and  C28_34
REMARK    5  A    between atoms: C15_18  and  C27_33
REMARK    6  A    between atoms: C21_25  and  C24_29
REMARK    7  A    between atoms: C21_25  and  C25_30
REMARK                            x       y       z     vdW  Elec       q    Type
REMARK                         _______ _______ _______ _____ _____    ______ ____
ROOT
ATOM      1  C   UNL     1      44.375  19.280  18.942  0.00  0.00    +0.029 C 
ATOM      2  C   UNL     1      45.376  18.893  20.021  0.00  0.00    -0.043 C 
ATOM      3  C   UNL     1      44.580  18.703  21.333  0.00  0.00    +0.036 C 
ATOM      4  C   UNL     1      43.792  19.979  21.627  0.00  0.00    +0.018 C 
ATOM      5  C   UNL     1      44.723  21.161  21.674  0.00  0.00    +0.369 C 
ATOM      6  C   UNL     1      45.885  21.301  20.721  0.00  0.00    -0.092 C 
ATOM      7  C   UNL     1      45.485  22.182  19.538  0.00  0.00    +0.055 C 
ATOM      8  C   UNL     1      47.003  22.048  21.489  0.00  0.00    +0.041 C 
ATOM      9  O   UNL     1      44.536  22.032  22.505  0.00  0.00    -0.464 OA
ATOM     10  C   UNL     1      46.058  17.550  19.704  0.00  0.00    +0.041 C 
ATOM     11  C   UNL     1      46.700  17.089  21.020  0.00  0.00    +0.010 C 
ATOM     12  C   UNL     1      47.468  15.789  20.852  0.00  0.00    +0.030 C 
ATOM     13  C   UNL     1      47.326  15.260  19.436  0.00  0.00    +0.141 C 
ATOM     14  C   UNL     1      47.805  16.265  18.400  0.00  0.00    -0.041 C 
ATOM     15  C   UNL     1      49.320  16.476  18.485  0.00  0.00    +0.033 C 
ATOM     16  C   UNL     1      47.448  15.710  17.010  0.00  0.00    +0.040 C 
ATOM     17  C   UNL     1      47.917  14.252  16.877  0.00  0.00    +0.034 C 
ATOM     18  C   UNL     1      47.288  13.423  17.993  0.00  0.00    -0.149 C 
ATOM     19  C   UNL     1      45.846  13.867  18.231  0.00  0.00    +0.218 C 
ATOM     20  C   UNL     1      47.546  11.967  17.830  0.00  0.00    +0.385 C 
ATOM     21  O   UNL     1      46.645  11.179  17.631  0.00  0.00    -0.448 OA
ATOM     22  C   UNL     1      48.996  11.517  17.926  0.00  0.00    +0.034 C 
ATOM     23  C   UNL     1      49.678  12.111  19.155  0.00  0.00    -0.057 C 
ATOM     24  C   UNL     1      51.192  11.909  19.007  0.00  0.00    +0.034 C 
ATOM     25  C   UNL     1      49.213  11.378  20.410  0.00  0.00    +0.027 C 
ATOM     26  C   UNL     1      49.406  13.621  19.285  0.00  0.00    +0.060 C 
ATOM     27  O   UNL     1      45.922  14.978  19.156  0.00  0.00    -0.363 OA
ATOM     28  C   UNL     1      47.932  13.867  19.336  0.00  0.00    -0.011 C 
ATOM     29  C   UNL     1      47.104  17.627  18.603  0.00  0.00    -0.022 C 
ATOM     30  C   UNL     1      46.476  18.021  17.255  0.00  0.00    +0.020 C 
ATOM     31  C   UNL     1      48.126  18.716  18.944  0.00  0.00    +0.020 C 
ATOM     32  C   UNL     1      47.403  20.065  19.120  0.00  0.00    +0.012 C 
ATOM     33  C   UNL     1      46.432  19.953  20.288  0.00  0.00    +0.007 C 
ENDROOT
TORSDOF 0
ENDMDL
MODEL 6
REMARK VINA RESULT:      -6.4      2.066      8.011
REMARK  Name = ZINC95486072
REMARK  7 active torsions:
REMARK  status: ('A' for Active; 'I' for Inactive)
REMARK    1  A    between atoms: C1_1  and  C2_2
REMARK    2  A    between atoms: C6_7  and  C29_35
REMARK    3  A    between atoms: C6_7  and  C30_36
REMARK    4  A    between atoms: C10_12  and  C28_34
REMARK    5  A    between atoms: C15_18  and  C27_33
REMARK    6  A    between atoms: C21_25  and  C24_29
REMARK    7  A    between atoms: C21_25  and  C25_30
REMARK                            x       y       z     vdW  Elec       q    Type
REMARK                         _______ _______ _______ _____ _____    ______ ____
ROOT
ATOM      1  C   UNL     1      46.123  20.157  20.249  0.00  0.00    +0.029 C 
ATOM      2  C   UNL     1      45.476  18.905  19.672  0.00  0.00    -0.043 C 
ATOM      3  C   UNL     1      44.587  19.356  18.490  0.00  0.00    +0.036 C 
ATOM      4  C   UNL     1      43.598  20.410  18.984  0.00  0.00    +0.018 C 
ATOM      5  C   UNL     1      42.801  19.868  20.140  0.00  0.00    +0.369 C 
ATOM      6  C   UNL     1      43.426  18.992  21.200  0.00  0.00    -0.092 C 
ATOM      7  C   UNL     1      43.829  19.841  22.406  0.00  0.00    +0.055 C 
ATOM      8  C   UNL     1      42.323  18.016  21.677  0.00  0.00    +0.041 C 
ATOM      9  O   UNL     1      41.617  20.142  20.226  0.00  0.00    -0.464 OA
ATOM     10  C   UNL     1      46.530  17.936  19.106  0.00  0.00    +0.041 C 
ATOM     11  C   UNL     1      45.755  16.957  18.213  0.00  0.00    +0.010 C 
ATOM     12  C   UNL     1      46.662  15.891  17.620  0.00  0.00    +0.030 C 
ATOM     13  C   UNL     1      48.106  16.133  18.016  0.00  0.00    +0.141 C 
ATOM     14  C   UNL     1      48.287  16.165  19.526  0.00  0.00    -0.041 C 
ATOM     15  C   UNL     1      48.038  14.786  20.147  0.00  0.00    +0.033 C 
ATOM     16  C   UNL     1      49.736  16.596  19.815  0.00  0.00    +0.040 C 
ATOM     17  C   UNL     1      50.722  15.759  18.983  0.00  0.00    +0.034 C 
ATOM     18  C   UNL     1      50.375  15.906  17.505  0.00  0.00    -0.149 C 
ATOM     19  C   UNL     1      49.964  17.344  17.199  0.00  0.00    +0.218 C 
ATOM     20  C   UNL     1      51.391  15.272  16.621  0.00  0.00    +0.385 C 
ATOM     21  O   UNL     1      52.063  15.928  15.854  0.00  0.00    -0.448 OA
ATOM     22  C   UNL     1      51.542  13.763  16.729  0.00  0.00    +0.034 C 
ATOM     23  C   UNL     1      50.186  13.067  16.674  0.00  0.00    -0.057 C 
ATOM     24  C   UNL     1      50.374  11.613  17.129  0.00  0.00    +0.034 C 
ATOM     25  C   UNL     1      49.664  13.060  15.240  0.00  0.00    +0.027 C 
ATOM     26  C   UNL     1      49.163  13.734  17.612  0.00  0.00    +0.060 C 
ATOM     27  O   UNL     1      48.549  17.422  17.496  0.00  0.00    -0.363 OA
ATOM     28  C   UNL     1      49.022  15.180  17.260  0.00  0.00    -0.011 C 
ATOM     29  C   UNL     1      47.314  17.178  20.167  0.00  0.00    -0.022 C 
ATOM     30  C   UNL     1      48.153  18.131  21.034  0.00  0.00    +0.020 C 
ATOM     31  C   UNL     1      46.339  16.470  21.113  0.00  0.00    +0.020 C 
ATOM     32  C   UNL     1      45.394  17.505  21.753  0.00  0.00    +0.012 C 
ATOM     33  C   UNL     1      44.578  18.170  20.652  0.00  0.00    +0.007 C 
ENDROOT
TORSDOF 0
ENDMDL
MODEL 7
REMARK VINA RESULT:      -6.3      2.741      7.494
REMARK  Name = ZINC95486072
REMARK  7 active torsions:
REMARK  status: ('A' for Active; 'I' for Inactive)
REMARK    1  A    between atoms: C1_1  and  C2_2
REMARK    2  A    between atoms: C6_7  and  C29_35
REMARK    3  A    between atoms: C6_7  and  C30_36
REMARK    4  A    between atoms: C10_12  and  C28_34
REMARK    5  A    between atoms: C15_18  and  C27_33
REMARK    6  A    between atoms: C21_25  and  C24_29
REMARK    7  A    between atoms: C21_25  and  C25_30
REMARK                            x       y       z     vdW  Elec       q    Type
REMARK                         _______ _______ _______ _____ _____    ______ ____
ROOT
ATOM      1  C   UNL     1      48.020  20.425  19.840  0.00  0.00    +0.029 C 
ATOM      2  C   UNL     1      46.824  19.538  19.523  0.00  0.00    -0.043 C 
ATOM      3  C   UNL     1      46.039  20.223  18.381  0.00  0.00    +0.036 C 
ATOM      4  C   UNL     1      45.679  21.646  18.806  0.00  0.00    +0.018 C 
ATOM      5  C   UNL     1      44.916  21.617  20.104  0.00  0.00    +0.369 C 
ATOM      6  C   UNL     1      45.266  20.658  21.216  0.00  0.00    -0.092 C 
ATOM      7  C   UNL     1      46.171  21.350  22.235  0.00  0.00    +0.055 C 
ATOM      8  C   UNL     1      43.942  20.315  21.941  0.00  0.00    +0.041 C 
ATOM      9  O   UNL     1      43.989  22.391  20.265  0.00  0.00    -0.464 OA
ATOM     10  C   UNL     1      47.266  18.156  19.007  0.00  0.00    +0.041 C 
ATOM     11  C   UNL     1      46.022  17.541  18.353  0.00  0.00    +0.010 C 
ATOM     12  C   UNL     1      46.288  16.135  17.839  0.00  0.00    +0.030 C 
ATOM     13  C   UNL     1      47.741  15.752  18.050  0.00  0.00    +0.141 C 
ATOM     14  C   UNL     1      48.149  15.840  19.513  0.00  0.00    -0.041 C 
ATOM     15  C   UNL     1      47.439  14.775  20.355  0.00  0.00    +0.033 C 
ATOM     16  C   UNL     1      49.669  15.615  19.589  0.00  0.00    +0.040 C 
ATOM     17  C   UNL     1      50.066  14.357  18.798  0.00  0.00    +0.034 C 
ATOM     18  C   UNL     1      49.591  14.504  17.357  0.00  0.00    -0.149 C 
ATOM     19  C   UNL     1      49.786  15.942  16.880  0.00  0.00    +0.218 C 
ATOM     20  C   UNL     1      50.093  13.410  16.481  0.00  0.00    +0.385 C 
ATOM     21  O   UNL     1      50.853  13.630  15.562  0.00  0.00    -0.448 OA
ATOM     22  C   UNL     1      49.605  12.005  16.799  0.00  0.00    +0.034 C 
ATOM     23  C   UNL     1      48.091  11.975  16.984  0.00  0.00    -0.057 C 
ATOM     24  C   UNL     1      47.713  10.635  17.631  0.00  0.00    +0.034 C 
ATOM     25  C   UNL     1      47.401  12.067  15.626  0.00  0.00    +0.027 C 
ATOM     26  C   UNL     1      47.606  13.107  17.908  0.00  0.00    +0.060 C 
ATOM     27  O   UNL     1      48.602  16.662  17.301  0.00  0.00    -0.363 OA
ATOM     28  C   UNL     1      48.038  14.429  17.358  0.00  0.00    -0.011 C 
ATOM     29  C   UNL     1      47.809  17.232  20.087  0.00  0.00    -0.022 C 
ATOM     30  C   UNL     1      49.095  17.794  20.714  0.00  0.00    +0.020 C 
ATOM     31  C   UNL     1      46.785  17.115  21.221  0.00  0.00    +0.020 C 
ATOM     32  C   UNL     1      46.479  18.515  21.788  0.00  0.00    +0.012 C 
ATOM     33  C   UNL     1      45.862  19.366  20.687  0.00  0.00    +0.007 C 
ENDROOT
TORSDOF 0
ENDMDL
MODEL 8
REMARK VINA RESULT:      -6.3      1.654      7.926
REMARK  Name = ZINC95486072
REMARK  7 active torsions:
REMARK  status: ('A' for Active; 'I' for Inactive)
REMARK    1  A    between atoms: C1_1  and  C2_2
REMARK    2  A    between atoms: C6_7  and  C29_35
REMARK    3  A    between atoms: C6_7  and  C30_36
REMARK    4  A    between atoms: C10_12  and  C28_34
REMARK    5  A    between atoms: C15_18  and  C27_33
REMARK    6  A    between atoms: C21_25  and  C24_29
REMARK    7  A    between atoms: C21_25  and  C25_30
REMARK                            x       y       z     vdW  Elec       q    Type
REMARK                         _______ _______ _______ _____ _____    ______ ____
ROOT
ATOM      1  C   UNL     1      44.766  21.303  20.800  0.00  0.00    +0.029 C 
ATOM      2  C   UNL     1      44.848  19.939  20.129  0.00  0.00    -0.043 C 
ATOM      3  C   UNL     1      44.068  20.039  18.797  0.00  0.00    +0.036 C 
ATOM      4  C   UNL     1      42.647  20.519  19.087  0.00  0.00    +0.018 C 
ATOM      5  C   UNL     1      41.987  19.604  20.083  0.00  0.00    +0.369 C 
ATOM      6  C   UNL     1      42.742  19.016  21.251  0.00  0.00    -0.092 C 
ATOM      7  C   UNL     1      42.516  19.868  22.500  0.00  0.00    +0.055 C 
ATOM      8  C   UNL     1      42.119  17.625  21.529  0.00  0.00    +0.041 C 
ATOM      9  O   UNL     1      40.808  19.328  19.946  0.00  0.00    -0.464 OA
ATOM     10  C   UNL     1      46.300  19.567  19.778  0.00  0.00    +0.041 C 
ATOM     11  C   UNL     1      46.202  18.414  18.771  0.00  0.00    +0.010 C 
ATOM     12  C   UNL     1      47.573  17.894  18.368  0.00  0.00    +0.030 C 
ATOM     13  C   UNL     1      48.671  18.713  19.021  0.00  0.00    +0.141 C 
ATOM     14  C   UNL     1      48.558  18.714  20.538  0.00  0.00    -0.041 C 
ATOM     15  C   UNL     1      48.840  17.325  21.120  0.00  0.00    +0.033 C 
ATOM     16  C   UNL     1      49.594  19.712  21.084  0.00  0.00    +0.040 C 
ATOM     17  C   UNL     1      50.974  19.449  20.458  0.00  0.00    +0.034 C 
ATOM     18  C   UNL     1      50.857  19.533  18.940  0.00  0.00    -0.149 C 
ATOM     19  C   UNL     1      49.913  20.666  18.545  0.00  0.00    +0.218 C 
ATOM     20  C   UNL     1      52.182  19.470  18.266  0.00  0.00    +0.385 C 
ATOM     21  O   UNL     1      52.617  20.405  17.628  0.00  0.00    -0.448 OA
ATOM     22  C   UNL     1      52.963  18.174  18.419  0.00  0.00    +0.034 C 
ATOM     23  C   UNL     1      52.084  16.962  18.124  0.00  0.00    -0.057 C 
ATOM     24  C   UNL     1      52.814  15.707  18.624  0.00  0.00    +0.034 C 
ATOM     25  C   UNL     1      51.873  16.829  16.618  0.00  0.00    +0.027 C 
ATOM     26  C   UNL     1      50.729  17.049  18.849  0.00  0.00    +0.060 C 
ATOM     27  O   UNL     1      48.581  20.099  18.575  0.00  0.00    -0.363 OA
ATOM     28  C   UNL     1      50.027  18.310  18.458  0.00  0.00    -0.011 C 
ATOM     29  C   UNL     1      47.144  19.154  20.975  0.00  0.00    -0.022 C 
ATOM     30  C   UNL     1      47.315  20.314  21.971  0.00  0.00    +0.020 C 
ATOM     31  C   UNL     1      46.436  18.028  21.734  0.00  0.00    +0.020 C 
ATOM     32  C   UNL     1      45.037  18.500  22.176  0.00  0.00    +0.012 C 
ATOM     33  C   UNL     1      44.213  18.819  20.936  0.00  0.00    +0.007 C 
ENDROOT
TORSDOF 0
ENDMDL
MODEL 9
REMARK VINA RESULT:      -6.0      2.230      4.303
REMARK  Name = ZINC95486072
REMARK  7 active torsions:
REMARK  status: ('A' for Active; 'I' for Inactive)
REMARK    1  A    between atoms: C1_1  and  C2_2
REMARK    2  A    between atoms: C6_7  and  C29_35
REMARK    3  A    between atoms: C6_7  and  C30_36
REMARK    4  A    between atoms: C10_12  and  C28_34
REMARK    5  A    between atoms: C15_18  and  C27_33
REMARK    6  A    between atoms: C21_25  and  C24_29
REMARK    7  A    between atoms: C21_25  and  C25_30
REMARK                            x       y       z     vdW  Elec       q    Type
REMARK                         _______ _______ _______ _____ _____    ______ ____
ROOT
ATOM      1  C   UNL     1      51.173  16.603  17.754  0.00  0.00    +0.029 C 
ATOM      2  C   UNL     1      50.519  16.181  19.062  0.00  0.00    -0.043 C 
ATOM      3  C   UNL     1      51.499  16.549  20.201  0.00  0.00    +0.036 C 
ATOM      4  C   UNL     1      52.851  15.893  19.927  0.00  0.00    +0.018 C 
ATOM      5  C   UNL     1      52.678  14.406  19.763  0.00  0.00    +0.369 C 
ATOM      6  C   UNL     1      51.492  13.815  19.040  0.00  0.00    -0.092 C 
ATOM      7  C   UNL     1      51.862  13.520  17.587  0.00  0.00    +0.055 C 
ATOM      8  C   UNL     1      51.190  12.456  19.719  0.00  0.00    +0.041 C 
ATOM      9  O   UNL     1      53.519  13.656  20.226  0.00  0.00    -0.464 OA
ATOM     10  C   UNL     1      49.213  16.956  19.317  0.00  0.00    +0.041 C 
ATOM     11  C   UNL     1      48.892  16.751  20.804  0.00  0.00    +0.010 C 
ATOM     12  C   UNL     1      47.585  17.417  21.199  0.00  0.00    +0.030 C 
ATOM     13  C   UNL     1      46.989  18.170  20.024  0.00  0.00    +0.141 C 
ATOM     14  C   UNL     1      46.750  17.264  18.826  0.00  0.00    -0.041 C 
ATOM     15  C   UNL     1      45.646  16.241  19.111  0.00  0.00    +0.033 C 
ATOM     16  C   UNL     1      46.325  18.153  17.644  0.00  0.00    +0.040 C 
ATOM     17  C   UNL     1      45.196  19.107  18.069  0.00  0.00    +0.034 C 
ATOM     18  C   UNL     1      45.668  19.938  19.257  0.00  0.00    -0.149 C 
ATOM     19  C   UNL     1      47.133  20.331  19.079  0.00  0.00    +0.218 C 
ATOM     20  C   UNL     1      44.702  21.012  19.616  0.00  0.00    +0.385 C 
ATOM     21  O   UNL     1      44.991  22.187  19.518  0.00  0.00    -0.448 OA
ATOM     22  C   UNL     1      43.336  20.563  20.109  0.00  0.00    +0.034 C 
ATOM     23  C   UNL     1      43.463  19.491  21.186  0.00  0.00    -0.057 C 
ATOM     24  C   UNL     1      42.085  18.845  21.386  0.00  0.00    +0.034 C 
ATOM     25  C   UNL     1      43.892  20.129  22.504  0.00  0.00    +0.027 C 
ATOM     26  C   UNL     1      44.455  18.386  20.778  0.00  0.00    +0.060 C 
ATOM     27  O   UNL     1      47.906  19.223  19.600  0.00  0.00    -0.363 OA
ATOM     28  C   UNL     1      45.791  18.990  20.483  0.00  0.00    -0.011 C 
ATOM     29  C   UNL     1      48.043  16.505  18.456  0.00  0.00    -0.022 C 
ATOM     30  C   UNL     1      48.311  16.761  16.963  0.00  0.00    +0.020 C 
ATOM     31  C   UNL     1      47.847  14.993  18.611  0.00  0.00    +0.020 C 
ATOM     32  C   UNL     1      49.144  14.261  18.216  0.00  0.00    +0.012 C 
ATOM     33  C   UNL     1      50.257  14.688  19.163  0.00  0.00    +0.007 C 
ENDROOT
TORSDOF 0
ENDMDL
