MODEL 1
REMARK VINA RESULT:      -6.9      0.000      0.000
REMARK  Name = ZINC06050191
REMARK  3 active torsions:
REMARK  status: ('A' for Active; 'I' for Inactive)
REMARK    1  A    between atoms: C1_1  and  C2_2
REMARK    2  A    between atoms: C2_2  and  C20_26
REMARK    3  A    between atoms: C18_22  and  O3_24
REMARK                            x       y       z     vdW  Elec       q    Type
REMARK                         _______ _______ _______ _____ _____    ______ ____
ROOT
ATOM      1  C   UNL     1      48.019  14.839  22.020  0.00  0.00    +0.035 C 
ATOM      2  C   UNL     1      47.508  14.173  20.740  0.00  0.00    +0.147 C 
ATOM      3  C   UNL     1      48.122  12.778  20.620  0.00  0.00    +0.083 C 
ATOM      4  C   UNL     1      46.009  14.051  20.810  0.00  0.00    -0.051 C 
ATOM      5  C   UNL     1      45.239  15.039  20.358  0.00  0.00    +0.049 C 
ATOM      6  C   UNL     1      45.896  16.218  19.764  0.00  0.00    -0.142 A 
ATOM      7  C   UNL     1      47.254  16.135  19.411  0.00  0.00    +0.169 A 
ATOM      8  C   UNL     1      47.911  17.219  18.861  0.00  0.00    -0.032 A 
ATOM      9  C   UNL     1      47.252  18.420  18.621  0.00  0.00    +0.120 A 
ATOM     10  C   UNL     1      45.914  18.501  18.946  0.00  0.00    -0.184 A 
ATOM     11  C   UNL     1      44.907  19.581  18.819  0.00  0.00    -0.013 C 
ATOM     12  C   UNL     1      45.295  21.013  19.088  0.00  0.00    +0.278 C 
ATOM     13  O   UNL     1      44.110  21.796  19.273  0.00  0.00    -0.322 OA
ATOM     14  C   UNL     1      42.871  21.248  19.241  0.00  0.00    +0.161 A 
ATOM     15  C   UNL     1      42.667  19.910  19.610  0.00  0.00    -0.169 A 
ATOM     16  C   UNL     1      41.414  19.359  19.617  0.00  0.00    +0.092 A 
ATOM     17  C   UNL     1      40.322  20.124  19.239  0.00  0.00    -0.036 A 
ATOM     18  C   UNL     1      40.508  21.445  18.855  0.00  0.00    +0.148 A 
ATOM     21  C   UNL     1      41.777  22.002  18.850  0.00  0.00    -0.033 A 
ATOM     22  C   UNL     1      43.913  19.163  19.956  0.00  0.00    +0.226 C 
ATOM     23  O   UNL     1      43.932  17.749  19.804  0.00  0.00    -0.274 OA
ATOM     24  C   UNL     1      45.224  17.415  19.528  0.00  0.00    +0.146 A 
ATOM     25  O   UNL     1      47.902  14.957  19.614  0.00  0.00    -0.301 OA
ENDROOT
BRANCH  18  19
ATOM     19  O   UNL     1      39.439  22.193  18.474  0.00  0.00    -0.495 OA
ATOM     20  H   UNL     1      39.132  22.812  19.151  0.00  0.00    +0.397 HD
ENDBRANCH  18  19
TORSDOF 1
ENDMDL
MODEL 2
REMARK VINA RESULT:      -6.9      1.682      2.130
REMARK  Name = ZINC06050191
REMARK  3 active torsions:
REMARK  status: ('A' for Active; 'I' for Inactive)
REMARK    1  A    between atoms: C1_1  and  C2_2
REMARK    2  A    between atoms: C2_2  and  C20_26
REMARK    3  A    between atoms: C18_22  and  O3_24
REMARK                            x       y       z     vdW  Elec       q    Type
REMARK                         _______ _______ _______ _____ _____    ______ ____
ROOT
ATOM      1  C   UNL     1      49.539  16.636  21.304  0.00  0.00    +0.035 C 
ATOM      2  C   UNL     1      49.495  16.370  19.798  0.00  0.00    +0.147 C 
ATOM      3  C   UNL     1      50.587  15.363  19.434  0.00  0.00    +0.083 C 
ATOM      4  C   UNL     1      48.150  15.797  19.436  0.00  0.00    -0.051 C 
ATOM      5  C   UNL     1      47.146  16.610  19.113  0.00  0.00    +0.049 C 
ATOM      6  C   UNL     1      47.404  18.060  19.089  0.00  0.00    -0.142 A 
ATOM      7  C   UNL     1      48.734  18.515  19.093  0.00  0.00    +0.169 A 
ATOM      8  C   UNL     1      49.022  19.867  19.080  0.00  0.00    -0.032 A 
ATOM      9  C   UNL     1      48.010  20.822  19.044  0.00  0.00    +0.120 A 
ATOM     10  C   UNL     1      46.704  20.382  19.019  0.00  0.00    -0.184 A 
ATOM     11  C   UNL     1      45.401  21.086  18.961  0.00  0.00    -0.013 C 
ATOM     12  C   UNL     1      45.197  22.365  19.734  0.00  0.00    +0.278 C 
ATOM     13  O   UNL     1      43.794  22.640  19.828  0.00  0.00    -0.322 OA
ATOM     14  C   UNL     1      42.859  21.805  19.313  0.00  0.00    +0.161 A 
ATOM     15  C   UNL     1      43.107  20.429  19.203  0.00  0.00    -0.169 A 
ATOM     16  C   UNL     1      42.155  19.573  18.720  0.00  0.00    +0.092 A 
ATOM     17  C   UNL     1      40.925  20.067  18.315  0.00  0.00    -0.036 A 
ATOM     18  C   UNL     1      40.669  21.428  18.402  0.00  0.00    +0.148 A 
ATOM     21  C   UNL     1      41.633  22.294  18.893  0.00  0.00    -0.033 A 
ATOM     22  C   UNL     1      44.477  20.007  19.623  0.00  0.00    +0.226 C 
ATOM     23  O   UNL     1      45.033  18.821  19.068  0.00  0.00    -0.274 OA
ATOM     24  C   UNL     1      46.382  19.007  19.052  0.00  0.00    +0.146 A 
ATOM     25  O   UNL     1      49.731  17.591  19.099  0.00  0.00    -0.301 OA
ENDROOT
BRANCH  18  19
ATOM     19  O   UNL     1      39.467  21.915  17.996  0.00  0.00    -0.495 OA
ATOM     20  H   UNL     1      39.227  22.759  18.403  0.00  0.00    +0.397 HD
ENDBRANCH  18  19
TORSDOF 1
ENDMDL
MODEL 3
REMARK VINA RESULT:      -6.4      2.454      3.707
REMARK  Name = ZINC06050191
REMARK  3 active torsions:
REMARK  status: ('A' for Active; 'I' for Inactive)
REMARK    1  A    between atoms: C1_1  and  C2_2
REMARK    2  A    between atoms: C2_2  and  C20_26
REMARK    3  A    between atoms: C18_22  and  O3_24
REMARK                            x       y       z     vdW  Elec       q    Type
REMARK                         _______ _______ _______ _____ _____    ______ ____
ROOT
ATOM      1  C   UNL     1      44.984  12.308  17.171  0.00  0.00    +0.035 C 
ATOM      2  C   UNL     1      46.435  12.562  17.585  0.00  0.00    +0.147 C 
ATOM      3  C   UNL     1      47.289  11.357  17.188  0.00  0.00    +0.083 C 
ATOM      4  C   UNL     1      46.945  13.787  16.873  0.00  0.00    -0.051 C 
ATOM      5  C   UNL     1      46.794  14.990  17.426  0.00  0.00    +0.049 C 
ATOM      6  C   UNL     1      46.153  15.071  18.751  0.00  0.00    -0.142 A 
ATOM      7  C   UNL     1      46.013  13.898  19.513  0.00  0.00    +0.169 A 
ATOM      8  C   UNL     1      45.410  13.927  20.756  0.00  0.00    -0.032 A 
ATOM      9  C   UNL     1      44.938  15.115  21.304  0.00  0.00    +0.120 A 
ATOM     10  C   UNL     1      45.091  16.273  20.571  0.00  0.00    -0.184 A 
ATOM     11  C   UNL     1      44.740  17.689  20.832  0.00  0.00    -0.013 C 
ATOM     12  C   UNL     1      43.450  18.031  21.533  0.00  0.00    +0.278 C 
ATOM     13  O   UNL     1      43.158  19.420  21.333  0.00  0.00    -0.322 OA
ATOM     14  C   UNL     1      43.949  20.221  20.579  0.00  0.00    +0.161 A 
ATOM     15  C   UNL     1      44.702  19.696  19.519  0.00  0.00    -0.169 A 
ATOM     16  C   UNL     1      45.474  20.504  18.728  0.00  0.00    +0.092 A 
ATOM     17  C   UNL     1      45.531  21.865  18.981  0.00  0.00    -0.036 A 
ATOM     18  C   UNL     1      44.804  22.399  20.036  0.00  0.00    +0.148 A 
ATOM     21  C   UNL     1      44.022  21.581  20.835  0.00  0.00    -0.033 A 
ATOM     22  C   UNL     1      44.606  18.214  19.361  0.00  0.00    +0.226 C 
ATOM     23  O   UNL     1      45.681  17.516  18.744  0.00  0.00    -0.274 OA
ATOM     24  C   UNL     1      45.686  16.268  19.290  0.00  0.00    +0.146 A 
ATOM     25  O   UNL     1      46.496  12.735  19.000  0.00  0.00    -0.301 OA
ENDROOT
BRANCH  18  19
ATOM     19  O   UNL     1      44.866  23.733  20.290  0.00  0.00    -0.495 OA
ATOM     20  H   UNL     1      44.023  24.121  20.559  0.00  0.00    +0.397 HD
ENDBRANCH  18  19
TORSDOF 1
ENDMDL
MODEL 4
REMARK VINA RESULT:      -6.1      4.770      7.330
REMARK  Name = ZINC06050191
REMARK  3 active torsions:
REMARK  status: ('A' for Active; 'I' for Inactive)
REMARK    1  A    between atoms: C1_1  and  C2_2
REMARK    2  A    between atoms: C2_2  and  C20_26
REMARK    3  A    between atoms: C18_22  and  O3_24
REMARK                            x       y       z     vdW  Elec       q    Type
REMARK                         _______ _______ _______ _____ _____    ______ ____
ROOT
ATOM      1  C   UNL     1      47.802  12.532  14.248  0.00  0.00    +0.035 C 
ATOM      2  C   UNL     1      48.773  11.909  15.253  0.00  0.00    +0.147 C 
ATOM      3  C   UNL     1      48.891  10.410  14.975  0.00  0.00    +0.083 C 
ATOM      4  C   UNL     1      50.126  12.551  15.095  0.00  0.00    -0.051 C 
ATOM      5  C   UNL     1      50.430  13.644  15.793  0.00  0.00    +0.049 C 
ATOM      6  C   UNL     1      49.425  14.171  16.733  0.00  0.00    -0.142 A 
ATOM      7  C   UNL     1      48.337  13.357  17.095  0.00  0.00    +0.169 A 
ATOM      8  C   UNL     1      47.367  13.814  17.966  0.00  0.00    -0.032 A 
ATOM      9  C   UNL     1      47.440  15.085  18.528  0.00  0.00    +0.120 A 
ATOM     10  C   UNL     1      48.515  15.881  18.193  0.00  0.00    -0.184 A 
ATOM     11  C   UNL     1      48.927  17.245  18.599  0.00  0.00    -0.013 C 
ATOM     12  C   UNL     1      47.891  18.326  18.783  0.00  0.00    +0.278 C 
ATOM     13  O   UNL     1      48.539  19.603  18.796  0.00  0.00    -0.322 OA
ATOM     14  C   UNL     1      49.876  19.736  18.619  0.00  0.00    +0.161 A 
ATOM     15  C   UNL     1      50.597  18.801  17.861  0.00  0.00    -0.169 A 
ATOM     16  C   UNL     1      51.941  18.948  17.645  0.00  0.00    +0.092 A 
ATOM     17  C   UNL     1      52.613  20.027  18.195  0.00  0.00    -0.036 A 
ATOM     18  C   UNL     1      51.919  20.953  18.960  0.00  0.00    +0.148 A 
ATOM     21  C   UNL     1      50.558  20.805  19.177  0.00  0.00    -0.033 A 
ATOM     22  C   UNL     1      49.787  17.653  17.354  0.00  0.00    +0.226 C 
ATOM     23  O   UNL     1      50.439  16.419  17.080  0.00  0.00    -0.274 OA
ATOM     24  C   UNL     1      49.509  15.445  17.291  0.00  0.00    +0.146 A 
ATOM     25  O   UNL     1      48.270  12.103  16.574  0.00  0.00    -0.301 OA
ENDROOT
BRANCH  18  19
ATOM     19  O   UNL     1      52.579  22.007  19.507  0.00  0.00    -0.495 OA
ATOM     20  H   UNL     1      53.042  22.559  18.862  0.00  0.00    +0.397 HD
ENDBRANCH  18  19
TORSDOF 1
ENDMDL
MODEL 5
REMARK VINA RESULT:      -6.0      2.994      3.974
REMARK  Name = ZINC06050191
REMARK  3 active torsions:
REMARK  status: ('A' for Active; 'I' for Inactive)
REMARK    1  A    between atoms: C1_1  and  C2_2
REMARK    2  A    between atoms: C2_2  and  C20_26
REMARK    3  A    between atoms: C18_22  and  O3_24
REMARK                            x       y       z     vdW  Elec       q    Type
REMARK                         _______ _______ _______ _____ _____    ______ ____
ROOT
ATOM      1  C   UNL     1      50.676  14.189  18.512  0.00  0.00    +0.035 C 
ATOM      2  C   UNL     1      50.401  14.662  17.083  0.00  0.00    +0.147 C 
ATOM      3  C   UNL     1      50.982  13.647  16.098  0.00  0.00    +0.083 C 
ATOM      4  C   UNL     1      48.913  14.761  16.873  0.00  0.00    -0.051 C 
ATOM      5  C   UNL     1      48.276  15.897  17.151  0.00  0.00    +0.049 C 
ATOM      6  C   UNL     1      49.071  17.042  17.629  0.00  0.00    -0.142 A 
ATOM      7  C   UNL     1      50.468  17.011  17.479  0.00  0.00    +0.169 A 
ATOM      8  C   UNL     1      51.253  18.059  17.922  0.00  0.00    -0.032 A 
ATOM      9  C   UNL     1      50.690  19.186  18.512  0.00  0.00    +0.120 A 
ATOM     10  C   UNL     1      49.318  19.232  18.643  0.00  0.00    -0.184 A 
ATOM     11  C   UNL     1      48.389  20.250  19.187  0.00  0.00    -0.013 C 
ATOM     12  C   UNL     1      48.763  21.033  20.420  0.00  0.00    +0.278 C 
ATOM     13  O   UNL     1      47.589  21.653  20.958  0.00  0.00    -0.322 OA
ATOM     14  C   UNL     1      46.363  21.477  20.409  0.00  0.00    +0.161 A 
ATOM     15  C   UNL     1      46.050  20.298  19.715  0.00  0.00    -0.169 A 
ATOM     16  C   UNL     1      44.802  20.095  19.190  0.00  0.00    +0.092 A 
ATOM     17  C   UNL     1      43.828  21.071  19.327  0.00  0.00    -0.036 A 
ATOM     18  C   UNL     1      44.126  22.249  19.997  0.00  0.00    +0.148 A 
ATOM     21  C   UNL     1      45.388  22.454  20.530  0.00  0.00    -0.033 A 
ATOM     22  C   UNL     1      47.182  19.333  19.585  0.00  0.00    +0.226 C 
ATOM     23  O   UNL     1      47.185  18.420  18.494  0.00  0.00    -0.274 OA
ATOM     24  C   UNL     1      48.495  18.166  18.217  0.00  0.00    +0.146 A 
ATOM     25  O   UNL     1      51.028  15.927  16.878  0.00  0.00    -0.301 OA
ENDROOT
BRANCH  18  19
ATOM     19  O   UNL     1      43.175  23.211  20.124  0.00  0.00    -0.495 OA
ATOM     20  H   UNL     1      42.496  23.009  20.783  0.00  0.00    +0.397 HD
ENDBRANCH  18  19
TORSDOF 1
ENDMDL
MODEL 6
REMARK VINA RESULT:      -5.9      1.933      2.736
REMARK  Name = ZINC06050191
REMARK  3 active torsions:
REMARK  status: ('A' for Active; 'I' for Inactive)
REMARK    1  A    between atoms: C1_1  and  C2_2
REMARK    2  A    between atoms: C2_2  and  C20_26
REMARK    3  A    between atoms: C18_22  and  O3_24
REMARK                            x       y       z     vdW  Elec       q    Type
REMARK                         _______ _______ _______ _____ _____    ______ ____
ROOT
ATOM      1  C   UNL     1      48.299  12.507  19.661  0.00  0.00    +0.035 C 
ATOM      2  C   UNL     1      47.509  12.504  18.351  0.00  0.00    +0.147 C 
ATOM      3  C   UNL     1      47.536  11.097  17.751  0.00  0.00    +0.083 C 
ATOM      4  C   UNL     1      46.083  12.897  18.632  0.00  0.00    -0.051 C 
ATOM      5  C   UNL     1      45.728  14.180  18.602  0.00  0.00    +0.049 C 
ATOM      6  C   UNL     1      46.756  15.179  18.257  0.00  0.00    -0.142 A 
ATOM      7  C   UNL     1      47.959  14.744  17.674  0.00  0.00    +0.169 A 
ATOM      8  C   UNL     1      48.953  15.645  17.343  0.00  0.00    -0.032 A 
ATOM      9  C   UNL     1      48.792  17.011  17.556  0.00  0.00    +0.120 A 
ATOM     10  C   UNL     1      47.606  17.446  18.107  0.00  0.00    -0.184 A 
ATOM     11  C   UNL     1      47.084  18.789  18.451  0.00  0.00    -0.013 C 
ATOM     12  C   UNL     1      48.003  19.832  19.035  0.00  0.00    +0.278 C 
ATOM     13  O   UNL     1      47.218  20.877  19.623  0.00  0.00    -0.322 OA
ATOM     14  C   UNL     1      45.864  20.836  19.646  0.00  0.00    +0.161 A 
ATOM     15  C   UNL     1      45.183  19.610  19.662  0.00  0.00    -0.169 A 
ATOM     16  C   UNL     1      43.816  19.559  19.724  0.00  0.00    +0.092 A 
ATOM     17  C   UNL     1      43.083  20.734  19.757  0.00  0.00    -0.036 A 
ATOM     18  C   UNL     1      43.741  21.956  19.726  0.00  0.00    +0.148 A 
ATOM     21  C   UNL     1      45.124  22.007  19.665  0.00  0.00    -0.033 A 
ATOM     22  C   UNL     1      46.063  18.407  19.578  0.00  0.00    +0.226 C 
ATOM     23  O   UNL     1      45.532  17.202  19.040  0.00  0.00    -0.274 OA
ATOM     24  C   UNL     1      46.582  16.544  18.473  0.00  0.00    +0.146 A 
ATOM     25  O   UNL     1      48.116  13.415  17.435  0.00  0.00    -0.301 OA
ENDROOT
BRANCH  18  19
ATOM     19  O   UNL     1      43.022  23.109  19.748  0.00  0.00    -0.495 OA
ATOM     20  H   UNL     1      42.916  23.523  18.881  0.00  0.00    +0.397 HD
ENDBRANCH  18  19
TORSDOF 1
ENDMDL
MODEL 7
REMARK VINA RESULT:      -5.8      3.328      4.216
REMARK  Name = ZINC06050191
REMARK  3 active torsions:
REMARK  status: ('A' for Active; 'I' for Inactive)
REMARK    1  A    between atoms: C1_1  and  C2_2
REMARK    2  A    between atoms: C2_2  and  C20_26
REMARK    3  A    between atoms: C18_22  and  O3_24
REMARK                            x       y       z     vdW  Elec       q    Type
REMARK                         _______ _______ _______ _____ _____    ______ ____
ROOT
ATOM      1  C   UNL     1      48.009  13.655  18.226  0.00  0.00    +0.035 C 
ATOM      2  C   UNL     1      48.015  14.392  16.885  0.00  0.00    +0.147 C 
ATOM      3  C   UNL     1      48.125  13.372  15.751  0.00  0.00    +0.083 C 
ATOM      4  C   UNL     1      46.728  15.160  16.737  0.00  0.00    -0.051 C 
ATOM      5  C   UNL     1      46.643  16.410  17.189  0.00  0.00    +0.049 C 
ATOM      6  C   UNL     1      47.844  17.014  17.795  0.00  0.00    -0.142 A 
ATOM      7  C   UNL     1      49.090  16.395  17.598  0.00  0.00    +0.169 A 
ATOM      8  C   UNL     1      50.240  16.922  18.156  0.00  0.00    -0.032 A 
ATOM      9  C   UNL     1      50.208  18.089  18.913  0.00  0.00    +0.120 A 
ATOM     10  C   UNL     1      48.991  18.712  19.093  0.00  0.00    -0.184 A 
ATOM     11  C   UNL     1      48.584  19.948  19.801  0.00  0.00    -0.013 C 
ATOM     12  C   UNL     1      49.222  20.311  21.118  0.00  0.00    +0.278 C 
ATOM     13  O   UNL     1      48.421  21.301  21.774  0.00  0.00    -0.322 OA
ATOM     14  C   UNL     1      47.260  21.756  21.245  0.00  0.00    +0.161 A 
ATOM     15  C   UNL     1      46.486  20.942  20.405  0.00  0.00    -0.169 A 
ATOM     16  C   UNL     1      45.292  21.379  19.897  0.00  0.00    +0.092 A 
ATOM     17  C   UNL     1      44.840  22.653  20.198  0.00  0.00    -0.036 A 
ATOM     18  C   UNL     1      45.601  23.478  21.014  0.00  0.00    +0.148 A 
ATOM     21  C   UNL     1      46.808  23.034  21.530  0.00  0.00    -0.033 A 
ATOM     22  C   UNL     1      47.085  19.606  20.107  0.00  0.00    +0.226 C 
ATOM     23  O   UNL     1      46.724  18.944  18.901  0.00  0.00    -0.274 OA
ATOM     24  C   UNL     1      47.799  18.184  18.551  0.00  0.00    +0.146 A 
ATOM     25  O   UNL     1      49.139  15.270  16.837  0.00  0.00    -0.301 OA
ENDROOT
BRANCH  18  19
ATOM     19  O   UNL     1      45.163  24.732  21.303  0.00  0.00    -0.495 OA
ATOM     20  H   UNL     1      45.413  25.043  22.183  0.00  0.00    +0.397 HD
ENDBRANCH  18  19
TORSDOF 1
ENDMDL
MODEL 8
REMARK VINA RESULT:      -5.7      4.716      7.943
REMARK  Name = ZINC06050191
REMARK  3 active torsions:
REMARK  status: ('A' for Active; 'I' for Inactive)
REMARK    1  A    between atoms: C1_1  and  C2_2
REMARK    2  A    between atoms: C2_2  and  C20_26
REMARK    3  A    between atoms: C18_22  and  O3_24
REMARK                            x       y       z     vdW  Elec       q    Type
REMARK                         _______ _______ _______ _____ _____    ______ ____
ROOT
ATOM      1  C   UNL     1      52.049  19.697  20.772  0.00  0.00    +0.035 C 
ATOM      2  C   UNL     1      52.020  20.258  19.349  0.00  0.00    +0.147 C 
ATOM      3  C   UNL     1      52.873  21.526  19.291  0.00  0.00    +0.083 C 
ATOM      4  C   UNL     1      52.588  19.235  18.401  0.00  0.00    -0.051 C 
ATOM      5  C   UNL     1      51.788  18.331  17.840  0.00  0.00    +0.049 C 
ATOM      6  C   UNL     1      50.347  18.391  18.146  0.00  0.00    -0.142 A 
ATOM      7  C   UNL     1      49.826  19.551  18.745  0.00  0.00    +0.169 A 
ATOM      8  C   UNL     1      48.483  19.645  19.058  0.00  0.00    -0.032 A 
ATOM      9  C   UNL     1      47.599  18.609  18.776  0.00  0.00    +0.120 A 
ATOM     10  C   UNL     1      48.100  17.476  18.170  0.00  0.00    -0.184 A 
ATOM     11  C   UNL     1      47.475  16.213  17.714  0.00  0.00    -0.013 C 
ATOM     12  C   UNL     1      46.384  15.570  18.533  0.00  0.00    +0.278 C 
ATOM     13  O   UNL     1      46.214  14.212  18.108  0.00  0.00    -0.322 OA
ATOM     14  C   UNL     1      46.985  13.656  17.143  0.00  0.00    +0.161 A 
ATOM     15  C   UNL     1      48.297  14.102  16.926  0.00  0.00    -0.169 A 
ATOM     16  C   UNL     1      49.097  13.520  15.979  0.00  0.00    +0.092 A 
ATOM     17  C   UNL     1      48.605  12.482  15.205  0.00  0.00    -0.036 A 
ATOM     18  C   UNL     1      47.304  12.039  15.396  0.00  0.00    +0.148 A 
ATOM     21  C   UNL     1      46.496  12.627  16.356  0.00  0.00    -0.033 A 
ATOM     22  C   UNL     1      48.713  15.254  17.781  0.00  0.00    +0.226 C 
ATOM     23  O   UNL     1      49.734  16.125  17.312  0.00  0.00    -0.274 OA
ATOM     24  C   UNL     1      49.472  17.346  17.858  0.00  0.00    +0.146 A 
ATOM     25  O   UNL     1      50.675  20.582  18.999  0.00  0.00    -0.301 OA
ENDROOT
BRANCH  18  19
ATOM     19  O   UNL     1      46.817  11.027  14.630  0.00  0.00    -0.495 OA
ATOM     20  H   UNL     1      45.853  10.953  14.642  0.00  0.00    +0.397 HD
ENDBRANCH  18  19
TORSDOF 1
ENDMDL
MODEL 9
REMARK VINA RESULT:      -5.7      5.553      9.407
REMARK  Name = ZINC06050191
REMARK  3 active torsions:
REMARK  status: ('A' for Active; 'I' for Inactive)
REMARK    1  A    between atoms: C1_1  and  C2_2
REMARK    2  A    between atoms: C2_2  and  C20_26
REMARK    3  A    between atoms: C18_22  and  O3_24
REMARK                            x       y       z     vdW  Elec       q    Type
REMARK                         _______ _______ _______ _____ _____    ______ ____
ROOT
ATOM      1  C   UNL     1      52.027  19.480  20.745  0.00  0.00    +0.035 C 
ATOM      2  C   UNL     1      51.793  20.200  19.415  0.00  0.00    +0.147 C 
ATOM      3  C   UNL     1      52.120  21.684  19.582  0.00  0.00    +0.083 C 
ATOM      4  C   UNL     1      52.696  19.607  18.366  0.00  0.00    -0.051 C 
ATOM      5  C   UNL     1      52.283  18.570  17.640  0.00  0.00    +0.049 C 
ATOM      6  C   UNL     1      50.922  18.055  17.874  0.00  0.00    -0.142 A 
ATOM      7  C   UNL     1      50.011  18.842  18.600  0.00  0.00    +0.169 A 
ATOM      8  C   UNL     1      48.728  18.395  18.850  0.00  0.00    -0.032 A 
ATOM      9  C   UNL     1      48.286  17.163  18.378  0.00  0.00    +0.120 A 
ATOM     10  C   UNL     1      49.168  16.395  17.647  0.00  0.00    -0.184 A 
ATOM     11  C   UNL     1      49.049  15.074  16.985  0.00  0.00    -0.013 C 
ATOM     12  C   UNL     1      48.272  13.964  17.646  0.00  0.00    +0.278 C 
ATOM     13  O   UNL     1      48.611  12.717  17.026  0.00  0.00    -0.322 OA
ATOM     14  C   UNL     1      49.532  12.631  16.036  0.00  0.00    +0.161 A 
ATOM     15  C   UNL     1      50.589  13.551  15.955  0.00  0.00    -0.169 A 
ATOM     16  C   UNL     1      51.545  13.448  14.981  0.00  0.00    +0.092 A 
ATOM     17  C   UNL     1      51.468  12.431  14.043  0.00  0.00    -0.036 A 
ATOM     18  C   UNL     1      50.421  11.522  14.099  0.00  0.00    +0.148 A 
ATOM     21  C   UNL     1      49.454  11.625  15.087  0.00  0.00    -0.033 A 
ATOM     22  C   UNL     1      50.553  14.632  16.984  0.00  0.00    +0.226 C 
ATOM     23  O   UNL     1      51.182  15.875  16.698  0.00  0.00    -0.274 OA
ATOM     24  C   UNL     1      50.491  16.820  17.395  0.00  0.00    +0.146 A 
ATOM     25  O   UNL     1      50.422  20.061  19.042  0.00  0.00    -0.301 OA
ENDROOT
BRANCH  18  19
ATOM     19  O   UNL     1      50.339  10.530  13.174  0.00  0.00    -0.495 OA
ATOM     20  H   UNL     1      50.843   9.737  13.404  0.00  0.00    +0.397 HD
ENDBRANCH  18  19
TORSDOF 1
ENDMDL
