MODEL 1
REMARK VINA RESULT:      -4.7      0.000      0.000
REMARK  Name = ZINC04098318
REMARK  6 active torsions:
REMARK  status: ('A' for Active; 'I' for Inactive)
REMARK    1  A    between atoms: C1_1  and  C2_2
REMARK    2  A    between atoms: C6_6  and  C14_18
REMARK    3  A    between atoms: C6_6  and  C15_19
REMARK    4  A    between atoms: C10_11  and  C13_16
REMARK    5  A    between atoms: C11_12  and  C12_13
REMARK    6  A    between atoms: C11_12  and  O2_15
REMARK                            x       y       z     vdW  Elec       q    Type
REMARK                         _______ _______ _______ _____ _____    ______ ____
ROOT
ATOM      1  C   UNL     1      50.789  18.073  19.812  0.00  0.00    +0.038 C 
ATOM      2  C   UNL     1      49.918  18.407  18.600  0.00  0.00    -0.021 C 
ATOM      3  C   UNL     1      50.078  17.323  17.532  0.00  0.00    +0.033 C 
ATOM      4  C   UNL     1      51.467  17.392  16.900  0.00  0.00    +0.007 C 
ATOM      5  C   UNL     1      51.632  18.742  16.208  0.00  0.00    +0.018 C 
ATOM      6  C   UNL     1      51.502  19.884  17.216  0.00  0.00    -0.050 C 
ATOM      7  C   UNL     1      51.460  21.195  16.399  0.00  0.00    +0.016 C 
ATOM      8  C   UNL     1      52.752  19.933  18.092  0.00  0.00    +0.024 C 
ATOM      9  C   UNL     1      48.444  18.406  19.053  0.00  0.00    +0.135 C 
ATOM     14  C   UNL     1      48.140  19.624  19.870  0.00  0.00    -0.249 C 
ATOM     17  C   UNL     1      48.902  20.700  19.913  0.00  0.00    +0.083 C 
ATOM     18  C   UNL     1      50.183  20.833  19.135  0.00  0.00    +0.078 C 
ATOM     19  C   UNL     1      50.221  19.784  18.021  0.00  0.00    +0.023 C 
ENDROOT
BRANCH   9  10
ATOM     10  O   UNL     1      47.593  18.382  17.907  0.00  0.00    -0.530 OA
ATOM     11  H   UNL     1      47.525  17.514  17.486  0.00  0.00    +0.382 HD
ENDBRANCH   9  10
BRANCH   9  12
ATOM     12  C   UNL     1      48.187  17.180  19.892  0.00  0.00    +0.418 C 
ATOM     13  O   UNL     1      47.372  16.364  19.533  0.00  0.00    -0.424 OA
ENDBRANCH   9  12
BRANCH  14  15
ATOM     15  C   UNL     1      46.918  19.619  20.676  0.00  0.00    +0.468 C 
ATOM     16  O   UNL     1      45.835  19.705  20.136  0.00  0.00    -0.450 OA
ENDBRANCH  14  15
TORSDOF 3
ENDMDL
MODEL 2
REMARK VINA RESULT:      -4.6      4.734      6.715
REMARK  Name = ZINC04098318
REMARK  6 active torsions:
REMARK  status: ('A' for Active; 'I' for Inactive)
REMARK    1  A    between atoms: C1_1  and  C2_2
REMARK    2  A    between atoms: C6_6  and  C14_18
REMARK    3  A    between atoms: C6_6  and  C15_19
REMARK    4  A    between atoms: C10_11  and  C13_16
REMARK    5  A    between atoms: C11_12  and  C12_13
REMARK    6  A    between atoms: C11_12  and  O2_15
REMARK                            x       y       z     vdW  Elec       q    Type
REMARK                         _______ _______ _______ _____ _____    ______ ____
ROOT
ATOM      1  C   UNL     1      46.025  21.172  18.791  0.00  0.00    +0.038 C 
ATOM      2  C   UNL     1      45.489  21.494  20.187  0.00  0.00    -0.021 C 
ATOM      3  C   UNL     1      46.560  22.227  20.998  0.00  0.00    +0.033 C 
ATOM      4  C   UNL     1      47.705  21.280  21.354  0.00  0.00    +0.007 C 
ATOM      5  C   UNL     1      47.165  20.152  22.227  0.00  0.00    +0.018 C 
ATOM      6  C   UNL     1      46.096  19.357  21.479  0.00  0.00    -0.050 C 
ATOM      7  C   UNL     1      45.459  18.392  22.505  0.00  0.00    +0.016 C 
ATOM      8  C   UNL     1      46.759  18.500  20.402  0.00  0.00    +0.024 C 
ATOM      9  C   UNL     1      44.285  22.445  20.032  0.00  0.00    +0.135 C 
ATOM     14  C   UNL     1      43.089  21.706  19.515  0.00  0.00    -0.249 C 
ATOM     17  C   UNL     1      42.969  20.393  19.516  0.00  0.00    +0.083 C 
ATOM     18  C   UNL     1      44.033  19.468  20.045  0.00  0.00    +0.078 C 
ATOM     19  C   UNL     1      45.004  20.254  20.929  0.00  0.00    +0.023 C 
ENDROOT
BRANCH   9  10
ATOM     10  O   UNL     1      43.970  23.025  21.297  0.00  0.00    -0.530 OA
ATOM     11  H   UNL     1      44.202  23.962  21.369  0.00  0.00    +0.382 HD
ENDBRANCH   9  10
BRANCH   9  12
ATOM     12  C   UNL     1      44.642  23.537  19.056  0.00  0.00    +0.418 C 
ATOM     13  O   UNL     1      44.725  24.681  19.435  0.00  0.00    -0.424 OA
ENDBRANCH   9  12
BRANCH  14  15
ATOM     15  C   UNL     1      41.981  22.493  18.970  0.00  0.00    +0.468 C 
ATOM     16  O   UNL     1      41.055  21.937  18.420  0.00  0.00    -0.450 OA
ENDBRANCH  14  15
TORSDOF 3
ENDMDL
MODEL 3
REMARK VINA RESULT:      -4.6      3.369      6.075
REMARK  Name = ZINC04098318
REMARK  6 active torsions:
REMARK  status: ('A' for Active; 'I' for Inactive)
REMARK    1  A    between atoms: C1_1  and  C2_2
REMARK    2  A    between atoms: C6_6  and  C14_18
REMARK    3  A    between atoms: C6_6  and  C15_19
REMARK    4  A    between atoms: C10_11  and  C13_16
REMARK    5  A    between atoms: C11_12  and  C12_13
REMARK    6  A    between atoms: C11_12  and  O2_15
REMARK                            x       y       z     vdW  Elec       q    Type
REMARK                         _______ _______ _______ _____ _____    ______ ____
ROOT
ATOM      1  C   UNL     1      46.845  18.732  20.531  0.00  0.00    +0.038 C 
ATOM      2  C   UNL     1      45.940  18.618  19.303  0.00  0.00    -0.021 C 
ATOM      3  C   UNL     1      46.090  19.866  18.431  0.00  0.00    +0.033 C 
ATOM      4  C   UNL     1      45.468  21.080  19.119  0.00  0.00    +0.007 C 
ATOM      5  C   UNL     1      43.975  20.834  19.310  0.00  0.00    +0.018 C 
ATOM      6  C   UNL     1      43.739  19.607  20.189  0.00  0.00    -0.050 C 
ATOM      7  C   UNL     1      42.223  19.310  20.142  0.00  0.00    +0.016 C 
ATOM      8  C   UNL     1      44.091  19.943  21.637  0.00  0.00    +0.024 C 
ATOM      9  C   UNL     1      46.407  17.406  18.472  0.00  0.00    +0.135 C 
ATOM     14  C   UNL     1      46.015  16.123  19.140  0.00  0.00    -0.249 C 
ATOM     17  C   UNL     1      45.116  16.030  20.101  0.00  0.00    +0.083 C 
ATOM     18  C   UNL     1      44.368  17.215  20.647  0.00  0.00    +0.078 C 
ATOM     19  C   UNL     1      44.478  18.388  19.670  0.00  0.00    +0.023 C 
ENDROOT
BRANCH   9  10
ATOM     10  O   UNL     1      45.817  17.461  17.174  0.00  0.00    -0.530 OA
ATOM     11  H   UNL     1      45.546  16.599  16.829  0.00  0.00    +0.382 HD
ENDBRANCH   9  10
BRANCH   9  12
ATOM     12  C   UNL     1      47.908  17.447  18.342  0.00  0.00    +0.418 C 
ATOM     13  O   UNL     1      48.417  17.516  17.248  0.00  0.00    -0.424 OA
ENDBRANCH   9  12
BRANCH  14  15
ATOM     15  C   UNL     1      46.674  14.893  18.698  0.00  0.00    +0.468 C 
ATOM     16  O   UNL     1      46.395  14.409  17.621  0.00  0.00    -0.450 OA
ENDBRANCH  14  15
TORSDOF 3
ENDMDL
MODEL 4
REMARK VINA RESULT:      -4.5     19.553     20.891
REMARK  Name = ZINC04098318
REMARK  6 active torsions:
REMARK  status: ('A' for Active; 'I' for Inactive)
REMARK    1  A    between atoms: C1_1  and  C2_2
REMARK    2  A    between atoms: C6_6  and  C14_18
REMARK    3  A    between atoms: C6_6  and  C15_19
REMARK    4  A    between atoms: C10_11  and  C13_16
REMARK    5  A    between atoms: C11_12  and  C12_13
REMARK    6  A    between atoms: C11_12  and  O2_15
REMARK                            x       y       z     vdW  Elec       q    Type
REMARK                         _______ _______ _______ _____ _____    ______ ____
ROOT
ATOM      1  C   UNL     1      54.837  35.243   3.914  0.00  0.00    +0.038 C 
ATOM      2  C   UNL     1      55.080  34.081   4.880  0.00  0.00    -0.021 C 
ATOM      3  C   UNL     1      56.188  34.451   5.868  0.00  0.00    +0.033 C 
ATOM      4  C   UNL     1      57.541  34.508   5.160  0.00  0.00    +0.007 C 
ATOM      5  C   UNL     1      57.870  33.127   4.602  0.00  0.00    +0.018 C 
ATOM      6  C   UNL     1      56.813  32.689   3.589  0.00  0.00    -0.050 C 
ATOM      7  C   UNL     1      57.105  31.209   3.252  0.00  0.00    +0.016 C 
ATOM      8  C   UNL     1      56.982  33.491   2.300  0.00  0.00    +0.024 C 
ATOM      9  C   UNL     1      53.787  33.851   5.688  0.00  0.00    +0.135 C 
ATOM     14  C   UNL     1      52.739  33.200   4.838  0.00  0.00    -0.249 C 
ATOM     17  C   UNL     1      52.981  32.602   3.688  0.00  0.00    +0.083 C 
ATOM     18  C   UNL     1      54.356  32.499   3.086  0.00  0.00    +0.078 C 
ATOM     19  C   UNL     1      55.410  32.779   4.159  0.00  0.00    +0.023 C 
ENDROOT
BRANCH   9  10
ATOM     10  O   UNL     1      54.069  33.016   6.810  0.00  0.00    -0.530 OA
ATOM     11  H   UNL     1      53.567  32.189   6.821  0.00  0.00    +0.382 HD
ENDBRANCH   9  10
BRANCH   9  12
ATOM     12  C   UNL     1      53.265  35.180   6.172  0.00  0.00    +0.418 C 
ATOM     13  O   UNL     1      53.086  35.364   7.352  0.00  0.00    -0.424 OA
ENDBRANCH   9  12
BRANCH  14  15
ATOM     15  C   UNL     1      51.355  33.233   5.314  0.00  0.00    +0.468 C 
ATOM     16  O   UNL     1      51.016  32.529   6.242  0.00  0.00    -0.450 OA
ENDBRANCH  14  15
TORSDOF 3
ENDMDL
MODEL 5
REMARK VINA RESULT:      -4.5      3.894      5.954
REMARK  Name = ZINC04098318
REMARK  6 active torsions:
REMARK  status: ('A' for Active; 'I' for Inactive)
REMARK    1  A    between atoms: C1_1  and  C2_2
REMARK    2  A    between atoms: C6_6  and  C14_18
REMARK    3  A    between atoms: C6_6  and  C15_19
REMARK    4  A    between atoms: C10_11  and  C13_16
REMARK    5  A    between atoms: C11_12  and  C12_13
REMARK    6  A    between atoms: C11_12  and  O2_15
REMARK                            x       y       z     vdW  Elec       q    Type
REMARK                         _______ _______ _______ _____ _____    ______ ____
ROOT
ATOM      1  C   UNL     1      44.986  18.736  18.465  0.00  0.00    +0.038 C 
ATOM      2  C   UNL     1      44.909  19.782  19.580  0.00  0.00    -0.021 C 
ATOM      3  C   UNL     1      45.450  21.120  19.074  0.00  0.00    +0.033 C 
ATOM      4  C   UNL     1      46.962  21.046  18.870  0.00  0.00    +0.007 C 
ATOM      5  C   UNL     1      47.632  20.761  20.211  0.00  0.00    +0.018 C 
ATOM      6  C   UNL     1      47.154  19.425  20.779  0.00  0.00    -0.050 C 
ATOM      7  C   UNL     1      47.707  19.331  22.219  0.00  0.00    +0.016 C 
ATOM      8  C   UNL     1      47.775  18.282  19.978  0.00  0.00    +0.024 C 
ATOM      9  C   UNL     1      43.425  19.983  19.947  0.00  0.00    +0.135 C 
ATOM     14  C   UNL     1      42.908  18.811  20.724  0.00  0.00    -0.249 C 
ATOM     17  C   UNL     1      43.673  17.907  21.304  0.00  0.00    +0.083 C 
ATOM     18  C   UNL     1      45.177  17.947  21.255  0.00  0.00    +0.078 C 
ATOM     19  C   UNL     1      45.641  19.346  20.844  0.00  0.00    +0.023 C 
ENDROOT
BRANCH   9  10
ATOM     10  O   UNL     1      43.285  21.167  20.731  0.00  0.00    -0.530 OA
ATOM     11  H   UNL     1      44.077  21.402  21.235  0.00  0.00    +0.382 HD
ENDBRANCH   9  10
BRANCH   9  12
ATOM     12  C   UNL     1      42.618  20.123  18.682  0.00  0.00    +0.418 C 
ATOM     13  O   UNL     1      41.906  21.086  18.524  0.00  0.00    -0.424 OA
ENDBRANCH   9  12
BRANCH  14  15
ATOM     15  C   UNL     1      41.456  18.658  20.845  0.00  0.00    +0.468 C 
ATOM     16  O   UNL     1      40.827  19.396  21.573  0.00  0.00    -0.450 OA
ENDBRANCH  14  15
TORSDOF 3
ENDMDL
MODEL 6
REMARK VINA RESULT:      -4.4      3.857      5.321
REMARK  Name = ZINC04098318
REMARK  6 active torsions:
REMARK  status: ('A' for Active; 'I' for Inactive)
REMARK    1  A    between atoms: C1_1  and  C2_2
REMARK    2  A    between atoms: C6_6  and  C14_18
REMARK    3  A    between atoms: C6_6  and  C15_19
REMARK    4  A    between atoms: C10_11  and  C13_16
REMARK    5  A    between atoms: C11_12  and  C12_13
REMARK    6  A    between atoms: C11_12  and  O2_15
REMARK                            x       y       z     vdW  Elec       q    Type
REMARK                         _______ _______ _______ _____ _____    ______ ____
ROOT
ATOM      1  C   UNL     1      46.386  18.580  21.173  0.00  0.00    +0.038 C 
ATOM      2  C   UNL     1      45.239  18.207  20.231  0.00  0.00    -0.021 C 
ATOM      3  C   UNL     1      44.577  16.912  20.707  0.00  0.00    +0.033 C 
ATOM      4  C   UNL     1      45.509  15.722  20.489  0.00  0.00    +0.007 C 
ATOM      5  C   UNL     1      45.785  15.572  18.996  0.00  0.00    +0.018 C 
ATOM      6  C   UNL     1      46.465  16.824  18.445  0.00  0.00    -0.050 C 
ATOM      7  C   UNL     1      46.500  16.672  16.907  0.00  0.00    +0.016 C 
ATOM      8  C   UNL     1      47.913  16.873  18.930  0.00  0.00    +0.024 C 
ATOM      9  C   UNL     1      44.181  19.327  20.297  0.00  0.00    +0.135 C 
ATOM     14  C   UNL     1      44.657  20.549  19.573  0.00  0.00    -0.249 C 
ATOM     17  C   UNL     1      45.663  20.563  18.720  0.00  0.00    +0.083 C 
ATOM     18  C   UNL     1      46.462  19.338  18.368  0.00  0.00    +0.078 C 
ATOM     19  C   UNL     1      45.688  18.083  18.780  0.00  0.00    +0.023 C 
ENDROOT
BRANCH   9  10
ATOM     10  O   UNL     1      42.966  18.870  19.703  0.00  0.00    -0.530 OA
ATOM     11  H   UNL     1      42.737  17.958  19.928  0.00  0.00    +0.382 HD
ENDBRANCH   9  10
BRANCH   9  12
ATOM     12  C   UNL     1      43.929  19.684  21.740  0.00  0.00    +0.418 C 
ATOM     13  O   UNL     1      42.875  19.397  22.257  0.00  0.00    -0.424 OA
ENDBRANCH   9  12
BRANCH  14  15
ATOM     15  C   UNL     1      43.960  21.811  19.830  0.00  0.00    +0.468 C 
ATOM     16  O   UNL     1      42.827  21.971  19.428  0.00  0.00    -0.450 OA
ENDBRANCH  14  15
TORSDOF 3
ENDMDL
MODEL 7
REMARK VINA RESULT:      -4.4      4.499      6.304
REMARK  Name = ZINC04098318
REMARK  6 active torsions:
REMARK  status: ('A' for Active; 'I' for Inactive)
REMARK    1  A    between atoms: C1_1  and  C2_2
REMARK    2  A    between atoms: C6_6  and  C14_18
REMARK    3  A    between atoms: C6_6  and  C15_19
REMARK    4  A    between atoms: C10_11  and  C13_16
REMARK    5  A    between atoms: C11_12  and  C12_13
REMARK    6  A    between atoms: C11_12  and  O2_15
REMARK                            x       y       z     vdW  Elec       q    Type
REMARK                         _______ _______ _______ _____ _____    ______ ____
ROOT
ATOM      1  C   UNL     1      46.420  18.335  21.198  0.00  0.00    +0.038 C 
ATOM      2  C   UNL     1      45.521  17.630  20.180  0.00  0.00    -0.021 C 
ATOM      3  C   UNL     1      45.979  17.972  18.760  0.00  0.00    +0.033 C 
ATOM      4  C   UNL     1      45.671  19.432  18.434  0.00  0.00    +0.007 C 
ATOM      5  C   UNL     1      44.162  19.648  18.492  0.00  0.00    +0.018 C 
ATOM      6  C   UNL     1      43.627  19.342  19.890  0.00  0.00    -0.050 C 
ATOM      7  C   UNL     1      42.084  19.371  19.793  0.00  0.00    +0.016 C 
ATOM      8  C   UNL     1      44.043  20.456  20.849  0.00  0.00    +0.024 C 
ATOM      9  C   UNL     1      45.681  16.108  20.371  0.00  0.00    +0.135 C 
ATOM     14  C   UNL     1      44.982  15.654  21.616  0.00  0.00    -0.249 C 
ATOM     17  C   UNL     1      44.083  16.368  22.266  0.00  0.00    +0.083 C 
ATOM     18  C   UNL     1      43.646  17.740  21.828  0.00  0.00    +0.078 C 
ATOM     19  C   UNL     1      44.047  17.965  20.368  0.00  0.00    +0.023 C 
ENDROOT
BRANCH   9  10
ATOM     10  O   UNL     1      45.130  15.426  19.246  0.00  0.00    -0.530 OA
ATOM     11  H   UNL     1      45.603  15.587  18.417  0.00  0.00    +0.382 HD
ENDBRANCH   9  10
BRANCH   9  12
ATOM     12  C   UNL     1      47.147  15.777  20.488  0.00  0.00    +0.418 C 
ATOM     13  O   UNL     1      47.667  15.047  19.677  0.00  0.00    -0.424 OA
ENDBRANCH   9  12
BRANCH  14  15
ATOM     15  C   UNL     1      45.321  14.333  22.147  0.00  0.00    +0.468 C 
ATOM     16  O   UNL     1      44.987  13.334  21.546  0.00  0.00    -0.450 OA
ENDBRANCH  14  15
TORSDOF 3
ENDMDL
MODEL 8
REMARK VINA RESULT:      -4.4     19.664     21.708
REMARK  Name = ZINC04098318
REMARK  6 active torsions:
REMARK  status: ('A' for Active; 'I' for Inactive)
REMARK    1  A    between atoms: C1_1  and  C2_2
REMARK    2  A    between atoms: C6_6  and  C14_18
REMARK    3  A    between atoms: C6_6  and  C15_19
REMARK    4  A    between atoms: C10_11  and  C13_16
REMARK    5  A    between atoms: C11_12  and  C12_13
REMARK    6  A    between atoms: C11_12  and  O2_15
REMARK                            x       y       z     vdW  Elec       q    Type
REMARK                         _______ _______ _______ _____ _____    ______ ____
ROOT
ATOM      1  C   UNL     1      53.220  34.627   3.530  0.00  0.00    +0.038 C 
ATOM      2  C   UNL     1      53.893  33.272   3.757  0.00  0.00    -0.021 C 
ATOM      3  C   UNL     1      53.201  32.535   4.905  0.00  0.00    +0.033 C 
ATOM      4  C   UNL     1      53.499  33.217   6.239  0.00  0.00    +0.007 C 
ATOM      5  C   UNL     1      55.001  33.162   6.501  0.00  0.00    +0.018 C 
ATOM      6  C   UNL     1      55.768  33.894   5.401  0.00  0.00    -0.050 C 
ATOM      7  C   UNL     1      57.267  33.597   5.629  0.00  0.00    +0.016 C 
ATOM      8  C   UNL     1      55.574  35.401   5.564  0.00  0.00    +0.024 C 
ATOM      9  C   UNL     1      53.713  32.427   2.480  0.00  0.00    +0.135 C 
ATOM     14  C   UNL     1      54.608  32.924   1.385  0.00  0.00    -0.249 C 
ATOM     17  C   UNL     1      55.635  33.729   1.573  0.00  0.00    +0.083 C 
ATOM     18  C   UNL     1      56.038  34.250   2.926  0.00  0.00    +0.078 C 
ATOM     19  C   UNL     1      55.389  33.397   4.019  0.00  0.00    +0.023 C 
ENDROOT
BRANCH   9  10
ATOM     10  O   UNL     1      54.026  31.064   2.762  0.00  0.00    -0.530 OA
ATOM     11  H   UNL     1      54.832  30.748   2.329  0.00  0.00    +0.382 HD
ENDBRANCH   9  10
BRANCH   9  12
ATOM     12  C   UNL     1      52.281  32.526   2.020  0.00  0.00    +0.418 C 
ATOM     13  O   UNL     1      51.628  31.523   1.860  0.00  0.00    -0.424 OA
ENDBRANCH   9  12
BRANCH  14  15
ATOM     15  C   UNL     1      54.321  32.489   0.017  0.00  0.00    +0.468 C 
ATOM     16  O   UNL     1      54.541  31.343  -0.313  0.00  0.00    -0.450 OA
ENDBRANCH  14  15
TORSDOF 3
ENDMDL
MODEL 9
REMARK VINA RESULT:      -4.3      1.903      2.797
REMARK  Name = ZINC04098318
REMARK  6 active torsions:
REMARK  status: ('A' for Active; 'I' for Inactive)
REMARK    1  A    between atoms: C1_1  and  C2_2
REMARK    2  A    between atoms: C6_6  and  C14_18
REMARK    3  A    between atoms: C6_6  and  C15_19
REMARK    4  A    between atoms: C10_11  and  C13_16
REMARK    5  A    between atoms: C11_12  and  C12_13
REMARK    6  A    between atoms: C11_12  and  O2_15
REMARK                            x       y       z     vdW  Elec       q    Type
REMARK                         _______ _______ _______ _____ _____    ______ ____
ROOT
ATOM      1  C   UNL     1      47.329  18.733  20.937  0.00  0.00    +0.038 C 
ATOM      2  C   UNL     1      47.538  18.658  19.423  0.00  0.00    -0.021 C 
ATOM      3  C   UNL     1      48.328  17.396  19.070  0.00  0.00    +0.033 C 
ATOM      4  C   UNL     1      49.776  17.519  19.542  0.00  0.00    +0.007 C 
ATOM      5  C   UNL     1      50.437  18.689  18.819  0.00  0.00    +0.018 C 
ATOM      6  C   UNL     1      49.713  19.997  19.134  0.00  0.00    -0.050 C 
ATOM      7  C   UNL     1      50.306  21.072  18.196  0.00  0.00    +0.016 C 
ATOM      8  C   UNL     1      50.029  20.420  20.568  0.00  0.00    +0.024 C 
ATOM      9  C   UNL     1      46.154  18.548  18.753  0.00  0.00    +0.135 C 
ATOM     14  C   UNL     1      45.437  19.863  18.800  0.00  0.00    -0.249 C 
ATOM     17  C   UNL     1      46.018  21.018  19.058  0.00  0.00    +0.083 C 
ATOM     18  C   UNL     1      47.490  21.155  19.339  0.00  0.00    +0.078 C 
ATOM     19  C   UNL     1      48.224  19.899  18.864  0.00  0.00    +0.023 C 
ENDROOT
BRANCH   9  10
ATOM     10  O   UNL     1      46.314  18.147  17.392  0.00  0.00    -0.530 OA
ATOM     11  H   UNL     1      45.487  18.122  16.890  0.00  0.00    +0.382 HD
ENDBRANCH   9  10
BRANCH   9  12
ATOM     12  C   UNL     1      45.331  17.519  19.484  0.00  0.00    +0.418 C 
ATOM     13  O   UNL     1      45.243  16.396  19.048  0.00  0.00    -0.424 OA
ENDBRANCH   9  12
BRANCH  14  15
ATOM     15  C   UNL     1      43.995  19.865  18.544  0.00  0.00    +0.468 C 
ATOM     16  O   UNL     1      43.283  20.680  19.091  0.00  0.00    -0.450 OA
ENDBRANCH  14  15
TORSDOF 3
ENDMDL
