MODEL 1
REMARK VINA RESULT:      -7.3      0.000      0.000
REMARK  Name = ZINC35941652
REMARK  4 active torsions:
REMARK  status: ('A' for Active; 'I' for Inactive)
REMARK    1  A    between atoms: C1_1  and  C2_2
REMARK    2  A    between atoms: C2_2  and  C20_25
REMARK    3  A    between atoms: C7_7  and  C11_12
REMARK    4  A    between atoms: C17_20  and  O4_24
REMARK                            x       y       z     vdW  Elec       q    Type
REMARK                         _______ _______ _______ _____ _____    ______ ____
ROOT
ATOM      9  C   UNL     1      45.077  19.508  20.173  0.00  0.00    +0.240 C 
ATOM     10  C   UNL     1      44.482  18.133  20.514  0.00  0.00    +0.038 C 
ATOM     11  C   UNL     1      43.059  18.366  20.988  0.00  0.00    +0.402 C 
ATOM     12  C   UNL     1      42.281  19.380  20.260  0.00  0.00    -0.265 A 
ATOM     13  C   UNL     1      40.900  19.491  20.448  0.00  0.00    +0.135 A 
ATOM     14  C   UNL     1      40.197  20.443  19.767  0.00  0.00    -0.051 A 
ATOM     15  C   UNL     1      40.850  21.303  18.887  0.00  0.00    +0.181 A 
ATOM     18  C   UNL     1      42.219  21.202  18.688  0.00  0.00    -0.045 A 
ATOM     19  C   UNL     1      42.947  20.240  19.369  0.00  0.00    +0.201 A 
ATOM     20  O   UNL     1      42.587  17.749  21.920  0.00  0.00    -0.442 OA
ATOM     21  O   UNL     1      44.281  20.132  19.167  0.00  0.00    -0.300 OA
ENDROOT
BRANCH   9   8
ATOM      1  C   UNL     1      50.960  21.064  17.610  0.00  0.00    +0.030 C 
ATOM      2  C   UNL     1      51.297  19.851  18.480  0.00  0.00    +0.112 C 
ATOM      3  C   UNL     1      52.694  19.336  18.127  0.00  0.00    +0.075 C 
ATOM      4  C   UNL     1      51.251  20.249  19.962  0.00  0.00    +0.016 C 
ATOM      5  C   UNL     1      49.880  20.861  20.253  0.00  0.00    +0.085 C 
ATOM      6  C   UNL     1      48.797  19.972  19.693  0.00  0.00    -0.159 A 
ATOM      7  C   UNL     1      47.502  20.128  20.156  0.00  0.00    +0.062 A 
ATOM      8  C   UNL     1      46.485  19.333  19.664  0.00  0.00    -0.127 A 
ATOM     22  C   UNL     1      46.759  18.377  18.703  0.00  0.00    +0.078 A 
ATOM     23  C   UNL     1      48.049  18.216  18.239  0.00  0.00    -0.016 A 
ATOM     24  C   UNL     1      49.076  19.013  18.735  0.00  0.00    +0.149 A 
ATOM     25  O   UNL     1      50.334  18.819  18.261  0.00  0.00    -0.307 OA
ENDBRANCH   9   8
BRANCH  15  16
ATOM     16  O   UNL     1      40.140  22.246  18.217  0.00  0.00    -0.494 OA
ATOM     17  H   UNL     1      40.639  22.687  17.515  0.00  0.00    +0.401 HD
ENDBRANCH  15  16
TORSDOF 2
ENDMDL
MODEL 2
REMARK VINA RESULT:      -7.3      1.378      2.047
REMARK  Name = ZINC35941652
REMARK  4 active torsions:
REMARK  status: ('A' for Active; 'I' for Inactive)
REMARK    1  A    between atoms: C1_1  and  C2_2
REMARK    2  A    between atoms: C2_2  and  C20_25
REMARK    3  A    between atoms: C7_7  and  C11_12
REMARK    4  A    between atoms: C17_20  and  O4_24
REMARK                            x       y       z     vdW  Elec       q    Type
REMARK                         _______ _______ _______ _____ _____    ______ ____
ROOT
ATOM      9  C   UNL     1      45.130  20.379  21.085  0.00  0.00    +0.240 C 
ATOM     10  C   UNL     1      44.825  18.876  21.003  0.00  0.00    +0.038 C 
ATOM     11  C   UNL     1      43.314  18.724  21.021  0.00  0.00    +0.402 C 
ATOM     12  C   UNL     1      42.544  19.707  20.244  0.00  0.00    -0.265 A 
ATOM     13  C   UNL     1      41.183  19.509  19.991  0.00  0.00    +0.135 A 
ATOM     14  C   UNL     1      40.485  20.438  19.272  0.00  0.00    -0.051 A 
ATOM     15  C   UNL     1      41.124  21.578  18.791  0.00  0.00    +0.181 A 
ATOM     18  C   UNL     1      42.473  21.786  19.032  0.00  0.00    -0.045 A 
ATOM     19  C   UNL     1      43.197  20.853  19.757  0.00  0.00    +0.201 A 
ATOM     20  O   UNL     1      42.770  17.838  21.646  0.00  0.00    -0.442 OA
ATOM     21  O   UNL     1      44.518  21.048  19.983  0.00  0.00    -0.300 OA
ENDROOT
BRANCH   9   8
ATOM      1  C   UNL     1      51.506  19.187  19.856  0.00  0.00    +0.030 C 
ATOM      2  C   UNL     1      51.450  20.715  19.816  0.00  0.00    +0.112 C 
ATOM      3  C   UNL     1      52.870  21.285  19.860  0.00  0.00    +0.075 C 
ATOM      4  C   UNL     1      50.748  21.173  18.531  0.00  0.00    +0.016 C 
ATOM      5  C   UNL     1      49.376  20.498  18.467  0.00  0.00    +0.085 C 
ATOM      6  C   UNL     1      48.670  20.655  19.790  0.00  0.00    -0.159 A 
ATOM      7  C   UNL     1      47.300  20.460  19.842  0.00  0.00    +0.062 A 
ATOM      8  C   UNL     1      46.621  20.592  21.037  0.00  0.00    -0.127 A 
ATOM     22  C   UNL     1      47.311  20.920  22.190  0.00  0.00    +0.078 A 
ATOM     23  C   UNL     1      48.675  21.117  22.145  0.00  0.00    -0.016 A 
ATOM     24  C   UNL     1      49.362  20.988  20.941  0.00  0.00    +0.149 A 
ATOM     25  O   UNL     1      50.704  21.199  20.934  0.00  0.00    -0.307 OA
ENDBRANCH   9   8
BRANCH  15  16
ATOM     16  O   UNL     1      40.418  22.494  18.080  0.00  0.00    -0.494 OA
ATOM     17  H   UNL     1      39.719  22.930  18.586  0.00  0.00    +0.401 HD
ENDBRANCH  15  16
TORSDOF 2
ENDMDL
MODEL 3
REMARK VINA RESULT:      -6.8      1.855      8.178
REMARK  Name = ZINC35941652
REMARK  4 active torsions:
REMARK  status: ('A' for Active; 'I' for Inactive)
REMARK    1  A    between atoms: C1_1  and  C2_2
REMARK    2  A    between atoms: C2_2  and  C20_25
REMARK    3  A    between atoms: C7_7  and  C11_12
REMARK    4  A    between atoms: C17_20  and  O4_24
REMARK                            x       y       z     vdW  Elec       q    Type
REMARK                         _______ _______ _______ _____ _____    ______ ____
ROOT
ATOM      9  C   UNL     1      47.729  20.417  20.089  0.00  0.00    +0.240 C 
ATOM     10  C   UNL     1      48.257  21.132  21.341  0.00  0.00    +0.038 C 
ATOM     11  C   UNL     1      49.741  20.823  21.441  0.00  0.00    +0.402 C 
ATOM     12  C   UNL     1      50.499  20.822  20.181  0.00  0.00    -0.265 A 
ATOM     13  C   UNL     1      51.897  20.800  20.188  0.00  0.00    +0.135 A 
ATOM     14  C   UNL     1      52.581  20.793  19.006  0.00  0.00    -0.051 A 
ATOM     15  C   UNL     1      51.892  20.807  17.796  0.00  0.00    +0.181 A 
ATOM     18  C   UNL     1      50.506  20.832  17.773  0.00  0.00    -0.045 A 
ATOM     19  C   UNL     1      49.796  20.842  18.963  0.00  0.00    +0.201 A 
ATOM     20  O   UNL     1      50.274  20.588  22.505  0.00  0.00    -0.442 OA
ATOM     21  O   UNL     1      48.443  20.879  18.943  0.00  0.00    -0.300 OA
ENDROOT
BRANCH   9   8
ATOM      1  C   UNL     1      41.539  19.936  17.840  0.00  0.00    +0.030 C 
ATOM      2  C   UNL     1      41.329  20.504  19.246  0.00  0.00    +0.112 C 
ATOM      3  C   UNL     1      39.894  21.017  19.385  0.00  0.00    +0.075 C 
ATOM      4  C   UNL     1      41.592  19.410  20.289  0.00  0.00    +0.016 C 
ATOM      5  C   UNL     1      42.993  18.844  20.050  0.00  0.00    +0.085 C 
ATOM      6  C   UNL     1      43.980  19.975  19.902  0.00  0.00    -0.159 A 
ATOM      7  C   UNL     1      45.330  19.706  20.053  0.00  0.00    +0.062 A 
ATOM      8  C   UNL     1      46.261  20.717  19.922  0.00  0.00    -0.127 A 
ATOM     22  C   UNL     1      45.847  22.005  19.635  0.00  0.00    +0.078 A 
ATOM     23  C   UNL     1      44.503  22.279  19.485  0.00  0.00    -0.016 A 
ATOM     24  C   UNL     1      43.561  21.264  19.620  0.00  0.00    +0.149 A 
ATOM     25  O   UNL     1      42.247  21.574  19.474  0.00  0.00    -0.307 OA
ENDBRANCH   9   8
BRANCH  15  16
ATOM     16  O   UNL     1      52.584  20.798  16.628  0.00  0.00    -0.494 OA
ATOM     17  H   UNL     1      52.442  20.004  16.094  0.00  0.00    +0.401 HD
ENDBRANCH  15  16
TORSDOF 2
ENDMDL
MODEL 4
REMARK VINA RESULT:      -6.7      3.346      5.086
REMARK  Name = ZINC35941652
REMARK  4 active torsions:
REMARK  status: ('A' for Active; 'I' for Inactive)
REMARK    1  A    between atoms: C1_1  and  C2_2
REMARK    2  A    between atoms: C2_2  and  C20_25
REMARK    3  A    between atoms: C7_7  and  C11_12
REMARK    4  A    between atoms: C17_20  and  O4_24
REMARK                            x       y       z     vdW  Elec       q    Type
REMARK                         _______ _______ _______ _____ _____    ______ ____
ROOT
ATOM      9  C   UNL     1      45.160  18.901  18.807  0.00  0.00    +0.240 C 
ATOM     10  C   UNL     1      45.795  19.627  20.002  0.00  0.00    +0.038 C 
ATOM     11  C   UNL     1      45.392  21.088  19.905  0.00  0.00    +0.402 C 
ATOM     12  C   UNL     1      44.009  21.362  19.487  0.00  0.00    -0.265 A 
ATOM     13  C   UNL     1      43.467  22.645  19.608  0.00  0.00    +0.135 A 
ATOM     14  C   UNL     1      42.182  22.880  19.208  0.00  0.00    -0.051 A 
ATOM     15  C   UNL     1      41.411  21.846  18.682  0.00  0.00    +0.181 A 
ATOM     18  C   UNL     1      41.934  20.568  18.558  0.00  0.00    -0.045 A 
ATOM     19  C   UNL     1      43.235  20.312  18.961  0.00  0.00    +0.201 A 
ATOM     20  O   UNL     1      46.171  21.984  20.157  0.00  0.00    -0.442 OA
ATOM     21  O   UNL     1      43.743  19.062  18.854  0.00  0.00    -0.300 OA
ENDROOT
BRANCH   9   8
ATOM      1  C   UNL     1      45.666  12.586  16.948  0.00  0.00    +0.030 C 
ATOM      2  C   UNL     1      46.855  12.739  17.900  0.00  0.00    +0.112 C 
ATOM      3  C   UNL     1      47.403  11.357  18.265  0.00  0.00    +0.075 C 
ATOM      4  C   UNL     1      47.953  13.571  17.226  0.00  0.00    +0.016 C 
ATOM      5  C   UNL     1      47.342  14.899  16.776  0.00  0.00    +0.085 C 
ATOM      6  C   UNL     1      46.548  15.503  17.907  0.00  0.00    -0.159 A 
ATOM      7  C   UNL     1      46.230  16.849  17.854  0.00  0.00    +0.062 A 
ATOM      8  C   UNL     1      45.502  17.435  18.871  0.00  0.00    -0.127 A 
ATOM     22  C   UNL     1      45.086  16.674  19.949  0.00  0.00    +0.078 A 
ATOM     23  C   UNL     1      45.402  15.332  20.008  0.00  0.00    -0.016 A 
ATOM     24  C   UNL     1      46.138  14.740  18.986  0.00  0.00    +0.149 A 
ATOM     25  O   UNL     1      46.437  13.419  19.085  0.00  0.00    -0.307 OA
ENDBRANCH   9   8
BRANCH  15  16
ATOM     16  O   UNL     1      40.136  22.093  18.287  0.00  0.00    -0.494 OA
ATOM     17  H   UNL     1      39.794  22.948  18.580  0.00  0.00    +0.401 HD
ENDBRANCH  15  16
TORSDOF 2
ENDMDL
MODEL 5
REMARK VINA RESULT:      -6.5      3.603      5.642
REMARK  Name = ZINC35941652
REMARK  4 active torsions:
REMARK  status: ('A' for Active; 'I' for Inactive)
REMARK    1  A    between atoms: C1_1  and  C2_2
REMARK    2  A    between atoms: C2_2  and  C20_25
REMARK    3  A    between atoms: C7_7  and  C11_12
REMARK    4  A    between atoms: C17_20  and  O4_24
REMARK                            x       y       z     vdW  Elec       q    Type
REMARK                         _______ _______ _______ _____ _____    ______ ____
ROOT
ATOM      9  C   UNL     1      45.072  18.931  19.536  0.00  0.00    +0.240 C 
ATOM     10  C   UNL     1      44.152  19.688  18.566  0.00  0.00    +0.038 C 
ATOM     11  C   UNL     1      43.688  20.946  19.279  0.00  0.00    +0.402 C 
ATOM     12  C   UNL     1      44.691  21.650  20.092  0.00  0.00    -0.265 A 
ATOM     13  C   UNL     1      44.441  22.937  20.578  0.00  0.00    +0.135 A 
ATOM     14  C   UNL     1      45.384  23.570  21.336  0.00  0.00    -0.051 A 
ATOM     15  C   UNL     1      46.592  22.940  21.626  0.00  0.00    +0.181 A 
ATOM     18  C   UNL     1      46.855  21.665  21.148  0.00  0.00    -0.045 A 
ATOM     19  C   UNL     1      45.910  21.009  20.375  0.00  0.00    +0.201 A 
ATOM     20  O   UNL     1      42.547  21.349  19.185  0.00  0.00    -0.442 OA
ATOM     21  O   UNL     1      46.170  19.769  19.897  0.00  0.00    -0.300 OA
ENDROOT
BRANCH   9   8
ATOM      1  C   UNL     1      48.167  13.147  18.789  0.00  0.00    +0.030 C 
ATOM      2  C   UNL     1      47.066  13.064  17.729  0.00  0.00    +0.112 C 
ATOM      3  C   UNL     1      47.358  11.904  16.774  0.00  0.00    +0.075 C 
ATOM      4  C   UNL     1      45.709  12.845  18.410  0.00  0.00    +0.016 C 
ATOM      5  C   UNL     1      45.501  13.961  19.436  0.00  0.00    +0.085 C 
ATOM      6  C   UNL     1      45.803  15.296  18.804  0.00  0.00    -0.159 A 
ATOM      7  C   UNL     1      45.330  16.445  19.415  0.00  0.00    +0.062 A 
ATOM      8  C   UNL     1      45.591  17.685  18.865  0.00  0.00    -0.127 A 
ATOM     22  C   UNL     1      46.329  17.782  17.699  0.00  0.00    +0.078 A 
ATOM     23  C   UNL     1      46.801  16.641  17.086  0.00  0.00    -0.016 A 
ATOM     24  C   UNL     1      46.538  15.390  17.635  0.00  0.00    +0.149 A 
ATOM     25  O   UNL     1      47.011  14.288  16.996  0.00  0.00    -0.307 OA
ENDBRANCH   9   8
BRANCH  15  16
ATOM     16  O   UNL     1      47.520  23.580  22.382  0.00  0.00    -0.494 OA
ATOM     17  H   UNL     1      47.159  23.996  23.176  0.00  0.00    +0.401 HD
ENDBRANCH  15  16
TORSDOF 2
ENDMDL
MODEL 6
REMARK VINA RESULT:      -6.4      1.878      2.540
REMARK  Name = ZINC35941652
REMARK  4 active torsions:
REMARK  status: ('A' for Active; 'I' for Inactive)
REMARK    1  A    between atoms: C1_1  and  C2_2
REMARK    2  A    between atoms: C2_2  and  C20_25
REMARK    3  A    between atoms: C7_7  and  C11_12
REMARK    4  A    between atoms: C17_20  and  O4_24
REMARK                            x       y       z     vdW  Elec       q    Type
REMARK                         _______ _______ _______ _____ _____    ______ ____
ROOT
ATOM      9  C   UNL     1      46.134  20.791  18.821  0.00  0.00    +0.240 C 
ATOM     10  C   UNL     1      46.028  21.763  20.006  0.00  0.00    +0.038 C 
ATOM     11  C   UNL     1      44.757  22.570  19.811  0.00  0.00    +0.402 C 
ATOM     12  C   UNL     1      43.583  21.838  19.312  0.00  0.00    -0.265 A 
ATOM     13  C   UNL     1      42.313  22.422  19.338  0.00  0.00    +0.135 A 
ATOM     14  C   UNL     1      41.237  21.726  18.864  0.00  0.00    -0.051 A 
ATOM     15  C   UNL     1      41.401  20.440  18.357  0.00  0.00    +0.181 A 
ATOM     18  C   UNL     1      42.654  19.847  18.327  0.00  0.00    -0.045 A 
ATOM     19  C   UNL     1      43.756  20.537  18.806  0.00  0.00    +0.201 A 
ATOM     20  O   UNL     1      44.711  23.759  20.053  0.00  0.00    -0.442 OA
ATOM     21  O   UNL     1      44.978  19.955  18.790  0.00  0.00    -0.300 OA
ENDROOT
BRANCH   9   8
ATOM      1  C   UNL     1      52.299  18.608  17.911  0.00  0.00    +0.030 C 
ATOM      2  C   UNL     1      52.014  18.180  19.352  0.00  0.00    +0.112 C 
ATOM      3  C   UNL     1      53.079  17.182  19.814  0.00  0.00    +0.075 C 
ATOM      4  C   UNL     1      52.026  19.411  20.269  0.00  0.00    +0.016 C 
ATOM      5  C   UNL     1      51.031  20.432  19.715  0.00  0.00    +0.085 C 
ATOM      6  C   UNL     1      49.720  19.751  19.411  0.00  0.00    -0.159 A 
ATOM      7  C   UNL     1      48.584  20.529  19.262  0.00  0.00    +0.062 A 
ATOM      8  C   UNL     1      47.367  19.939  18.981  0.00  0.00    -0.127 A 
ATOM     22  C   UNL     1      47.280  18.565  18.844  0.00  0.00    +0.078 A 
ATOM     23  C   UNL     1      48.409  17.786  18.993  0.00  0.00    -0.016 A 
ATOM     24  C   UNL     1      49.636  18.376  19.280  0.00  0.00    +0.149 A 
ATOM     25  O   UNL     1      50.722  17.575  19.428  0.00  0.00    -0.307 OA
ENDBRANCH   9   8
BRANCH  15  16
ATOM     16  O   UNL     1      40.324  19.760  17.887  0.00  0.00    -0.494 OA
ATOM     17  H   UNL     1      40.279  19.715  16.922  0.00  0.00    +0.401 HD
ENDBRANCH  15  16
TORSDOF 2
ENDMDL
MODEL 7
REMARK VINA RESULT:      -6.2      5.212      8.526
REMARK  Name = ZINC35941652
REMARK  4 active torsions:
REMARK  status: ('A' for Active; 'I' for Inactive)
REMARK    1  A    between atoms: C1_1  and  C2_2
REMARK    2  A    between atoms: C2_2  and  C20_25
REMARK    3  A    between atoms: C7_7  and  C11_12
REMARK    4  A    between atoms: C17_20  and  O4_24
REMARK                            x       y       z     vdW  Elec       q    Type
REMARK                         _______ _______ _______ _____ _____    ______ ____
ROOT
ATOM      9  C   UNL     1      49.675  18.269  17.397  0.00  0.00    +0.240 C 
ATOM     10  C   UNL     1      51.011  18.101  16.657  0.00  0.00    +0.038 C 
ATOM     11  C   UNL     1      51.828  19.353  16.919  0.00  0.00    +0.402 C 
ATOM     12  C   UNL     1      51.770  19.904  18.282  0.00  0.00    -0.265 A 
ATOM     13  C   UNL     1      52.670  20.892  18.692  0.00  0.00    +0.135 A 
ATOM     14  C   UNL     1      52.594  21.394  19.960  0.00  0.00    -0.051 A 
ATOM     15  C   UNL     1      51.625  20.926  20.844  0.00  0.00    +0.181 A 
ATOM     18  C   UNL     1      50.728  19.944  20.452  0.00  0.00    -0.045 A 
ATOM     19  C   UNL     1      50.792  19.422  19.170  0.00  0.00    +0.201 A 
ATOM     20  O   UNL     1      52.495  19.874  16.050  0.00  0.00    -0.442 OA
ATOM     21  O   UNL     1      49.926  18.454  18.790  0.00  0.00    -0.300 OA
ENDROOT
BRANCH   9   8
ATOM      1  C   UNL     1      47.694  12.468  14.942  0.00  0.00    +0.030 C 
ATOM      2  C   UNL     1      47.127  12.428  16.363  0.00  0.00    +0.112 C 
ATOM      3  C   UNL     1      46.109  11.292  16.480  0.00  0.00    +0.075 C 
ATOM      4  C   UNL     1      48.266  12.208  17.367  0.00  0.00    +0.016 C 
ATOM      5  C   UNL     1      49.318  13.298  17.148  0.00  0.00    +0.085 C 
ATOM      6  C   UNL     1      48.646  14.646  17.077  0.00  0.00    -0.159 A 
ATOM      7  C   UNL     1      49.414  15.784  17.258  0.00  0.00    +0.062 A 
ATOM      8  C   UNL     1      48.833  17.035  17.198  0.00  0.00    -0.127 A 
ATOM     22  C   UNL     1      47.477  17.155  16.953  0.00  0.00    +0.078 A 
ATOM     23  C   UNL     1      46.706  16.025  16.773  0.00  0.00    -0.016 A 
ATOM     24  C   UNL     1      47.288  14.763  16.837  0.00  0.00    +0.149 A 
ATOM     25  O   UNL     1      46.495  13.674  16.664  0.00  0.00    -0.307 OA
ENDBRANCH   9   8
BRANCH  15  16
ATOM     16  O   UNL     1      51.560  21.434  22.101  0.00  0.00    -0.494 OA
ATOM     17  H   UNL     1      52.365  21.303  22.620  0.00  0.00    +0.401 HD
ENDBRANCH  15  16
TORSDOF 2
ENDMDL
MODEL 8
REMARK VINA RESULT:      -6.1      5.274      9.020
REMARK  Name = ZINC35941652
REMARK  4 active torsions:
REMARK  status: ('A' for Active; 'I' for Inactive)
REMARK    1  A    between atoms: C1_1  and  C2_2
REMARK    2  A    between atoms: C2_2  and  C20_25
REMARK    3  A    between atoms: C7_7  and  C11_12
REMARK    4  A    between atoms: C17_20  and  O4_24
REMARK                            x       y       z     vdW  Elec       q    Type
REMARK                         _______ _______ _______ _____ _____    ______ ____
ROOT
ATOM      9  C   UNL     1      47.054  13.981  16.431  0.00  0.00    +0.240 C 
ATOM     10  C   UNL     1      46.558  12.561  16.742  0.00  0.00    +0.038 C 
ATOM     11  C   UNL     1      47.173  11.635  15.708  0.00  0.00    +0.402 C 
ATOM     12  C   UNL     1      48.573  11.896  15.340  0.00  0.00    -0.265 A 
ATOM     13  C   UNL     1      49.302  10.963  14.598  0.00  0.00    +0.135 A 
ATOM     14  C   UNL     1      50.600  11.228  14.262  0.00  0.00    -0.051 A 
ATOM     15  C   UNL     1      51.197  12.422  14.656  0.00  0.00    +0.181 A 
ATOM     18  C   UNL     1      50.487  13.356  15.396  0.00  0.00    -0.045 A 
ATOM     19  C   UNL     1      49.171  13.102  15.747  0.00  0.00    +0.201 A 
ATOM     20  O   UNL     1      46.542  10.727  15.208  0.00  0.00    -0.442 OA
ATOM     21  O   UNL     1      48.480  14.007  16.480  0.00  0.00    -0.300 OA
ENDROOT
BRANCH   9   8
ATOM      1  C   UNL     1      46.778  19.099  20.594  0.00  0.00    +0.030 C 
ATOM      2  C   UNL     1      45.311  18.928  20.194  0.00  0.00    +0.112 C 
ATOM      3  C   UNL     1      44.422  19.734  21.143  0.00  0.00    +0.075 C 
ATOM      4  C   UNL     1      45.108  19.415  18.754  0.00  0.00    +0.016 C 
ATOM      5  C   UNL     1      46.089  18.667  17.850  0.00  0.00    +0.085 C 
ATOM      6  C   UNL     1      46.027  17.189  18.145  0.00  0.00    -0.159 A 
ATOM      7  C   UNL     1      46.536  16.301  17.212  0.00  0.00    +0.062 A 
ATOM      8  C   UNL     1      46.498  14.941  17.451  0.00  0.00    -0.127 A 
ATOM     22  C   UNL     1      45.951  14.462  18.627  0.00  0.00    +0.078 A 
ATOM     23  C   UNL     1      45.441  15.341  19.559  0.00  0.00    -0.016 A 
ATOM     24  C   UNL     1      45.474  16.712  19.321  0.00  0.00    +0.149 A 
ATOM     25  O   UNL     1      44.953  17.546  20.257  0.00  0.00    -0.307 OA
ENDBRANCH   9   8
BRANCH  15  16
ATOM     16  O   UNL     1      52.486  12.674  14.315  0.00  0.00    -0.494 OA
ATOM     17  H   UNL     1      52.819  13.523  14.637  0.00  0.00    +0.401 HD
ENDBRANCH  15  16
TORSDOF 2
ENDMDL
MODEL 9
REMARK VINA RESULT:      -6.0      5.158      7.322
REMARK  Name = ZINC35941652
REMARK  4 active torsions:
REMARK  status: ('A' for Active; 'I' for Inactive)
REMARK    1  A    between atoms: C1_1  and  C2_2
REMARK    2  A    between atoms: C2_2  and  C20_25
REMARK    3  A    between atoms: C7_7  and  C11_12
REMARK    4  A    between atoms: C17_20  and  O4_24
REMARK                            x       y       z     vdW  Elec       q    Type
REMARK                         _______ _______ _______ _____ _____    ______ ____
ROOT
ATOM      9  C   UNL     1      48.349  15.378  17.213  0.00  0.00    +0.240 C 
ATOM     10  C   UNL     1      47.502  14.862  18.385  0.00  0.00    +0.038 C 
ATOM     11  C   UNL     1      46.621  13.750  17.847  0.00  0.00    +0.402 C 
ATOM     12  C   UNL     1      47.241  12.826  16.885  0.00  0.00    -0.265 A 
ATOM     13  C   UNL     1      46.605  11.634  16.526  0.00  0.00    +0.135 A 
ATOM     14  C   UNL     1      47.196  10.794  15.626  0.00  0.00    -0.051 A 
ATOM     15  C   UNL     1      48.429  11.120  15.066  0.00  0.00    +0.181 A 
ATOM     18  C   UNL     1      49.074  12.297  15.414  0.00  0.00    -0.045 A 
ATOM     19  C   UNL     1      48.489  13.160  16.328  0.00  0.00    +0.201 A 
ATOM     20  O   UNL     1      45.463  13.628  18.190  0.00  0.00    -0.442 OA
ATOM     21  O   UNL     1      49.123  14.303  16.680  0.00  0.00    -0.300 OA
ENDROOT
BRANCH   9   8
ATOM      1  C   UNL     1      51.176  21.325  17.694  0.00  0.00    +0.030 C 
ATOM      2  C   UNL     1      51.347  20.771  19.109  0.00  0.00    +0.112 C 
ATOM      3  C   UNL     1      52.350  21.631  19.882  0.00  0.00    +0.075 C 
ATOM      4  C   UNL     1      49.995  20.776  19.833  0.00  0.00    +0.016 C 
ATOM      5  C   UNL     1      48.990  20.000  18.979  0.00  0.00    +0.085 C 
ATOM      6  C   UNL     1      49.593  18.686  18.551  0.00  0.00    -0.159 A 
ATOM      7  C   UNL     1      48.752  17.682  18.102  0.00  0.00    +0.062 A 
ATOM      8  C   UNL     1      49.271  16.467  17.700  0.00  0.00    -0.127 A 
ATOM     22  C   UNL     1      50.636  16.250  17.743  0.00  0.00    +0.078 A 
ATOM     23  C   UNL     1      51.478  17.246  18.191  0.00  0.00    -0.016 A 
ATOM     24  C   UNL     1      50.959  18.471  18.601  0.00  0.00    +0.149 A 
ATOM     25  O   UNL     1      51.819  19.424  19.045  0.00  0.00    -0.307 OA
ENDBRANCH   9   8
BRANCH  15  16
ATOM     16  O   UNL     1      49.005  10.277  14.172  0.00  0.00    -0.494 OA
ATOM     17  H   UNL     1      49.250   9.418  14.543  0.00  0.00    +0.401 HD
ENDBRANCH  15  16
TORSDOF 2
ENDMDL
