MODEL 1
REMARK VINA RESULT:      -6.1      0.000      0.000
REMARK  Name = ZINC14645892
REMARK  9 active torsions:
REMARK  status: ('A' for Active; 'I' for Inactive)
REMARK    1  A    between atoms: C1_1  and  O1_2
REMARK    2  A    between atoms: O1_2  and  C2_3
REMARK    3  A    between atoms: C4_5  and  O7_25
REMARK    4  A    between atoms: C7_9  and  C12_16
REMARK    5  A    between atoms: C10_13  and  O4_14
REMARK    6  A    between atoms: O4_14  and  C11_15
REMARK    7  A    between atoms: C16_20  and  O6_24
REMARK    8  A    between atoms: C17_21  and  O5_22
REMARK    9  A    between atoms: O5_22  and  C18_23
REMARK                            x       y       z     vdW  Elec       q    Type
REMARK                         _______ _______ _______ _____ _____    ______ ____
ROOT
ATOM      3  C   UNL     1      46.217  14.032  18.154  0.00  0.00    +0.192 A 
ATOM      4  C   UNL     1      46.664  14.849  17.121  0.00  0.00    -0.103 A 
ATOM      5  C   UNL     1      46.511  16.220  17.206  0.00  0.00    +0.240 A 
ATOM      8  C   UNL     1      45.914  16.781  18.343  0.00  0.00    -0.276 A 
ATOM      9  C   UNL     1      45.738  18.235  18.474  0.00  0.00    +0.435 A 
ATOM     10  C   UNL     1      45.098  18.720  19.710  0.00  0.00    -0.234 A 
ATOM     21  C   UNL     1      44.713  17.812  20.643  0.00  0.00    +0.330 A 
ATOM     22  O   UNL     1      44.892  16.498  20.485  0.00  0.00    -0.207 OA
ATOM     23  O   UNL     1      46.104  19.005  17.600  0.00  0.00    -0.425 OA
ATOM     24  C   UNL     1      45.467  15.956  19.391  0.00  0.00    +0.182 A 
ATOM     25  C   UNL     1      45.624  14.578  19.284  0.00  0.00    +0.025 A 
ENDROOT
BRANCH  10  11
ATOM     11  C   UNL     1      44.878  20.170  19.930  0.00  0.00    -0.034 A 
ATOM     12  C   UNL     1      45.830  20.926  20.613  0.00  0.00    +0.030 A 
ATOM     13  C   UNL     1      45.625  22.276  20.812  0.00  0.00    +0.028 A 
ATOM     14  C   UNL     1      44.473  22.883  20.346  0.00  0.00    +0.009 A 
ATOM     15  C   UNL     1      43.517  22.140  19.670  0.00  0.00    +0.089 A 
ATOM     18  C   UNL     1      43.715  20.781  19.460  0.00  0.00    +0.098 A 
BRANCH  15  16
ATOM     16  O   UNL     1      42.386  22.743  19.214  0.00  0.00    -0.484 OA
ATOM     17  H   UNL     1      42.230  22.620  18.267  0.00  0.00    +0.387 HD
ENDBRANCH  15  16
BRANCH  18  19
ATOM     19  O   UNL     1      42.779  20.050  18.797  0.00  0.00    -0.317 OA
ATOM     20  C   UNL     1      41.650  19.605  19.552  0.00  0.00    +0.219 C 
ENDBRANCH  18  19
ENDBRANCH  10  11
BRANCH   3   2
ATOM      1  C   UNL     1      45.812  12.051  16.905  0.00  0.00    +0.256 C 
ATOM      2  O   UNL     1      46.368  12.686  18.059  0.00  0.00    -0.292 OA
ENDBRANCH   3   2
BRANCH   5   6
ATOM      6  O   UNL     1      46.942  17.020  16.196  0.00  0.00    -0.471 OA
ATOM      7  H   UNL     1      46.989  17.956  16.429  0.00  0.00    +0.404 HD
ENDBRANCH   5   6
BRANCH  25  26
ATOM     26  O   UNL     1      45.198  13.765  20.290  0.00  0.00    -0.307 OA
ATOM     27  C   UNL     1      46.101  13.549  21.377  0.00  0.00    +0.224 C 
ENDBRANCH  25  26
TORSDOF 6
ENDMDL
MODEL 2
REMARK VINA RESULT:      -5.7      0.952      2.485
REMARK  Name = ZINC14645892
REMARK  9 active torsions:
REMARK  status: ('A' for Active; 'I' for Inactive)
REMARK    1  A    between atoms: C1_1  and  O1_2
REMARK    2  A    between atoms: O1_2  and  C2_3
REMARK    3  A    between atoms: C4_5  and  O7_25
REMARK    4  A    between atoms: C7_9  and  C12_16
REMARK    5  A    between atoms: C10_13  and  O4_14
REMARK    6  A    between atoms: O4_14  and  C11_15
REMARK    7  A    between atoms: C16_20  and  O6_24
REMARK    8  A    between atoms: C17_21  and  O5_22
REMARK    9  A    between atoms: O5_22  and  C18_23
REMARK                            x       y       z     vdW  Elec       q    Type
REMARK                         _______ _______ _______ _____ _____    ______ ____
ROOT
ATOM      3  C   UNL     1      46.187  14.060  18.748  0.00  0.00    +0.192 A 
ATOM      4  C   UNL     1      45.492  14.187  19.946  0.00  0.00    -0.103 A 
ATOM      5  C   UNL     1      45.088  15.433  20.385  0.00  0.00    +0.240 A 
ATOM      8  C   UNL     1      45.374  16.566  19.612  0.00  0.00    -0.276 A 
ATOM      9  C   UNL     1      44.957  17.909  20.042  0.00  0.00    +0.435 A 
ATOM     10  C   UNL     1      45.309  19.032  19.154  0.00  0.00    -0.234 A 
ATOM     21  C   UNL     1      45.987  18.768  18.008  0.00  0.00    +0.330 A 
ATOM     22  O   UNL     1      46.347  17.531  17.654  0.00  0.00    -0.207 OA
ATOM     23  O   UNL     1      44.349  18.086  21.085  0.00  0.00    -0.425 OA
ATOM     24  C   UNL     1      46.073  16.440  18.398  0.00  0.00    +0.182 A 
ATOM     25  C   UNL     1      46.475  15.177  17.975  0.00  0.00    +0.025 A 
ENDROOT
BRANCH  10  11
ATOM     11  C   UNL     1      44.931  20.422  19.506  0.00  0.00    -0.034 A 
ATOM     12  C   UNL     1      45.836  21.245  20.174  0.00  0.00    +0.030 A 
ATOM     13  C   UNL     1      45.483  22.540  20.496  0.00  0.00    +0.028 A 
ATOM     14  C   UNL     1      44.230  23.024  20.167  0.00  0.00    +0.009 A 
ATOM     15  C   UNL     1      43.319  22.213  19.506  0.00  0.00    +0.089 A 
ATOM     18  C   UNL     1      43.665  20.910  19.173  0.00  0.00    +0.098 A 
BRANCH  15  16
ATOM     16  O   UNL     1      42.088  22.695  19.185  0.00  0.00    -0.484 OA
ATOM     17  H   UNL     1      41.361  22.102  19.418  0.00  0.00    +0.387 HD
ENDBRANCH  15  16
BRANCH  18  19
ATOM     19  O   UNL     1      42.775  20.111  18.525  0.00  0.00    -0.317 OA
ATOM     20  C   UNL     1      41.702  19.574  19.301  0.00  0.00    +0.219 C 
ENDBRANCH  18  19
ENDBRANCH  10  11
BRANCH   3   2
ATOM      1  C   UNL     1      45.722  12.151  17.411  0.00  0.00    +0.256 C 
ATOM      2  O   UNL     1      46.583  12.832  18.327  0.00  0.00    -0.292 OA
ENDBRANCH   3   2
BRANCH   5   6
ATOM      6  O   UNL     1      44.413  15.559  21.557  0.00  0.00    -0.471 OA
ATOM      7  H   UNL     1      44.668  16.333  22.076  0.00  0.00    +0.404 HD
ENDBRANCH   5   6
BRANCH  25  26
ATOM     26  O   UNL     1      47.151  15.037  16.801  0.00  0.00    -0.307 OA
ATOM     27  C   UNL     1      48.576  14.944  16.880  0.00  0.00    +0.224 C 
ENDBRANCH  25  26
TORSDOF 6
ENDMDL
MODEL 3
REMARK VINA RESULT:      -5.6      3.010      4.743
REMARK  Name = ZINC14645892
REMARK  9 active torsions:
REMARK  status: ('A' for Active; 'I' for Inactive)
REMARK    1  A    between atoms: C1_1  and  O1_2
REMARK    2  A    between atoms: O1_2  and  C2_3
REMARK    3  A    between atoms: C4_5  and  O7_25
REMARK    4  A    between atoms: C7_9  and  C12_16
REMARK    5  A    between atoms: C10_13  and  O4_14
REMARK    6  A    between atoms: O4_14  and  C11_15
REMARK    7  A    between atoms: C16_20  and  O6_24
REMARK    8  A    between atoms: C17_21  and  O5_22
REMARK    9  A    between atoms: O5_22  and  C18_23
REMARK                            x       y       z     vdW  Elec       q    Type
REMARK                         _______ _______ _______ _____ _____    ______ ____
ROOT
ATOM      3  C   UNL     1      50.371  18.298  17.615  0.00  0.00    +0.192 A 
ATOM      4  C   UNL     1      49.519  17.470  16.890  0.00  0.00    -0.103 A 
ATOM      5  C   UNL     1      48.204  17.313  17.284  0.00  0.00    +0.240 A 
ATOM      8  C   UNL     1      47.732  18.000  18.411  0.00  0.00    -0.276 A 
ATOM      9  C   UNL     1      46.338  17.863  18.859  0.00  0.00    +0.435 A 
ATOM     10  C   UNL     1      45.945  18.630  20.055  0.00  0.00    -0.234 A 
ATOM     21  C   UNL     1      46.877  19.406  20.666  0.00  0.00    +0.330 A 
ATOM     22  O   UNL     1      48.134  19.502  20.225  0.00  0.00    -0.207 OA
ATOM     23  O   UNL     1      45.544  17.149  18.269  0.00  0.00    -0.425 OA
ATOM     24  C   UNL     1      48.590  18.841  19.141  0.00  0.00    +0.182 A 
ATOM     25  C   UNL     1      49.912  18.982  18.732  0.00  0.00    +0.025 A 
ENDROOT
BRANCH  10  11
ATOM     11  C   UNL     1      44.561  18.554  20.581  0.00  0.00    -0.034 A 
ATOM     12  C   UNL     1      44.231  17.607  21.550  0.00  0.00    +0.030 A 
ATOM     13  C   UNL     1      42.944  17.542  22.042  0.00  0.00    +0.028 A 
ATOM     14  C   UNL     1      41.972  18.407  21.571  0.00  0.00    +0.009 A 
ATOM     15  C   UNL     1      42.287  19.350  20.603  0.00  0.00    +0.089 A 
ATOM     18  C   UNL     1      43.581  19.428  20.105  0.00  0.00    +0.098 A 
BRANCH  15  16
ATOM     16  O   UNL     1      41.328  20.199  20.144  0.00  0.00    -0.484 OA
ATOM     17  H   UNL     1      40.595  19.757  19.693  0.00  0.00    +0.387 HD
ENDBRANCH  15  16
BRANCH  18  19
ATOM     19  O   UNL     1      43.893  20.351  19.156  0.00  0.00    -0.317 OA
ATOM     20  C   UNL     1      44.193  21.672  19.611  0.00  0.00    +0.219 C 
ENDBRANCH  18  19
ENDBRANCH  10  11
BRANCH   3   2
ATOM      1  C   UNL     1      51.893  19.123  15.987  0.00  0.00    +0.256 C 
ATOM      2  O   UNL     1      51.663  18.442  17.223  0.00  0.00    -0.292 OA
ENDBRANCH   3   2
BRANCH   5   6
ATOM      6  O   UNL     1      47.372  16.502  16.581  0.00  0.00    -0.471 OA
ATOM      7  H   UNL     1      46.443  16.760  16.623  0.00  0.00    +0.404 HD
ENDBRANCH   5   6
BRANCH  25  26
ATOM     26  O   UNL     1      50.756  19.793  19.428  0.00  0.00    -0.307 OA
ATOM     27  C   UNL     1      50.872  21.146  18.980  0.00  0.00    +0.224 C 
ENDBRANCH  25  26
TORSDOF 6
ENDMDL
MODEL 4
REMARK VINA RESULT:      -5.4      1.902      2.653
REMARK  Name = ZINC14645892
REMARK  9 active torsions:
REMARK  status: ('A' for Active; 'I' for Inactive)
REMARK    1  A    between atoms: C1_1  and  O1_2
REMARK    2  A    between atoms: O1_2  and  C2_3
REMARK    3  A    between atoms: C4_5  and  O7_25
REMARK    4  A    between atoms: C7_9  and  C12_16
REMARK    5  A    between atoms: C10_13  and  O4_14
REMARK    6  A    between atoms: O4_14  and  C11_15
REMARK    7  A    between atoms: C16_20  and  O6_24
REMARK    8  A    between atoms: C17_21  and  O5_22
REMARK    9  A    between atoms: O5_22  and  C18_23
REMARK                            x       y       z     vdW  Elec       q    Type
REMARK                         _______ _______ _______ _____ _____    ______ ____
ROOT
ATOM      3  C   UNL     1      47.197  15.172  20.567  0.00  0.00    +0.192 A 
ATOM      4  C   UNL     1      47.528  15.743  19.343  0.00  0.00    -0.103 A 
ATOM      5  C   UNL     1      46.779  16.789  18.839  0.00  0.00    +0.240 A 
ATOM      8  C   UNL     1      45.691  17.278  19.575  0.00  0.00    -0.276 A 
ATOM      9  C   UNL     1      44.872  18.393  19.077  0.00  0.00    +0.435 A 
ATOM     10  C   UNL     1      43.752  18.830  19.930  0.00  0.00    -0.234 A 
ATOM     21  C   UNL     1      43.542  18.189  21.108  0.00  0.00    +0.330 A 
ATOM     22  O   UNL     1      44.311  17.179  21.524  0.00  0.00    -0.207 OA
ATOM     23  O   UNL     1      45.109  18.932  18.008  0.00  0.00    -0.425 OA
ATOM     24  C   UNL     1      45.358  16.706  20.816  0.00  0.00    +0.182 A 
ATOM     25  C   UNL     1      46.121  15.651  21.304  0.00  0.00    +0.025 A 
ENDROOT
BRANCH  10  11
ATOM     11  C   UNL     1      42.872  19.947  19.509  0.00  0.00    -0.034 A 
ATOM     12  C   UNL     1      41.584  19.684  19.045  0.00  0.00    +0.030 A 
ATOM     13  C   UNL     1      40.764  20.726  18.659  0.00  0.00    +0.028 A 
ATOM     14  C   UNL     1      41.218  22.031  18.721  0.00  0.00    +0.009 A 
ATOM     15  C   UNL     1      42.499  22.303  19.177  0.00  0.00    +0.089 A 
ATOM     18  C   UNL     1      43.331  21.263  19.573  0.00  0.00    +0.098 A 
BRANCH  15  16
ATOM     16  O   UNL     1      42.940  23.589  19.237  0.00  0.00    -0.484 OA
ATOM     17  H   UNL     1      43.267  23.852  20.108  0.00  0.00    +0.387 HD
ENDBRANCH  15  16
BRANCH  18  19
ATOM     19  O   UNL     1      44.588  21.527  20.020  0.00  0.00    -0.317 OA
ATOM     20  C   UNL     1      44.734  21.818  21.412  0.00  0.00    +0.219 C 
ENDBRANCH  18  19
ENDBRANCH  10  11
BRANCH   3   2
ATOM      1  C   UNL     1      47.967  12.944  20.272  0.00  0.00    +0.256 C 
ATOM      2  O   UNL     1      47.937  14.142  21.051  0.00  0.00    -0.292 OA
ENDBRANCH   3   2
BRANCH   5   6
ATOM      6  O   UNL     1      47.097  17.344  17.641  0.00  0.00    -0.471 OA
ATOM      7  H   UNL     1      46.836  18.270  17.555  0.00  0.00    +0.404 HD
ENDBRANCH   5   6
BRANCH  25  26
ATOM     26  O   UNL     1      45.814  15.086  22.504  0.00  0.00    -0.307 OA
ATOM     27  C   UNL     1      44.953  13.945  22.483  0.00  0.00    +0.224 C 
ENDBRANCH  25  26
TORSDOF 6
ENDMDL
MODEL 5
REMARK VINA RESULT:      -5.2      4.050      6.738
REMARK  Name = ZINC14645892
REMARK  9 active torsions:
REMARK  status: ('A' for Active; 'I' for Inactive)
REMARK    1  A    between atoms: C1_1  and  O1_2
REMARK    2  A    between atoms: O1_2  and  C2_3
REMARK    3  A    between atoms: C4_5  and  O7_25
REMARK    4  A    between atoms: C7_9  and  C12_16
REMARK    5  A    between atoms: C10_13  and  O4_14
REMARK    6  A    between atoms: O4_14  and  C11_15
REMARK    7  A    between atoms: C16_20  and  O6_24
REMARK    8  A    between atoms: C17_21  and  O5_22
REMARK    9  A    between atoms: O5_22  and  C18_23
REMARK                            x       y       z     vdW  Elec       q    Type
REMARK                         _______ _______ _______ _____ _____    ______ ____
ROOT
ATOM      3  C   UNL     1      44.058  19.217  21.058  0.00  0.00    +0.192 A 
ATOM      4  C   UNL     1      44.175  18.323  19.999  0.00  0.00    -0.103 A 
ATOM      5  C   UNL     1      45.349  18.256  19.274  0.00  0.00    +0.240 A 
ATOM      8  C   UNL     1      46.424  19.086  19.619  0.00  0.00    -0.276 A 
ATOM      9  C   UNL     1      47.692  19.041  18.876  0.00  0.00    +0.435 A 
ATOM     10  C   UNL     1      48.758  19.956  19.322  0.00  0.00    -0.234 A 
ATOM     21  C   UNL     1      48.513  20.777  20.376  0.00  0.00    +0.330 A 
ATOM     22  O   UNL     1      47.345  20.785  21.024  0.00  0.00    -0.207 OA
ATOM     23  O   UNL     1      47.855  18.282  17.935  0.00  0.00    -0.425 OA
ATOM     24  C   UNL     1      46.309  19.987  20.693  0.00  0.00    +0.182 A 
ATOM     25  C   UNL     1      45.118  20.043  21.407  0.00  0.00    +0.025 A 
ENDROOT
BRANCH  10  11
ATOM     11  C   UNL     1      50.071  19.983  18.632  0.00  0.00    -0.034 A 
ATOM     12  C   UNL     1      50.389  21.034  17.775  0.00  0.00    +0.030 A 
ATOM     13  C   UNL     1      51.614  21.059  17.138  0.00  0.00    +0.028 A 
ATOM     14  C   UNL     1      52.525  20.038  17.339  0.00  0.00    +0.009 A 
ATOM     15  C   UNL     1      52.217  18.984  18.186  0.00  0.00    +0.089 A 
ATOM     18  C   UNL     1      50.990  18.951  18.836  0.00  0.00    +0.098 A 
BRANCH  15  16
ATOM     16  O   UNL     1      53.117  17.983  18.381  0.00  0.00    -0.484 OA
ATOM     17  H   UNL     1      53.695  17.821  17.622  0.00  0.00    +0.387 HD
ENDBRANCH  15  16
BRANCH  18  19
ATOM     19  O   UNL     1      50.684  17.919  19.667  0.00  0.00    -0.317 OA
ATOM     20  C   UNL     1      51.117  18.029  21.024  0.00  0.00    +0.219 C 
ENDBRANCH  18  19
ENDBRANCH  10  11
BRANCH   3   2
ATOM      1  C   UNL     1      41.702  18.902  21.075  0.00  0.00    +0.256 C 
ATOM      2  O   UNL     1      42.898  19.278  21.762  0.00  0.00    -0.292 OA
ENDBRANCH   3   2
BRANCH   5   6
ATOM      6  O   UNL     1      45.464  17.387  18.237  0.00  0.00    -0.471 OA
ATOM      7  H   UNL     1      46.362  17.300  17.894  0.00  0.00    +0.404 HD
ENDBRANCH   5   6
BRANCH  25  26
ATOM     26  O   UNL     1      44.990  20.909  22.451  0.00  0.00    -0.307 OA
ATOM     27  C   UNL     1      44.713  22.275  22.131  0.00  0.00    +0.224 C 
ENDBRANCH  25  26
TORSDOF 6
ENDMDL
MODEL 6
REMARK VINA RESULT:      -5.2      1.834      3.434
REMARK  Name = ZINC14645892
REMARK  9 active torsions:
REMARK  status: ('A' for Active; 'I' for Inactive)
REMARK    1  A    between atoms: C1_1  and  O1_2
REMARK    2  A    between atoms: O1_2  and  C2_3
REMARK    3  A    between atoms: C4_5  and  O7_25
REMARK    4  A    between atoms: C7_9  and  C12_16
REMARK    5  A    between atoms: C10_13  and  O4_14
REMARK    6  A    between atoms: O4_14  and  C11_15
REMARK    7  A    between atoms: C16_20  and  O6_24
REMARK    8  A    between atoms: C17_21  and  O5_22
REMARK    9  A    between atoms: O5_22  and  C18_23
REMARK                            x       y       z     vdW  Elec       q    Type
REMARK                         _______ _______ _______ _____ _____    ______ ____
ROOT
ATOM      3  C   UNL     1      45.896  14.416  18.819  0.00  0.00    +0.192 A 
ATOM      4  C   UNL     1      45.214  14.560  20.023  0.00  0.00    -0.103 A 
ATOM      5  C   UNL     1      44.964  15.821  20.531  0.00  0.00    +0.240 A 
ATOM      8  C   UNL     1      45.391  16.951  19.822  0.00  0.00    -0.276 A 
ATOM      9  C   UNL     1      45.140  18.309  20.327  0.00  0.00    +0.435 A 
ATOM     10  C   UNL     1      45.632  19.427  19.502  0.00  0.00    -0.234 A 
ATOM     21  C   UNL     1      46.279  19.146  18.342  0.00  0.00    +0.330 A 
ATOM     22  O   UNL     1      46.487  17.896  17.920  0.00  0.00    -0.207 OA
ATOM     23  O   UNL     1      44.551  18.502  21.378  0.00  0.00    -0.425 OA
ATOM     24  C   UNL     1      46.076  16.807  18.602  0.00  0.00    +0.182 A 
ATOM     25  C   UNL     1      46.323  15.530  18.109  0.00  0.00    +0.025 A 
ENDROOT
BRANCH  10  11
ATOM     11  C   UNL     1      45.425  20.832  19.931  0.00  0.00    -0.034 A 
ATOM     12  C   UNL     1      44.347  21.563  19.434  0.00  0.00    +0.030 A 
ATOM     13  C   UNL     1      44.154  22.869  19.838  0.00  0.00    +0.028 A 
ATOM     14  C   UNL     1      45.032  23.460  20.728  0.00  0.00    +0.009 A 
ATOM     15  C   UNL     1      46.111  22.744  21.225  0.00  0.00    +0.089 A 
ATOM     18  C   UNL     1      46.312  21.428  20.829  0.00  0.00    +0.098 A 
BRANCH  15  16
ATOM     16  O   UNL     1      46.971  23.331  22.101  0.00  0.00    -0.484 OA
ATOM     17  H   UNL     1      46.590  23.495  22.975  0.00  0.00    +0.387 HD
ENDBRANCH  15  16
BRANCH  18  19
ATOM     19  O   UNL     1      47.369  20.723  21.314  0.00  0.00    -0.317 OA
ATOM     20  C   UNL     1      48.617  20.875  20.635  0.00  0.00    +0.219 C 
ENDBRANCH  18  19
ENDBRANCH  10  11
BRANCH   3   2
ATOM      1  C   UNL     1      45.082  12.541  17.606  0.00  0.00    +0.256 C 
ATOM      2  O   UNL     1      46.141  13.173  18.330  0.00  0.00    -0.292 OA
ENDBRANCH   3   2
BRANCH   5   6
ATOM      6  O   UNL     1      44.302  15.964  21.709  0.00  0.00    -0.471 OA
ATOM      7  H   UNL     1      44.274  15.160  22.244  0.00  0.00    +0.404 HD
ENDBRANCH   5   6
BRANCH  25  26
ATOM     26  O   UNL     1      46.984  15.372  16.929  0.00  0.00    -0.307 OA
ATOM     27  C   UNL     1      48.400  15.188  16.998  0.00  0.00    +0.224 C 
ENDBRANCH  25  26
TORSDOF 6
ENDMDL
MODEL 7
REMARK VINA RESULT:      -5.1      1.617      2.329
REMARK  Name = ZINC14645892
REMARK  9 active torsions:
REMARK  status: ('A' for Active; 'I' for Inactive)
REMARK    1  A    between atoms: C1_1  and  O1_2
REMARK    2  A    between atoms: O1_2  and  C2_3
REMARK    3  A    between atoms: C4_5  and  O7_25
REMARK    4  A    between atoms: C7_9  and  C12_16
REMARK    5  A    between atoms: C10_13  and  O4_14
REMARK    6  A    between atoms: O4_14  and  C11_15
REMARK    7  A    between atoms: C16_20  and  O6_24
REMARK    8  A    between atoms: C17_21  and  O5_22
REMARK    9  A    between atoms: O5_22  and  C18_23
REMARK                            x       y       z     vdW  Elec       q    Type
REMARK                         _______ _______ _______ _____ _____    ______ ____
ROOT
ATOM      3  C   UNL     1      45.853  14.534  18.859  0.00  0.00    +0.192 A 
ATOM      4  C   UNL     1      46.308  15.252  17.757  0.00  0.00    -0.103 A 
ATOM      5  C   UNL     1      46.237  16.632  17.751  0.00  0.00    +0.240 A 
ATOM      8  C   UNL     1      45.714  17.303  18.864  0.00  0.00    -0.276 A 
ATOM      9  C   UNL     1      45.627  18.771  18.898  0.00  0.00    +0.435 A 
ATOM     10  C   UNL     1      45.061  19.376  20.117  0.00  0.00    -0.234 A 
ATOM     21  C   UNL     1      44.658  18.558  21.123  0.00  0.00    +0.330 A 
ATOM     22  O   UNL     1      44.755  17.228  21.051  0.00  0.00    -0.207 OA
ATOM     23  O   UNL     1      46.005  19.456  17.962  0.00  0.00    -0.425 OA
ATOM     24  C   UNL     1      45.258  16.580  19.980  0.00  0.00    +0.182 A 
ATOM     25  C   UNL     1      45.333  15.191  19.966  0.00  0.00    +0.025 A 
ENDROOT
BRANCH  10  11
ATOM     11  C   UNL     1      44.932  20.848  20.242  0.00  0.00    -0.034 A 
ATOM     12  C   UNL     1      43.836  21.505  19.685  0.00  0.00    +0.030 A 
ATOM     13  C   UNL     1      43.716  22.874  19.807  0.00  0.00    +0.028 A 
ATOM     14  C   UNL     1      44.686  23.603  20.471  0.00  0.00    +0.009 A 
ATOM     15  C   UNL     1      45.784  22.961  21.025  0.00  0.00    +0.089 A 
ATOM     18  C   UNL     1      45.912  21.583  20.913  0.00  0.00    +0.098 A 
BRANCH  15  16
ATOM     16  O   UNL     1      46.734  23.683  21.679  0.00  0.00    -0.484 OA
ATOM     17  H   UNL     1      46.427  24.547  21.989  0.00  0.00    +0.387 HD
ENDBRANCH  15  16
BRANCH  18  19
ATOM     19  O   UNL     1      46.987  20.951  21.455  0.00  0.00    -0.317 OA
ATOM     20  C   UNL     1      48.186  20.927  20.677  0.00  0.00    +0.219 C 
ENDBRANCH  18  19
ENDBRANCH  10  11
BRANCH   3   2
ATOM      1  C   UNL     1      45.579  12.516  17.634  0.00  0.00    +0.256 C 
ATOM      2  O   UNL     1      45.922  13.178  18.854  0.00  0.00    -0.292 OA
ENDBRANCH   3   2
BRANCH   5   6
ATOM      6  O   UNL     1      46.677  17.334  16.674  0.00  0.00    -0.471 OA
ATOM      7  H   UNL     1      47.130  18.156  16.900  0.00  0.00    +0.404 HD
ENDBRANCH   5   6
BRANCH  25  26
ATOM     26  O   UNL     1      44.897  14.476  21.039  0.00  0.00    -0.307 OA
ATOM     27  C   UNL     1      45.851  14.203  22.068  0.00  0.00    +0.224 C 
ENDBRANCH  25  26
TORSDOF 6
ENDMDL
MODEL 8
REMARK VINA RESULT:      -5.1      3.398      6.082
REMARK  Name = ZINC14645892
REMARK  9 active torsions:
REMARK  status: ('A' for Active; 'I' for Inactive)
REMARK    1  A    between atoms: C1_1  and  O1_2
REMARK    2  A    between atoms: O1_2  and  C2_3
REMARK    3  A    between atoms: C4_5  and  O7_25
REMARK    4  A    between atoms: C7_9  and  C12_16
REMARK    5  A    between atoms: C10_13  and  O4_14
REMARK    6  A    between atoms: O4_14  and  C11_15
REMARK    7  A    between atoms: C16_20  and  O6_24
REMARK    8  A    between atoms: C17_21  and  O5_22
REMARK    9  A    between atoms: O5_22  and  C18_23
REMARK                            x       y       z     vdW  Elec       q    Type
REMARK                         _______ _______ _______ _____ _____    ______ ____
ROOT
ATOM      3  C   UNL     1      43.439  19.050  21.247  0.00  0.00    +0.192 A 
ATOM      4  C   UNL     1      43.406  20.083  20.316  0.00  0.00    -0.103 A 
ATOM      5  C   UNL     1      44.566  20.478  19.677  0.00  0.00    +0.240 A 
ATOM      8  C   UNL     1      45.772  19.825  19.966  0.00  0.00    -0.276 A 
ATOM      9  C   UNL     1      47.027  20.212  19.303  0.00  0.00    +0.435 A 
ATOM     10  C   UNL     1      48.237  19.460  19.679  0.00  0.00    -0.234 A 
ATOM     21  C   UNL     1      48.128  18.469  20.601  0.00  0.00    +0.330 A 
ATOM     22  O   UNL     1      46.967  18.149  21.178  0.00  0.00    -0.207 OA
ATOM     23  O   UNL     1      47.064  21.113  18.481  0.00  0.00    -0.425 OA
ATOM     24  C   UNL     1      45.806  18.777  20.902  0.00  0.00    +0.182 A 
ATOM     25  C   UNL     1      44.629  18.397  21.539  0.00  0.00    +0.025 A 
ENDROOT
BRANCH  10  11
ATOM     11  C   UNL     1      49.548  19.780  19.064  0.00  0.00    -0.034 A 
ATOM     12  C   UNL     1      50.309  20.842  19.552  0.00  0.00    +0.030 A 
ATOM     13  C   UNL     1      51.531  21.135  18.981  0.00  0.00    +0.028 A 
ATOM     14  C   UNL     1      52.002  20.385  17.919  0.00  0.00    +0.009 A 
ATOM     15  C   UNL     1      51.252  19.329  17.422  0.00  0.00    +0.089 A 
ATOM     18  C   UNL     1      50.023  19.023  17.992  0.00  0.00    +0.098 A 
BRANCH  15  16
ATOM     16  O   UNL     1      51.721  18.595  16.377  0.00  0.00    -0.484 OA
ATOM     17  H   UNL     1      51.942  19.120  15.595  0.00  0.00    +0.387 HD
ENDBRANCH  15  16
BRANCH  18  19
ATOM     19  O   UNL     1      49.285  17.988  17.507  0.00  0.00    -0.317 OA
ATOM     20  C   UNL     1      49.711  16.669  17.852  0.00  0.00    +0.219 C 
ENDBRANCH  18  19
ENDBRANCH  10  11
BRANCH   3   2
ATOM      1  C   UNL     1      41.072  18.853  21.154  0.00  0.00    +0.256 C 
ATOM      2  O   UNL     1      42.294  18.672  21.873  0.00  0.00    -0.292 OA
ENDBRANCH   3   2
BRANCH   5   6
ATOM      6  O   UNL     1      44.537  21.489  18.771  0.00  0.00    -0.471 OA
ATOM      7  H   UNL     1      45.381  21.946  18.665  0.00  0.00    +0.404 HD
ENDBRANCH   5   6
BRANCH  25  26
ATOM     26  O   UNL     1      44.644  17.383  22.448  0.00  0.00    -0.307 OA
ATOM     27  C   UNL     1      44.452  16.059  21.947  0.00  0.00    +0.224 C 
ENDBRANCH  25  26
TORSDOF 6
ENDMDL
MODEL 9
REMARK VINA RESULT:      -5.0      2.256      7.274
REMARK  Name = ZINC14645892
REMARK  9 active torsions:
REMARK  status: ('A' for Active; 'I' for Inactive)
REMARK    1  A    between atoms: C1_1  and  O1_2
REMARK    2  A    between atoms: O1_2  and  C2_3
REMARK    3  A    between atoms: C4_5  and  O7_25
REMARK    4  A    between atoms: C7_9  and  C12_16
REMARK    5  A    between atoms: C10_13  and  O4_14
REMARK    6  A    between atoms: O4_14  and  C11_15
REMARK    7  A    between atoms: C16_20  and  O6_24
REMARK    8  A    between atoms: C17_21  and  O5_22
REMARK    9  A    between atoms: O5_22  and  C18_23
REMARK                            x       y       z     vdW  Elec       q    Type
REMARK                         _______ _______ _______ _____ _____    ______ ____
ROOT
ATOM      3  C   UNL     1      43.671  18.220  20.958  0.00  0.00    +0.192 A 
ATOM      4  C   UNL     1      43.939  17.015  21.599  0.00  0.00    -0.103 A 
ATOM      5  C   UNL     1      44.775  16.087  21.009  0.00  0.00    +0.240 A 
ATOM      8  C   UNL     1      45.359  16.371  19.768  0.00  0.00    -0.276 A 
ATOM      9  C   UNL     1      46.260  15.412  19.110  0.00  0.00    +0.435 A 
ATOM     10  C   UNL     1      46.820  15.811  17.807  0.00  0.00    -0.234 A 
ATOM     21  C   UNL     1      46.479  17.021  17.294  0.00  0.00    +0.330 A 
ATOM     22  O   UNL     1      45.657  17.863  17.925  0.00  0.00    -0.207 OA
ATOM     23  O   UNL     1      46.530  14.336  19.619  0.00  0.00    -0.425 OA
ATOM     24  C   UNL     1      45.094  17.591  19.120  0.00  0.00    +0.182 A 
ATOM     25  C   UNL     1      44.245  18.511  19.727  0.00  0.00    +0.025 A 
ENDROOT
BRANCH  10  11
ATOM     11  C   UNL     1      47.736  14.908  17.069  0.00  0.00    -0.034 A 
ATOM     12  C   UNL     1      47.222  13.955  16.191  0.00  0.00    +0.030 A 
ATOM     13  C   UNL     1      48.078  13.119  15.502  0.00  0.00    +0.028 A 
ATOM     14  C   UNL     1      49.445  13.215  15.684  0.00  0.00    +0.009 A 
ATOM     15  C   UNL     1      49.968  14.157  16.559  0.00  0.00    +0.089 A 
ATOM     18  C   UNL     1      49.117  15.006  17.254  0.00  0.00    +0.098 A 
BRANCH  15  16
ATOM     16  O   UNL     1      51.314  14.247  16.735  0.00  0.00    -0.484 OA
ATOM     17  H   UNL     1      51.683  13.561  17.308  0.00  0.00    +0.387 HD
ENDBRANCH  15  16
BRANCH  18  19
ATOM     19  O   UNL     1      49.626  15.930  18.113  0.00  0.00    -0.317 OA
ATOM     20  C   UNL     1      50.125  17.141  17.541  0.00  0.00    +0.219 C 
ENDBRANCH  18  19
ENDBRANCH  10  11
BRANCH   3   2
ATOM      1  C   UNL     1      41.439  18.936  21.354  0.00  0.00    +0.256 C 
ATOM      2  O   UNL     1      42.844  19.124  21.543  0.00  0.00    -0.292 OA
ENDBRANCH   3   2
BRANCH   5   6
ATOM      6  O   UNL     1      45.035  14.908  21.632  0.00  0.00    -0.471 OA
ATOM      7  H   UNL     1      44.522  14.768  22.438  0.00  0.00    +0.404 HD
ENDBRANCH   5   6
BRANCH  25  26
ATOM     26  O   UNL     1      43.978  19.697  19.115  0.00  0.00    -0.307 OA
ATOM     27  C   UNL     1      44.873  20.780  19.378  0.00  0.00    +0.224 C 
ENDBRANCH  25  26
TORSDOF 6
ENDMDL
