MODEL 1
REMARK VINA RESULT:      -6.7      0.000      0.000
REMARK  Name = ZINC05854604
REMARK  5 active torsions:
REMARK  status: ('A' for Active; 'I' for Inactive)
REMARK    1  A    between atoms: C1_1  and  C2_2
REMARK    2  A    between atoms: C2_2  and  C22_28
REMARK    3  A    between atoms: C3_3  and  C4_4
REMARK    4  A    between atoms: C4_4  and  C5_5
REMARK    5  A    between atoms: C6_6  and  O4_27
REMARK                            x       y       z     vdW  Elec       q    Type
REMARK                         _______ _______ _______ _____ _____    ______ ____
ROOT
ATOM      6  C   UNL     1      50.530  17.363  17.783  0.00  0.00    -0.107 A 
ATOM      7  C   UNL     1      50.857  16.117  17.255  0.00  0.00    +0.145 A 
ATOM     10  C   UNL     1      49.888  15.167  16.980  0.00  0.00    -0.033 A 
ATOM     11  C   UNL     1      48.543  15.417  17.214  0.00  0.00    +0.090 A 
ATOM     12  C   UNL     1      48.208  16.648  17.734  0.00  0.00    -0.162 A 
ATOM     13  C   UNL     1      46.912  17.274  18.093  0.00  0.00    -0.014 C 
ATOM     14  C   UNL     1      45.839  16.446  18.756  0.00  0.00    +0.277 C 
ATOM     15  O   UNL     1      44.876  17.317  19.360  0.00  0.00    -0.321 OA
ATOM     16  C   UNL     1      44.992  18.669  19.329  0.00  0.00    +0.167 A 
ATOM     17  C   UNL     1      46.268  19.270  19.283  0.00  0.00    -0.172 A 
ATOM     18  C   UNL     1      46.450  20.620  19.295  0.00  0.00    +0.141 A 
ATOM     19  C   UNL     1      45.300  21.410  19.382  0.00  0.00    -0.165 A 
ATOM     20  C   UNL     1      45.089  22.850  19.424  0.00  0.00    -0.034 A 
ATOM     21  C   UNL     1      43.759  23.026  19.506  0.00  0.00    +0.206 A 
ATOM     22  O   UNL     1      43.129  21.833  19.519  0.00  0.00    -0.187 OA
ATOM     23  C   UNL     1      44.010  20.831  19.450  0.00  0.00    +0.088 A 
ATOM     24  C   UNL     1      43.840  19.445  19.386  0.00  0.00    +0.017 A 
ATOM     25  C   UNL     1      47.404  18.303  19.179  0.00  0.00    +0.226 C 
ATOM     26  O   UNL     1      48.621  18.732  18.583  0.00  0.00    -0.276 OA
ATOM     27  C   UNL     1      49.188  17.620  18.035  0.00  0.00    +0.116 A 
ENDROOT
BRANCH   7   8
ATOM      8  O   UNL     1      52.160  15.828  17.001  0.00  0.00    -0.491 OA
ATOM      9  H   UNL     1      52.289  15.194  16.282  0.00  0.00    +0.393 HD
ENDBRANCH   7   8
BRANCH   6   5
ATOM      5  C   UNL     1      51.591  18.392  18.078  0.00  0.00    +0.129 C 
BRANCH   5   4
ATOM      1  C   UNL     1      51.155  21.155  18.432  0.00  0.00    +0.076 C 
ATOM      2  C   UNL     1      51.458  20.607  17.061  0.00  0.00    -0.127 C 
ATOM      3  C   UNL     1      51.464  21.526  15.867  0.00  0.00    +0.073 C 
ATOM      4  C   UNL     1      51.719  19.332  16.908  0.00  0.00    -0.056 C 
ENDBRANCH   5   4
ENDBRANCH   6   5
TORSDOF 3
ENDMDL
MODEL 2
REMARK VINA RESULT:      -6.5      2.250      7.535
REMARK  Name = ZINC05854604
REMARK  5 active torsions:
REMARK  status: ('A' for Active; 'I' for Inactive)
REMARK    1  A    between atoms: C1_1  and  C2_2
REMARK    2  A    between atoms: C2_2  and  C22_28
REMARK    3  A    between atoms: C3_3  and  C4_4
REMARK    4  A    between atoms: C4_4  and  C5_5
REMARK    5  A    between atoms: C6_6  and  O4_27
REMARK                            x       y       z     vdW  Elec       q    Type
REMARK                         _______ _______ _______ _____ _____    ______ ____
ROOT
ATOM      6  C   UNL     1      43.448  18.808  20.548  0.00  0.00    -0.107 A 
ATOM      7  C   UNL     1      42.601  18.398  21.574  0.00  0.00    +0.145 A 
ATOM     10  C   UNL     1      42.817  17.220  22.269  0.00  0.00    -0.033 A 
ATOM     11  C   UNL     1      43.896  16.395  21.975  0.00  0.00    +0.090 A 
ATOM     12  C   UNL     1      44.742  16.793  20.964  0.00  0.00    -0.162 A 
ATOM     13  C   UNL     1      45.975  16.205  20.389  0.00  0.00    -0.014 C 
ATOM     14  C   UNL     1      46.073  14.712  20.194  0.00  0.00    +0.277 C 
ATOM     15  O   UNL     1      47.138  14.422  19.283  0.00  0.00    -0.321 OA
ATOM     16  C   UNL     1      47.884  15.394  18.698  0.00  0.00    +0.167 A 
ATOM     17  C   UNL     1      47.321  16.662  18.441  0.00  0.00    -0.172 A 
ATOM     18  C   UNL     1      48.006  17.662  17.818  0.00  0.00    +0.141 A 
ATOM     19  C   UNL     1      49.310  17.373  17.409  0.00  0.00    -0.165 A 
ATOM     20  C   UNL     1      50.331  18.156  16.727  0.00  0.00    -0.034 A 
ATOM     21  C   UNL     1      51.397  17.347  16.603  0.00  0.00    +0.206 A 
ATOM     22  O   UNL     1      51.131  16.139  17.143  0.00  0.00    -0.187 OA
ATOM     23  C   UNL     1      49.891  16.102  17.637  0.00  0.00    +0.088 A 
ATOM     24  C   UNL     1      49.192  15.104  18.322  0.00  0.00    +0.017 A 
ATOM     25  C   UNL     1      45.924  16.832  18.946  0.00  0.00    +0.226 C 
ATOM     26  O   UNL     1      45.460  18.139  19.257  0.00  0.00    -0.276 OA
ATOM     27  C   UNL     1      44.522  17.984  20.236  0.00  0.00    +0.116 A 
ENDROOT
BRANCH   7   8
ATOM      8  O   UNL     1      41.536  19.175  21.903  0.00  0.00    -0.491 OA
ATOM      9  H   UNL     1      41.719  20.125  21.875  0.00  0.00    +0.393 HD
ENDBRANCH   7   8
BRANCH   6   5
ATOM      5  C   UNL     1      43.205  20.093  19.799  0.00  0.00    +0.129 C 
BRANCH   5   4
ATOM      1  C   UNL     1      41.946  22.470  18.952  0.00  0.00    +0.076 C 
ATOM      2  C   UNL     1      41.248  21.144  18.786  0.00  0.00    -0.127 C 
ATOM      3  C   UNL     1      39.849  21.094  18.228  0.00  0.00    +0.073 C 
ATOM      4  C   UNL     1      41.858  20.036  19.126  0.00  0.00    -0.056 C 
ENDBRANCH   5   4
ENDBRANCH   6   5
TORSDOF 3
ENDMDL
MODEL 3
REMARK VINA RESULT:      -6.3      2.146      7.969
REMARK  Name = ZINC05854604
REMARK  5 active torsions:
REMARK  status: ('A' for Active; 'I' for Inactive)
REMARK    1  A    between atoms: C1_1  and  C2_2
REMARK    2  A    between atoms: C2_2  and  C22_28
REMARK    3  A    between atoms: C3_3  and  C4_4
REMARK    4  A    between atoms: C4_4  and  C5_5
REMARK    5  A    between atoms: C6_6  and  O4_27
REMARK                            x       y       z     vdW  Elec       q    Type
REMARK                         _______ _______ _______ _____ _____    ______ ____
ROOT
ATOM      6  C   UNL     1      44.765  21.388  19.807  0.00  0.00    -0.107 A 
ATOM      7  C   UNL     1      44.408  22.572  20.445  0.00  0.00    +0.145 A 
ATOM     10  C   UNL     1      45.322  23.306  21.182  0.00  0.00    -0.033 A 
ATOM     11  C   UNL     1      46.642  22.894  21.312  0.00  0.00    +0.090 A 
ATOM     12  C   UNL     1      47.007  21.726  20.681  0.00  0.00    -0.162 A 
ATOM     13  C   UNL     1      48.292  20.992  20.578  0.00  0.00    -0.014 C 
ATOM     14  C   UNL     1      49.199  20.896  21.780  0.00  0.00    +0.277 C 
ATOM     15  O   UNL     1      50.143  19.839  21.576  0.00  0.00    -0.321 OA
ATOM     16  C   UNL     1      50.143  19.064  20.463  0.00  0.00    +0.167 A 
ATOM     17  C   UNL     1      48.938  18.813  19.773  0.00  0.00    -0.172 A 
ATOM     18  C   UNL     1      48.868  18.007  18.676  0.00  0.00    +0.141 A 
ATOM     19  C   UNL     1      50.057  17.403  18.261  0.00  0.00    -0.165 A 
ATOM     20  C   UNL     1      50.379  16.498  17.167  0.00  0.00    -0.034 A 
ATOM     21  C   UNL     1      51.697  16.254  17.264  0.00  0.00    +0.206 A 
ATOM     22  O   UNL     1      52.219  16.920  18.315  0.00  0.00    -0.187 OA
ATOM     23  C   UNL     1      51.275  17.622  18.948  0.00  0.00    +0.088 A 
ATOM     24  C   UNL     1      51.338  18.491  20.041  0.00  0.00    +0.017 A 
ATOM     25  C   UNL     1      47.750  19.537  20.321  0.00  0.00    +0.226 C 
ATOM     26  O   UNL     1      46.660  19.824  19.456  0.00  0.00    -0.276 OA
ATOM     27  C   UNL     1      46.079  20.958  19.942  0.00  0.00    +0.116 A 
ENDROOT
BRANCH   7   8
ATOM      8  O   UNL     1      43.129  23.021  20.341  0.00  0.00    -0.491 OA
ATOM      9  H   UNL     1      42.989  23.641  19.612  0.00  0.00    +0.393 HD
ENDBRANCH   7   8
BRANCH   6   5
ATOM      5  C   UNL     1      43.762  20.597  19.006  0.00  0.00    +0.129 C 
BRANCH   5   4
ATOM      1  C   UNL     1      40.943  20.568  19.071  0.00  0.00    +0.076 C 
ATOM      2  C   UNL     1      41.730  19.665  19.987  0.00  0.00    -0.127 C 
ATOM      3  C   UNL     1      41.012  18.794  20.985  0.00  0.00    +0.073 C 
ATOM      4  C   UNL     1      43.038  19.637  19.914  0.00  0.00    -0.056 C 
ENDBRANCH   5   4
ENDBRANCH   6   5
TORSDOF 3
ENDMDL
MODEL 4
REMARK VINA RESULT:      -6.1      3.337      6.235
REMARK  Name = ZINC05854604
REMARK  5 active torsions:
REMARK  status: ('A' for Active; 'I' for Inactive)
REMARK    1  A    between atoms: C1_1  and  C2_2
REMARK    2  A    between atoms: C2_2  and  C22_28
REMARK    3  A    between atoms: C3_3  and  C4_4
REMARK    4  A    between atoms: C4_4  and  C5_5
REMARK    5  A    between atoms: C6_6  and  O4_27
REMARK                            x       y       z     vdW  Elec       q    Type
REMARK                         _______ _______ _______ _____ _____    ______ ____
ROOT
ATOM      6  C   UNL     1      48.548  12.561  16.061  0.00  0.00    -0.107 A 
ATOM      7  C   UNL     1      47.404  11.804  16.297  0.00  0.00    +0.145 A 
ATOM     10  C   UNL     1      46.341  12.303  17.032  0.00  0.00    -0.033 A 
ATOM     11  C   UNL     1      46.368  13.586  17.561  0.00  0.00    +0.090 A 
ATOM     12  C   UNL     1      47.494  14.344  17.330  0.00  0.00    -0.162 A 
ATOM     13  C   UNL     1      47.876  15.727  17.708  0.00  0.00    -0.014 C 
ATOM     14  C   UNL     1      47.522  16.255  19.076  0.00  0.00    +0.277 C 
ATOM     15  O   UNL     1      48.316  17.412  19.357  0.00  0.00    -0.321 OA
ATOM     16  C   UNL     1      49.248  17.886  18.491  0.00  0.00    +0.167 A 
ATOM     17  C   UNL     1      49.919  17.003  17.619  0.00  0.00    -0.172 A 
ATOM     18  C   UNL     1      50.895  17.413  16.760  0.00  0.00    +0.141 A 
ATOM     19  C   UNL     1      51.233  18.769  16.791  0.00  0.00    -0.165 A 
ATOM     20  C   UNL     1      52.201  19.565  16.050  0.00  0.00    -0.034 A 
ATOM     21  C   UNL     1      52.075  20.822  16.508  0.00  0.00    +0.206 A 
ATOM     22  O   UNL     1      51.122  20.877  17.462  0.00  0.00    -0.187 OA
ATOM     23  C   UNL     1      50.589  19.670  17.672  0.00  0.00    +0.088 A 
ATOM     24  C   UNL     1      49.556  19.242  18.510  0.00  0.00    +0.017 A 
ATOM     25  C   UNL     1      49.443  15.588  17.685  0.00  0.00    +0.226 C 
ATOM     26  O   UNL     1      49.604  14.754  16.545  0.00  0.00    -0.276 OA
ATOM     27  C   UNL     1      48.592  13.841  16.598  0.00  0.00    +0.116 A 
ENDROOT
BRANCH   7   8
ATOM      8  O   UNL     1      47.328  10.545  15.793  0.00  0.00    -0.491 OA
ATOM      9  H   UNL     1      47.522  10.488  14.847  0.00  0.00    +0.393 HD
ENDBRANCH   7   8
BRANCH   6   5
ATOM      5  C   UNL     1      49.699  12.009  15.259  0.00  0.00    +0.129 C 
BRANCH   5   4
ATOM      1  C   UNL     1      51.695  13.337  13.773  0.00  0.00    +0.076 C 
ATOM      2  C   UNL     1      50.384  12.974  13.123  0.00  0.00    -0.127 C 
ATOM      3  C   UNL     1      50.113  13.378  11.697  0.00  0.00    +0.073 C 
ATOM      4  C   UNL     1      49.482  12.305  13.798  0.00  0.00    -0.056 C 
ENDBRANCH   5   4
ENDBRANCH   6   5
TORSDOF 3
ENDMDL
MODEL 5
REMARK VINA RESULT:      -6.1      2.414      7.807
REMARK  Name = ZINC05854604
REMARK  5 active torsions:
REMARK  status: ('A' for Active; 'I' for Inactive)
REMARK    1  A    between atoms: C1_1  and  C2_2
REMARK    2  A    between atoms: C2_2  and  C22_28
REMARK    3  A    between atoms: C3_3  and  C4_4
REMARK    4  A    between atoms: C4_4  and  C5_5
REMARK    5  A    between atoms: C6_6  and  O4_27
REMARK                            x       y       z     vdW  Elec       q    Type
REMARK                         _______ _______ _______ _____ _____    ______ ____
ROOT
ATOM      6  C   UNL     1      43.825  20.580  19.848  0.00  0.00    -0.107 A 
ATOM      7  C   UNL     1      44.155  21.926  19.712  0.00  0.00    +0.145 A 
ATOM     10  C   UNL     1      45.401  22.328  19.263  0.00  0.00    -0.033 A 
ATOM     11  C   UNL     1      46.379  21.403  18.920  0.00  0.00    +0.090 A 
ATOM     12  C   UNL     1      46.062  20.070  19.048  0.00  0.00    -0.162 A 
ATOM     13  C   UNL     1      46.815  18.822  18.772  0.00  0.00    -0.014 C 
ATOM     14  C   UNL     1      48.283  18.742  19.112  0.00  0.00    +0.277 C 
ATOM     15  O   UNL     1      48.688  17.369  19.141  0.00  0.00    -0.321 OA
ATOM     16  C   UNL     1      47.822  16.347  18.919  0.00  0.00    +0.167 A 
ATOM     17  C   UNL     1      46.459  16.487  19.255  0.00  0.00    -0.172 A 
ATOM     18  C   UNL     1      45.552  15.482  19.097  0.00  0.00    +0.141 A 
ATOM     19  C   UNL     1      46.037  14.269  18.599  0.00  0.00    -0.165 A 
ATOM     20  C   UNL     1      45.398  12.994  18.303  0.00  0.00    -0.034 A 
ATOM     21  C   UNL     1      46.371  12.191  17.841  0.00  0.00    +0.206 A 
ATOM     22  O   UNL     1      47.550  12.848  17.825  0.00  0.00    -0.187 OA
ATOM     23  C   UNL     1      47.403  14.097  18.274  0.00  0.00    +0.088 A 
ATOM     24  C   UNL     1      48.310  15.154  18.396  0.00  0.00    +0.017 A 
ATOM     25  C   UNL     1      46.083  17.842  19.762  0.00  0.00    +0.226 C 
ATOM     26  O   UNL     1      44.742  18.286  19.608  0.00  0.00    -0.276 OA
ATOM     27  C   UNL     1      44.801  19.646  19.522  0.00  0.00    +0.116 A 
ENDROOT
BRANCH   7   8
ATOM      8  O   UNL     1      43.228  22.868  20.027  0.00  0.00    -0.491 OA
ATOM      9  H   UNL     1      43.400  23.735  19.633  0.00  0.00    +0.393 HD
ENDBRANCH   7   8
BRANCH   6   5
ATOM      5  C   UNL     1      42.465  20.153  20.337  0.00  0.00    +0.129 C 
BRANCH   5   4
ATOM      1  C   UNL     1      40.544  21.453  18.733  0.00  0.00    +0.076 C 
ATOM      2  C   UNL     1      40.820  19.983  18.541  0.00  0.00    -0.127 C 
ATOM      3  C   UNL     1      40.022  19.192  17.537  0.00  0.00    +0.073 C 
ATOM      4  C   UNL     1      41.754  19.394  19.246  0.00  0.00    -0.056 C 
ENDBRANCH   5   4
ENDBRANCH   6   5
TORSDOF 3
ENDMDL
MODEL 6
REMARK VINA RESULT:      -5.9      2.364      6.142
REMARK  Name = ZINC05854604
REMARK  5 active torsions:
REMARK  status: ('A' for Active; 'I' for Inactive)
REMARK    1  A    between atoms: C1_1  and  C2_2
REMARK    2  A    between atoms: C2_2  and  C22_28
REMARK    3  A    between atoms: C3_3  and  C4_4
REMARK    4  A    between atoms: C4_4  and  C5_5
REMARK    5  A    between atoms: C6_6  and  O4_27
REMARK                            x       y       z     vdW  Elec       q    Type
REMARK                         _______ _______ _______ _____ _____    ______ ____
ROOT
ATOM      6  C   UNL     1      50.387  19.818  18.740  0.00  0.00    -0.107 A 
ATOM      7  C   UNL     1      51.418  20.549  18.156  0.00  0.00    +0.145 A 
ATOM     10  C   UNL     1      52.196  20.025  17.137  0.00  0.00    -0.033 A 
ATOM     11  C   UNL     1      51.977  18.744  16.648  0.00  0.00    +0.090 A 
ATOM     12  C   UNL     1      50.959  18.013  17.217  0.00  0.00    -0.162 A 
ATOM     13  C   UNL     1      50.425  16.653  16.960  0.00  0.00    -0.014 C 
ATOM     14  C   UNL     1      51.375  15.521  16.653  0.00  0.00    +0.277 C 
ATOM     15  O   UNL     1      50.699  14.273  16.841  0.00  0.00    -0.321 OA
ATOM     16  C   UNL     1      49.411  14.195  17.262  0.00  0.00    +0.167 A 
ATOM     17  C   UNL     1      48.877  15.197  18.099  0.00  0.00    -0.172 A 
ATOM     18  C   UNL     1      47.606  15.151  18.589  0.00  0.00    +0.141 A 
ATOM     19  C   UNL     1      46.838  14.036  18.244  0.00  0.00    -0.165 A 
ATOM     20  C   UNL     1      45.476  13.633  18.566  0.00  0.00    -0.034 A 
ATOM     21  C   UNL     1      45.281  12.458  17.945  0.00  0.00    +0.206 A 
ATOM     22  O   UNL     1      46.393  12.095  17.271  0.00  0.00    -0.187 OA
ATOM     23  C   UNL     1      47.358  13.007  17.422  0.00  0.00    +0.088 A 
ATOM     24  C   UNL     1      48.646  13.095  16.888  0.00  0.00    +0.017 A 
ATOM     25  C   UNL     1      49.807  16.335  18.373  0.00  0.00    +0.226 C 
ATOM     26  O   UNL     1      49.262  17.606  18.699  0.00  0.00    -0.276 OA
ATOM     27  C   UNL     1      50.169  18.529  18.269  0.00  0.00    +0.116 A 
ENDROOT
BRANCH   7   8
ATOM      8  O   UNL     1      51.664  21.811  18.595  0.00  0.00    -0.491 OA
ATOM      9  H   UNL     1      52.345  21.863  19.281  0.00  0.00    +0.393 HD
ENDBRANCH   7   8
BRANCH   6   5
ATOM      5  C   UNL     1      49.546  20.399  19.847  0.00  0.00    +0.129 C 
BRANCH   5   4
ATOM      1  C   UNL     1      47.012  19.427  20.617  0.00  0.00    +0.076 C 
ATOM      2  C   UNL     1      47.122  20.513  19.577  0.00  0.00    -0.127 C 
ATOM      3  C   UNL     1      45.881  21.035  18.900  0.00  0.00    +0.073 C 
ATOM      4  C   UNL     1      48.296  21.004  19.264  0.00  0.00    -0.056 C 
ENDBRANCH   5   4
ENDBRANCH   6   5
TORSDOF 3
ENDMDL
MODEL 7
REMARK VINA RESULT:      -5.9      2.469      4.949
REMARK  Name = ZINC05854604
REMARK  5 active torsions:
REMARK  status: ('A' for Active; 'I' for Inactive)
REMARK    1  A    between atoms: C1_1  and  C2_2
REMARK    2  A    between atoms: C2_2  and  C22_28
REMARK    3  A    between atoms: C3_3  and  C4_4
REMARK    4  A    between atoms: C4_4  and  C5_5
REMARK    5  A    between atoms: C6_6  and  O4_27
REMARK                            x       y       z     vdW  Elec       q    Type
REMARK                         _______ _______ _______ _____ _____    ______ ____
ROOT
ATOM      6  C   UNL     1      48.315  19.165  21.064  0.00  0.00    -0.107 A 
ATOM      7  C   UNL     1      49.324  19.620  21.908  0.00  0.00    +0.145 A 
ATOM     10  C   UNL     1      49.265  20.868  22.505  0.00  0.00    -0.033 A 
ATOM     11  C   UNL     1      48.191  21.722  22.292  0.00  0.00    +0.090 A 
ATOM     12  C   UNL     1      47.186  21.280  21.462  0.00  0.00    -0.162 A 
ATOM     13  C   UNL     1      45.905  21.881  21.017  0.00  0.00    -0.014 C 
ATOM     14  C   UNL     1      45.842  23.353  20.689  0.00  0.00    +0.277 C 
ATOM     15  O   UNL     1      44.664  23.617  19.920  0.00  0.00    -0.321 OA
ATOM     16  C   UNL     1      43.798  22.639  19.552  0.00  0.00    +0.167 A 
ATOM     17  C   UNL     1      44.261  21.322  19.344  0.00  0.00    -0.172 A 
ATOM     18  C   UNL     1      43.448  20.309  18.931  0.00  0.00    +0.141 A 
ATOM     19  C   UNL     1      42.110  20.633  18.692  0.00  0.00    -0.165 A 
ATOM     20  C   UNL     1      40.966  19.849  18.249  0.00  0.00    -0.034 A 
ATOM     21  C   UNL     1      39.929  20.702  18.202  0.00  0.00    +0.206 A 
ATOM     22  O   UNL     1      40.324  21.938  18.573  0.00  0.00    -0.187 OA
ATOM     23  C   UNL     1      41.625  21.950  18.873  0.00  0.00    +0.088 A 
ATOM     24  C   UNL     1      42.462  22.966  19.345  0.00  0.00    +0.017 A 
ATOM     25  C   UNL     1      45.710  21.121  19.653  0.00  0.00    +0.226 C 
ATOM     26  O   UNL     1      46.161  19.825  20.022  0.00  0.00    -0.276 OA
ATOM     27  C   UNL     1      47.241  20.016  20.832  0.00  0.00    +0.116 A 
ENDROOT
BRANCH   7   8
ATOM      8  O   UNL     1      50.392  18.818  22.154  0.00  0.00    -0.491 OA
ATOM      9  H   UNL     1      50.912  18.603  21.367  0.00  0.00    +0.393 HD
ENDBRANCH   7   8
BRANCH   6   5
ATOM      5  C   UNL     1      48.387  17.804  20.421  0.00  0.00    +0.129 C 
BRANCH   5   4
ATOM      1  C   UNL     1      47.406  17.565  17.787  0.00  0.00    +0.076 C 
ATOM      2  C   UNL     1      48.889  17.679  18.035  0.00  0.00    -0.127 C 
ATOM      3  C   UNL     1      49.853  17.600  16.880  0.00  0.00    +0.073 C 
ATOM      4  C   UNL     1      49.338  17.850  19.254  0.00  0.00    -0.056 C 
ENDBRANCH   5   4
ENDBRANCH   6   5
TORSDOF 3
ENDMDL
MODEL 8
REMARK VINA RESULT:      -5.8      2.309      6.336
REMARK  Name = ZINC05854604
REMARK  5 active torsions:
REMARK  status: ('A' for Active; 'I' for Inactive)
REMARK    1  A    between atoms: C1_1  and  C2_2
REMARK    2  A    between atoms: C2_2  and  C22_28
REMARK    3  A    between atoms: C3_3  and  C4_4
REMARK    4  A    between atoms: C4_4  and  C5_5
REMARK    5  A    between atoms: C6_6  and  O4_27
REMARK                            x       y       z     vdW  Elec       q    Type
REMARK                         _______ _______ _______ _____ _____    ______ ____
ROOT
ATOM      6  C   UNL     1      48.959  19.914  19.994  0.00  0.00    -0.107 A 
ATOM      7  C   UNL     1      48.014  20.540  20.803  0.00  0.00    +0.145 A 
ATOM     10  C   UNL     1      46.761  19.992  21.016  0.00  0.00    -0.033 A 
ATOM     11  C   UNL     1      46.391  18.786  20.435  0.00  0.00    +0.090 A 
ATOM     12  C   UNL     1      47.319  18.157  19.636  0.00  0.00    -0.162 A 
ATOM     13  C   UNL     1      47.301  16.882  18.877  0.00  0.00    -0.014 C 
ATOM     14  C   UNL     1      46.048  16.463  18.147  0.00  0.00    +0.277 C 
ATOM     15  O   UNL     1      46.376  15.453  17.188  0.00  0.00    -0.321 OA
ATOM     16  C   UNL     1      47.645  15.011  16.996  0.00  0.00    +0.167 A 
ATOM     17  C   UNL     1      48.738  15.874  17.225  0.00  0.00    -0.172 A 
ATOM     18  C   UNL     1      50.031  15.502  17.008  0.00  0.00    +0.141 A 
ATOM     19  C   UNL     1      50.241  14.211  16.514  0.00  0.00    -0.165 A 
ATOM     20  C   UNL     1      51.443  13.470  16.161  0.00  0.00    -0.034 A 
ATOM     21  C   UNL     1      51.024  12.263  15.743  0.00  0.00    +0.206 A 
ATOM     22  O   UNL     1      49.678  12.189  15.803  0.00  0.00    -0.187 OA
ATOM     23  C   UNL     1      49.160  13.334  16.257  0.00  0.00    +0.088 A 
ATOM     24  C   UNL     1      47.844  13.715  16.532  0.00  0.00    +0.017 A 
ATOM     25  C   UNL     1      48.363  17.216  17.765  0.00  0.00    +0.226 C 
ATOM     26  O   UNL     1      49.315  17.937  18.537  0.00  0.00    -0.276 OA
ATOM     27  C   UNL     1      48.595  18.714  19.396  0.00  0.00    +0.116 A 
ENDROOT
BRANCH   7   8
ATOM      8  O   UNL     1      48.332  21.718  21.401  0.00  0.00    -0.491 OA
ATOM      9  H   UNL     1      48.223  22.491  20.829  0.00  0.00    +0.393 HD
ENDBRANCH   7   8
BRANCH   6   5
ATOM      5  C   UNL     1      50.321  20.519  19.770  0.00  0.00    +0.129 C 
BRANCH   5   4
ATOM      1  C   UNL     1      52.379  19.639  18.054  0.00  0.00    +0.076 C 
ATOM      2  C   UNL     1      51.400  20.687  17.587  0.00  0.00    -0.127 C 
ATOM      3  C   UNL     1      51.560  21.313  16.226  0.00  0.00    +0.073 C 
ATOM      4  C   UNL     1      50.410  21.051  18.364  0.00  0.00    -0.056 C 
ENDBRANCH   5   4
ENDBRANCH   6   5
TORSDOF 3
ENDMDL
MODEL 9
REMARK VINA RESULT:      -5.6      3.329      6.436
REMARK  Name = ZINC05854604
REMARK  5 active torsions:
REMARK  status: ('A' for Active; 'I' for Inactive)
REMARK    1  A    between atoms: C1_1  and  C2_2
REMARK    2  A    between atoms: C2_2  and  C22_28
REMARK    3  A    between atoms: C3_3  and  C4_4
REMARK    4  A    between atoms: C4_4  and  C5_5
REMARK    5  A    between atoms: C6_6  and  O4_27
REMARK                            x       y       z     vdW  Elec       q    Type
REMARK                         _______ _______ _______ _____ _____    ______ ____
ROOT
ATOM      6  C   UNL     1      46.396  14.368  18.363  0.00  0.00    -0.107 A 
ATOM      7  C   UNL     1      45.329  14.076  19.208  0.00  0.00    +0.145 A 
ATOM     10  C   UNL     1      45.002  14.894  20.276  0.00  0.00    -0.033 A 
ATOM     11  C   UNL     1      45.723  16.050  20.549  0.00  0.00    +0.090 A 
ATOM     12  C   UNL     1      46.778  16.349  19.717  0.00  0.00    -0.162 A 
ATOM     13  C   UNL     1      47.746  17.473  19.677  0.00  0.00    -0.014 C 
ATOM     14  C   UNL     1      48.305  18.026  20.964  0.00  0.00    +0.277 C 
ATOM     15  O   UNL     1      49.480  18.793  20.678  0.00  0.00    -0.321 OA
ATOM     16  C   UNL     1      49.974  18.932  19.422  0.00  0.00    +0.167 A 
ATOM     17  C   UNL     1      49.787  17.908  18.469  0.00  0.00    -0.172 A 
ATOM     18  C   UNL     1      50.297  17.972  17.207  0.00  0.00    +0.141 A 
ATOM     19  C   UNL     1      51.052  19.103  16.889  0.00  0.00    -0.165 A 
ATOM     20  C   UNL     1      51.747  19.522  15.679  0.00  0.00    -0.034 A 
ATOM     21  C   UNL     1      52.301  20.713  15.964  0.00  0.00    +0.206 A 
ATOM     22  O   UNL     1      52.016  21.068  17.235  0.00  0.00    -0.187 OA
ATOM     23  C   UNL     1      51.272  20.134  17.833  0.00  0.00    +0.088 A 
ATOM     24  C   UNL     1      50.699  20.076  19.107  0.00  0.00    +0.017 A 
ATOM     25  C   UNL     1      48.947  16.767  18.945  0.00  0.00    +0.226 C 
ATOM     26  O   UNL     1      48.237  15.990  17.990  0.00  0.00    -0.276 OA
ATOM     27  C   UNL     1      47.133  15.514  18.635  0.00  0.00    +0.116 A 
ENDROOT
BRANCH   7   8
ATOM      8  O   UNL     1      44.588  12.960  18.977  0.00  0.00    -0.491 OA
ATOM      9  H   UNL     1      45.035  12.298  18.431  0.00  0.00    +0.393 HD
ENDBRANCH   7   8
BRANCH   6   5
ATOM      5  C   UNL     1      46.743  13.471  17.202  0.00  0.00    +0.129 C 
BRANCH   5   4
ATOM      1  C   UNL     1      49.172  13.428  15.769  0.00  0.00    +0.076 C 
ATOM      2  C   UNL     1      48.947  12.464  16.907  0.00  0.00    -0.127 C 
ATOM      3  C   UNL     1      49.994  11.431  17.236  0.00  0.00    +0.073 C 
ATOM      4  C   UNL     1      47.842  12.525  17.609  0.00  0.00    -0.056 C 
ENDBRANCH   5   4
ENDBRANCH   6   5
TORSDOF 3
ENDMDL
