MODEL 1
REMARK VINA RESULT:      -6.5      0.000      0.000
REMARK  Name = ZINC15120680
REMARK  12 active torsions:
REMARK  status: ('A' for Active; 'I' for Inactive)
REMARK    1  A    between atoms: C1_1  and  C2_2
REMARK    2  A    between atoms: C2_2  and  C23_29
REMARK    3  A    between atoms: C3_3  and  C4_4
REMARK    4  A    between atoms: C4_4  and  C5_5
REMARK    5  A    between atoms: C5_5  and  C6_6
REMARK    6  A    between atoms: C6_6  and  C22_28
REMARK    7  A    between atoms: C7_7  and  C8_8
REMARK    8  A    between atoms: C8_8  and  C9_9
REMARK    9  A    between atoms: C10_10  and  O6_27
REMARK   10  A    between atoms: C14_14  and  O1_15
REMARK   11  A    between atoms: C17_19  and  O5_26
REMARK   12  A    between atoms: C20_22  and  O4_25
REMARK                            x       y       z     vdW  Elec       q    Type
REMARK                         _______ _______ _______ _____ _____    ______ ____
ROOT
ATOM     11  C   UNL     1      47.112  17.782  20.610  0.00  0.00    -0.162 A 
ATOM     12  C   UNL     1      46.139  16.880  20.197  0.00  0.00    +0.198 A 
ATOM     15  C   UNL     1      44.901  17.324  19.758  0.00  0.00    -0.031 A 
ATOM     16  C   UNL     1      44.618  18.682  19.727  0.00  0.00    +0.191 A 
ATOM     17  C   UNL     1      45.600  19.596  20.146  0.00  0.00    -0.268 A 
ATOM     18  C   UNL     1      45.293  21.035  20.110  0.00  0.00    +0.439 A 
ATOM     19  C   UNL     1      43.952  21.418  19.630  0.00  0.00    -0.247 A 
ATOM     20  C   UNL     1      43.571  22.764  19.561  0.00  0.00    +0.196 A 
ATOM     23  C   UNL     1      42.306  23.094  19.105  0.00  0.00    -0.015 A 
ATOM     24  C   UNL     1      41.424  22.098  18.720  0.00  0.00    +0.092 A 
ATOM     25  C   UNL     1      41.793  20.766  18.779  0.00  0.00    +0.072 A 
ATOM     28  C   UNL     1      43.059  20.408  19.239  0.00  0.00    +0.153 A 
ATOM     29  O   UNL     1      46.107  21.871  20.460  0.00  0.00    -0.418 OA
ATOM     30  O   UNL     1      43.411  19.107  19.300  0.00  0.00    -0.217 OA
ATOM     31  C   UNL     1      46.851  19.140  20.588  0.00  0.00    +0.222 A 
ENDROOT
BRANCH  12  13
ATOM     13  O   UNL     1      46.405  15.548  20.222  0.00  0.00    -0.482 OA
ATOM     14  H   UNL     1      45.633  14.997  20.413  0.00  0.00    +0.400 HD
ENDBRANCH  12  13
BRANCH  20  21
ATOM     21  O   UNL     1      44.438  23.738  19.939  0.00  0.00    -0.476 OA
ATOM     22  H   UNL     1      44.015  24.585  20.138  0.00  0.00    +0.403 HD
ENDBRANCH  20  21
BRANCH  25  26
ATOM     26  O   UNL     1      40.912  19.802  18.396  0.00  0.00    -0.479 OA
ATOM     27  H   UNL     1      40.697  19.817  17.454  0.00  0.00    +0.393 HD
ENDBRANCH  25  26
BRANCH  31  32
ATOM     32  O   UNL     1      47.797  20.025  20.990  0.00  0.00    -0.469 OA
ATOM     33  H   UNL     1      47.459  20.730  21.559  0.00  0.00    +0.401 HD
ENDBRANCH  31  32
BRANCH  11  10
ATOM     10  C   UNL     1      48.453  17.282  21.083  0.00  0.00    +0.137 C 
BRANCH  10   9
ATOM      7  C   UNL     1      50.599  17.675  19.988  0.00  0.00    -0.117 C 
ATOM      8  C   UNL     1      51.010  18.466  21.202  0.00  0.00    +0.077 C 
ATOM      9  C   UNL     1      49.392  17.173  19.910  0.00  0.00    -0.058 C 
BRANCH   7   6
ATOM      6  C   UNL     1      51.577  17.462  18.861  0.00  0.00    +0.060 C 
BRANCH   6   5
ATOM      5  C   UNL     1      52.546  18.646  18.795  0.00  0.00    +0.053 C 
BRANCH   5   4
ATOM      1  C   UNL     1      51.481  21.256  18.787  0.00  0.00    +0.071 C 
ATOM      2  C   UNL     1      51.810  20.571  17.486  0.00  0.00    -0.132 C 
ATOM      3  C   UNL     1      51.512  21.255  16.177  0.00  0.00    +0.072 C 
ATOM      4  C   UNL     1      52.354  19.379  17.493  0.00  0.00    -0.061 C 
ENDBRANCH   5   4
ENDBRANCH   6   5
ENDBRANCH   7   6
ENDBRANCH  10   9
ENDBRANCH  11  10
TORSDOF 9
ENDMDL
MODEL 2
REMARK VINA RESULT:      -6.5      2.418      8.040
REMARK  Name = ZINC15120680
REMARK  12 active torsions:
REMARK  status: ('A' for Active; 'I' for Inactive)
REMARK    1  A    between atoms: C1_1  and  C2_2
REMARK    2  A    between atoms: C2_2  and  C23_29
REMARK    3  A    between atoms: C3_3  and  C4_4
REMARK    4  A    between atoms: C4_4  and  C5_5
REMARK    5  A    between atoms: C5_5  and  C6_6
REMARK    6  A    between atoms: C6_6  and  C22_28
REMARK    7  A    between atoms: C7_7  and  C8_8
REMARK    8  A    between atoms: C8_8  and  C9_9
REMARK    9  A    between atoms: C10_10  and  O6_27
REMARK   10  A    between atoms: C14_14  and  O1_15
REMARK   11  A    between atoms: C17_19  and  O5_26
REMARK   12  A    between atoms: C20_22  and  O4_25
REMARK                            x       y       z     vdW  Elec       q    Type
REMARK                         _______ _______ _______ _____ _____    ______ ____
ROOT
ATOM     11  C   UNL     1      46.697  19.479  21.443  0.00  0.00    -0.162 A 
ATOM     12  C   UNL     1      47.196  20.776  21.464  0.00  0.00    +0.198 A 
ATOM     15  C   UNL     1      48.228  21.151  20.618  0.00  0.00    -0.031 A 
ATOM     16  C   UNL     1      48.778  20.232  19.736  0.00  0.00    +0.191 A 
ATOM     17  C   UNL     1      48.276  18.919  19.715  0.00  0.00    -0.268 A 
ATOM     18  C   UNL     1      48.863  17.948  18.777  0.00  0.00    +0.439 A 
ATOM     19  C   UNL     1      49.956  18.434  17.915  0.00  0.00    -0.247 A 
ATOM     20  C   UNL     1      50.575  17.582  16.992  0.00  0.00    +0.196 A 
ATOM     23  C   UNL     1      51.599  18.064  16.194  0.00  0.00    -0.015 A 
ATOM     24  C   UNL     1      52.007  19.383  16.310  0.00  0.00    +0.092 A 
ATOM     25  C   UNL     1      51.398  20.235  17.215  0.00  0.00    +0.072 A 
ATOM     28  C   UNL     1      50.369  19.770  18.032  0.00  0.00    +0.153 A 
ATOM     29  O   UNL     1      48.465  16.799  18.716  0.00  0.00    -0.418 OA
ATOM     30  O   UNL     1      49.783  20.604  18.916  0.00  0.00    -0.217 OA
ATOM     31  C   UNL     1      47.231  18.546  20.573  0.00  0.00    +0.222 A 
ENDROOT
BRANCH  12  13
ATOM     13  O   UNL     1      46.666  21.686  22.322  0.00  0.00    -0.482 OA
ATOM     14  H   UNL     1      46.784  22.604  22.043  0.00  0.00    +0.400 HD
ENDBRANCH  12  13
BRANCH  20  21
ATOM     21  O   UNL     1      50.174  16.290  16.881  0.00  0.00    -0.476 OA
ATOM     22  H   UNL     1      50.885  15.644  16.999  0.00  0.00    +0.403 HD
ENDBRANCH  20  21
BRANCH  25  26
ATOM     26  O   UNL     1      51.813  21.527  17.313  0.00  0.00    -0.479 OA
ATOM     27  H   UNL     1      52.740  21.662  17.074  0.00  0.00    +0.393 HD
ENDBRANCH  25  26
BRANCH  31  32
ATOM     32  O   UNL     1      46.747  17.279  20.549  0.00  0.00    -0.469 OA
ATOM     33  H   UNL     1      47.021  16.768  19.775  0.00  0.00    +0.401 HD
ENDBRANCH  31  32
BRANCH  11  10
ATOM     10  C   UNL     1      45.574  19.088  22.369  0.00  0.00    +0.137 C 
BRANCH  10   9
ATOM      7  C   UNL     1      43.311  18.479  21.686  0.00  0.00    -0.117 C 
ATOM      8  C   UNL     1      43.588  17.093  22.206  0.00  0.00    +0.077 C 
ATOM      9  C   UNL     1      44.252  19.389  21.712  0.00  0.00    -0.058 C 
BRANCH   7   6
ATOM      6  C   UNL     1      41.949  18.820  21.137  0.00  0.00    +0.060 C 
BRANCH   6   5
ATOM      5  C   UNL     1      42.107  19.649  19.860  0.00  0.00    +0.053 C 
BRANCH   5   4
ATOM      1  C   UNL     1      41.600  22.193  18.756  0.00  0.00    +0.071 C 
ATOM      2  C   UNL     1      40.496  21.170  18.834  0.00  0.00    -0.132 C 
ATOM      3  C   UNL     1      39.104  21.526  18.380  0.00  0.00    +0.072 C 
ATOM      4  C   UNL     1      40.747  19.971  19.298  0.00  0.00    -0.061 C 
ENDBRANCH   5   4
ENDBRANCH   6   5
ENDBRANCH   7   6
ENDBRANCH  10   9
ENDBRANCH  11  10
TORSDOF 9
ENDMDL
MODEL 3
REMARK VINA RESULT:      -6.4      2.065      3.038
REMARK  Name = ZINC15120680
REMARK  12 active torsions:
REMARK  status: ('A' for Active; 'I' for Inactive)
REMARK    1  A    between atoms: C1_1  and  C2_2
REMARK    2  A    between atoms: C2_2  and  C23_29
REMARK    3  A    between atoms: C3_3  and  C4_4
REMARK    4  A    between atoms: C4_4  and  C5_5
REMARK    5  A    between atoms: C5_5  and  C6_6
REMARK    6  A    between atoms: C6_6  and  C22_28
REMARK    7  A    between atoms: C7_7  and  C8_8
REMARK    8  A    between atoms: C8_8  and  C9_9
REMARK    9  A    between atoms: C10_10  and  O6_27
REMARK   10  A    between atoms: C14_14  and  O1_15
REMARK   11  A    between atoms: C17_19  and  O5_26
REMARK   12  A    between atoms: C20_22  and  O4_25
REMARK                            x       y       z     vdW  Elec       q    Type
REMARK                         _______ _______ _______ _____ _____    ______ ____
ROOT
ATOM     11  C   UNL     1      47.880  16.899  19.044  0.00  0.00    -0.162 A 
ATOM     12  C   UNL     1      47.735  17.734  17.942  0.00  0.00    +0.198 A 
ATOM     15  C   UNL     1      46.580  18.479  17.765  0.00  0.00    -0.031 A 
ATOM     16  C   UNL     1      45.549  18.400  18.691  0.00  0.00    +0.191 A 
ATOM     17  C   UNL     1      45.694  17.555  19.805  0.00  0.00    -0.268 A 
ATOM     18  C   UNL     1      44.597  17.476  20.785  0.00  0.00    +0.439 A 
ATOM     19  C   UNL     1      43.406  18.303  20.517  0.00  0.00    -0.247 A 
ATOM     20  C   UNL     1      42.313  18.292  21.393  0.00  0.00    +0.196 A 
ATOM     23  C   UNL     1      41.208  19.080  21.118  0.00  0.00    -0.015 A 
ATOM     24  C   UNL     1      41.185  19.872  19.983  0.00  0.00    +0.092 A 
ATOM     25  C   UNL     1      42.261  19.894  19.114  0.00  0.00    +0.072 A 
ATOM     28  C   UNL     1      43.383  19.107  19.367  0.00  0.00    +0.153 A 
ATOM     29  O   UNL     1      44.669  16.761  21.768  0.00  0.00    -0.418 OA
ATOM     30  O   UNL     1      44.427  19.128  18.513  0.00  0.00    -0.217 OA
ATOM     31  C   UNL     1      46.865  16.804  19.978  0.00  0.00    +0.222 A 
ENDROOT
BRANCH  12  13
ATOM     13  O   UNL     1      48.736  17.820  17.029  0.00  0.00    -0.482 OA
ATOM     14  H   UNL     1      48.492  17.506  16.147  0.00  0.00    +0.400 HD
ENDBRANCH  12  13
BRANCH  20  21
ATOM     21  O   UNL     1      42.338  17.514  22.505  0.00  0.00    -0.476 OA
ATOM     22  H   UNL     1      43.066  16.878  22.524  0.00  0.00    +0.403 HD
ENDBRANCH  20  21
BRANCH  25  26
ATOM     26  O   UNL     1      42.219  20.680  18.004  0.00  0.00    -0.479 OA
ATOM     27  H   UNL     1      42.568  21.571  18.139  0.00  0.00    +0.393 HD
ENDBRANCH  25  26
BRANCH  31  32
ATOM     32  O   UNL     1      47.002  15.991  21.055  0.00  0.00    -0.469 OA
ATOM     33  H   UNL     1      47.570  15.224  20.900  0.00  0.00    +0.401 HD
ENDBRANCH  31  32
BRANCH  11  10
ATOM     10  C   UNL     1      49.143  16.095  19.221  0.00  0.00    +0.137 C 
BRANCH  10   9
ATOM      7  C   UNL     1      51.377  17.061  19.409  0.00  0.00    -0.117 C 
ATOM      8  C   UNL     1      51.760  16.271  18.185  0.00  0.00    +0.077 C 
ATOM      9  C   UNL     1      50.179  16.935  19.922  0.00  0.00    -0.058 C 
BRANCH   7   6
ATOM      6  C   UNL     1      52.375  17.995  20.045  0.00  0.00    +0.060 C 
BRANCH   6   5
ATOM      5  C   UNL     1      51.808  19.417  20.053  0.00  0.00    +0.053 C 
BRANCH   5   4
ATOM      1  C   UNL     1      49.731  20.817  18.759  0.00  0.00    +0.071 C 
ATOM      2  C   UNL     1      51.073  20.666  18.089  0.00  0.00    -0.132 C 
ATOM      3  C   UNL     1      51.287  21.210  16.699  0.00  0.00    +0.072 C 
ATOM      4  C   UNL     1      52.053  20.062  18.714  0.00  0.00    -0.061 C 
ENDBRANCH   5   4
ENDBRANCH   6   5
ENDBRANCH   7   6
ENDBRANCH  10   9
ENDBRANCH  11  10
TORSDOF 9
ENDMDL
MODEL 4
REMARK VINA RESULT:      -6.4      1.717      2.964
REMARK  Name = ZINC15120680
REMARK  12 active torsions:
REMARK  status: ('A' for Active; 'I' for Inactive)
REMARK    1  A    between atoms: C1_1  and  C2_2
REMARK    2  A    between atoms: C2_2  and  C23_29
REMARK    3  A    between atoms: C3_3  and  C4_4
REMARK    4  A    between atoms: C4_4  and  C5_5
REMARK    5  A    between atoms: C5_5  and  C6_6
REMARK    6  A    between atoms: C6_6  and  C22_28
REMARK    7  A    between atoms: C7_7  and  C8_8
REMARK    8  A    between atoms: C8_8  and  C9_9
REMARK    9  A    between atoms: C10_10  and  O6_27
REMARK   10  A    between atoms: C14_14  and  O1_15
REMARK   11  A    between atoms: C17_19  and  O5_26
REMARK   12  A    between atoms: C20_22  and  O4_25
REMARK                            x       y       z     vdW  Elec       q    Type
REMARK                         _______ _______ _______ _____ _____    ______ ____
ROOT
ATOM     11  C   UNL     1      47.449  19.258  20.019  0.00  0.00    -0.162 A 
ATOM     12  C   UNL     1      47.494  20.428  19.271  0.00  0.00    +0.198 A 
ATOM     15  C   UNL     1      46.329  21.098  18.931  0.00  0.00    -0.031 A 
ATOM     16  C   UNL     1      45.097  20.604  19.337  0.00  0.00    +0.191 A 
ATOM     17  C   UNL     1      45.049  19.420  20.093  0.00  0.00    -0.268 A 
ATOM     18  C   UNL     1      43.740  18.901  20.520  0.00  0.00    +0.439 A 
ATOM     19  C   UNL     1      42.552  19.676  20.115  0.00  0.00    -0.247 A 
ATOM     20  C   UNL     1      41.265  19.260  20.476  0.00  0.00    +0.196 A 
ATOM     23  C   UNL     1      40.168  20.008  20.083  0.00  0.00    -0.015 A 
ATOM     24  C   UNL     1      40.346  21.161  19.336  0.00  0.00    +0.092 A 
ATOM     25  C   UNL     1      41.614  21.584  18.979  0.00  0.00    +0.072 A 
ATOM     28  C   UNL     1      42.732  20.845  19.359  0.00  0.00    +0.153 A 
ATOM     29  O   UNL     1      43.640  17.880  21.177  0.00  0.00    -0.418 OA
ATOM     30  O   UNL     1      43.966  21.260  19.003  0.00  0.00    -0.217 OA
ATOM     31  C   UNL     1      46.233  18.748  20.433  0.00  0.00    +0.222 A 
ENDROOT
BRANCH  12  13
ATOM     13  O   UNL     1      48.694  20.922  18.868  0.00  0.00    -0.482 OA
ATOM     14  H   UNL     1      48.872  21.821  19.177  0.00  0.00    +0.400 HD
ENDBRANCH  12  13
BRANCH  20  21
ATOM     21  O   UNL     1      41.094  18.130  21.208  0.00  0.00    -0.476 OA
ATOM     22  H   UNL     1      40.266  17.664  21.025  0.00  0.00    +0.403 HD
ENDBRANCH  20  21
BRANCH  25  26
ATOM     26  O   UNL     1      41.767  22.720  18.246  0.00  0.00    -0.479 OA
ATOM     27  H   UNL     1      41.761  23.532  18.771  0.00  0.00    +0.393 HD
ENDBRANCH  25  26
BRANCH  31  32
ATOM     32  O   UNL     1      46.183  17.606  21.163  0.00  0.00    -0.469 OA
ATOM     33  H   UNL     1      46.318  16.801  20.645  0.00  0.00    +0.401 HD
ENDBRANCH  31  32
BRANCH  11  10
ATOM     10  C   UNL     1      48.727  18.543  20.379  0.00  0.00    +0.137 C 
BRANCH  10   9
ATOM      7  C   UNL     1      49.448  17.030  18.605  0.00  0.00    -0.117 C 
ATOM      8  C   UNL     1      48.717  15.928  19.325  0.00  0.00    +0.077 C 
ATOM      9  C   UNL     1      49.499  18.231  19.124  0.00  0.00    -0.058 C 
BRANCH   7   6
ATOM      6  C   UNL     1      50.123  16.750  17.286  0.00  0.00    +0.060 C 
BRANCH   6   5
ATOM      5  C   UNL     1      51.501  17.416  17.267  0.00  0.00    +0.053 C 
BRANCH   5   4
ATOM      1  C   UNL     1      52.623  19.825  18.208  0.00  0.00    +0.071 C 
ATOM      2  C   UNL     1      51.919  19.790  16.876  0.00  0.00    -0.132 C 
ATOM      3  C   UNL     1      51.760  21.055  16.074  0.00  0.00    +0.072 C 
ATOM      4  C   UNL     1      51.446  18.658  16.416  0.00  0.00    -0.061 C 
ENDBRANCH   5   4
ENDBRANCH   6   5
ENDBRANCH   7   6
ENDBRANCH  10   9
ENDBRANCH  11  10
TORSDOF 9
ENDMDL
MODEL 5
REMARK VINA RESULT:      -6.3      1.931      3.172
REMARK  Name = ZINC15120680
REMARK  12 active torsions:
REMARK  status: ('A' for Active; 'I' for Inactive)
REMARK    1  A    between atoms: C1_1  and  C2_2
REMARK    2  A    between atoms: C2_2  and  C23_29
REMARK    3  A    between atoms: C3_3  and  C4_4
REMARK    4  A    between atoms: C4_4  and  C5_5
REMARK    5  A    between atoms: C5_5  and  C6_6
REMARK    6  A    between atoms: C6_6  and  C22_28
REMARK    7  A    between atoms: C7_7  and  C8_8
REMARK    8  A    between atoms: C8_8  and  C9_9
REMARK    9  A    between atoms: C10_10  and  O6_27
REMARK   10  A    between atoms: C14_14  and  O1_15
REMARK   11  A    between atoms: C17_19  and  O5_26
REMARK   12  A    between atoms: C20_22  and  O4_25
REMARK                            x       y       z     vdW  Elec       q    Type
REMARK                         _______ _______ _______ _____ _____    ______ ____
ROOT
ATOM     11  C   UNL     1      48.341  20.097  20.705  0.00  0.00    -0.162 A 
ATOM     12  C   UNL     1      48.210  19.034  21.591  0.00  0.00    +0.198 A 
ATOM     15  C   UNL     1      46.963  18.501  21.879  0.00  0.00    -0.031 A 
ATOM     16  C   UNL     1      45.825  19.025  21.282  0.00  0.00    +0.191 A 
ATOM     17  C   UNL     1      45.955  20.101  20.387  0.00  0.00    -0.268 A 
ATOM     18  C   UNL     1      44.745  20.652  19.756  0.00  0.00    +0.439 A 
ATOM     19  C   UNL     1      43.461  20.024  20.120  0.00  0.00    -0.247 A 
ATOM     20  C   UNL     1      42.257  20.482  19.571  0.00  0.00    +0.196 A 
ATOM     23  C   UNL     1      41.066  19.873  19.929  0.00  0.00    -0.015 A 
ATOM     24  C   UNL     1      41.068  18.818  20.826  0.00  0.00    +0.092 A 
ATOM     25  C   UNL     1      42.252  18.354  21.371  0.00  0.00    +0.072 A 
ATOM     28  C   UNL     1      43.463  18.954  21.029  0.00  0.00    +0.153 A 
ATOM     29  O   UNL     1      44.799  21.582  18.973  0.00  0.00    -0.418 OA
ATOM     30  O   UNL     1      44.615  18.502  21.567  0.00  0.00    -0.217 OA
ATOM     31  C   UNL     1      47.220  20.635  20.099  0.00  0.00    +0.222 A 
ENDROOT
BRANCH  12  13
ATOM     13  O   UNL     1      49.316  18.512  22.181  0.00  0.00    -0.482 OA
ATOM     14  H   UNL     1      49.240  18.413  23.140  0.00  0.00    +0.400 HD
ENDBRANCH  12  13
BRANCH  20  21
ATOM     21  O   UNL     1      42.257  21.516  18.692  0.00  0.00    -0.476 OA
ATOM     22  H   UNL     1      41.544  22.154  18.833  0.00  0.00    +0.403 HD
ENDBRANCH  20  21
BRANCH  25  26
ATOM     26  O   UNL     1      42.233  17.316  22.250  0.00  0.00    -0.479 OA
ATOM     27  H   UNL     1      41.937  16.480  21.866  0.00  0.00    +0.393 HD
ENDBRANCH  25  26
BRANCH  31  32
ATOM     32  O   UNL     1      47.342  21.672  19.234  0.00  0.00    -0.469 OA
ATOM     33  H   UNL     1      46.957  22.499  19.553  0.00  0.00    +0.401 HD
ENDBRANCH  31  32
BRANCH  11  10
ATOM     10  C   UNL     1      49.704  20.664  20.402  0.00  0.00    +0.137 C 
BRANCH  10   9
ATOM      7  C   UNL     1      51.092  21.005  18.424  0.00  0.00    -0.117 C 
ATOM      8  C   UNL     1      52.197  21.451  19.345  0.00  0.00    +0.077 C 
ATOM      9  C   UNL     1      49.917  20.693  18.911  0.00  0.00    -0.058 C 
BRANCH   7   6
ATOM      6  C   UNL     1      51.339  20.918  16.939  0.00  0.00    +0.060 C 
BRANCH   6   5
ATOM      5  C   UNL     1      52.300  19.763  16.648  0.00  0.00    +0.053 C 
BRANCH   5   4
ATOM      1  C   UNL     1      52.451  17.682  18.544  0.00  0.00    +0.071 C 
ATOM      2  C   UNL     1      51.626  17.508  17.295  0.00  0.00    -0.132 C 
ATOM      3  C   UNL     1      50.931  16.197  17.028  0.00  0.00    +0.072 C 
ATOM      4  C   UNL     1      51.513  18.495  16.442  0.00  0.00    -0.061 C 
ENDBRANCH   5   4
ENDBRANCH   6   5
ENDBRANCH   7   6
ENDBRANCH  10   9
ENDBRANCH  11  10
TORSDOF 9
ENDMDL
MODEL 6
REMARK VINA RESULT:      -6.3      2.307      4.125
REMARK  Name = ZINC15120680
REMARK  12 active torsions:
REMARK  status: ('A' for Active; 'I' for Inactive)
REMARK    1  A    between atoms: C1_1  and  C2_2
REMARK    2  A    between atoms: C2_2  and  C23_29
REMARK    3  A    between atoms: C3_3  and  C4_4
REMARK    4  A    between atoms: C4_4  and  C5_5
REMARK    5  A    between atoms: C5_5  and  C6_6
REMARK    6  A    between atoms: C6_6  and  C22_28
REMARK    7  A    between atoms: C7_7  and  C8_8
REMARK    8  A    between atoms: C8_8  and  C9_9
REMARK    9  A    between atoms: C10_10  and  O6_27
REMARK   10  A    between atoms: C14_14  and  O1_15
REMARK   11  A    between atoms: C17_19  and  O5_26
REMARK   12  A    between atoms: C20_22  and  O4_25
REMARK                            x       y       z     vdW  Elec       q    Type
REMARK                         _______ _______ _______ _____ _____    ______ ____
ROOT
ATOM     11  C   UNL     1      47.876  19.300  20.008  0.00  0.00    -0.162 A 
ATOM     12  C   UNL     1      47.768  20.384  19.144  0.00  0.00    +0.198 A 
ATOM     15  C   UNL     1      46.528  20.921  18.834  0.00  0.00    -0.031 A 
ATOM     16  C   UNL     1      45.375  20.380  19.384  0.00  0.00    +0.191 A 
ATOM     17  C   UNL     1      45.482  19.283  20.257  0.00  0.00    -0.268 A 
ATOM     18  C   UNL     1      44.256  18.714  20.838  0.00  0.00    +0.439 A 
ATOM     19  C   UNL     1      42.981  19.347  20.453  0.00  0.00    -0.247 A 
ATOM     20  C   UNL     1      41.763  18.874  20.956  0.00  0.00    +0.196 A 
ATOM     23  C   UNL     1      40.581  19.488  20.578  0.00  0.00    -0.015 A 
ATOM     24  C   UNL     1      40.605  20.565  19.708  0.00  0.00    +0.092 A 
ATOM     25  C   UNL     1      41.804  21.044  19.209  0.00  0.00    +0.072 A 
ATOM     28  C   UNL     1      43.006  20.439  19.571  0.00  0.00    +0.153 A 
ATOM     29  O   UNL     1      44.291  17.765  21.600  0.00  0.00    -0.418 OA
ATOM     30  O   UNL     1      44.171  20.907  19.077  0.00  0.00    -0.217 OA
ATOM     31  C   UNL     1      46.740  18.745  20.567  0.00  0.00    +0.222 A 
ENDROOT
BRANCH  12  13
ATOM     13  O   UNL     1      48.888  20.923  18.599  0.00  0.00    -0.482 OA
ATOM     14  H   UNL     1      49.708  20.492  18.879  0.00  0.00    +0.400 HD
ENDBRANCH  12  13
BRANCH  20  21
ATOM     21  O   UNL     1      41.742  17.818  21.809  0.00  0.00    -0.476 OA
ATOM     22  H   UNL     1      41.814  16.958  21.374  0.00  0.00    +0.403 HD
ENDBRANCH  20  21
BRANCH  25  26
ATOM     26  O   UNL     1      41.807  22.103  18.355  0.00  0.00    -0.479 OA
ATOM     27  H   UNL     1      42.627  22.201  17.852  0.00  0.00    +0.393 HD
ENDBRANCH  25  26
BRANCH  31  32
ATOM     32  O   UNL     1      46.840  17.687  21.411  0.00  0.00    -0.469 OA
ATOM     33  H   UNL     1      46.157  17.016  21.284  0.00  0.00    +0.401 HD
ENDBRANCH  31  32
BRANCH  11  10
ATOM     10  C   UNL     1      49.232  18.729  20.335  0.00  0.00    +0.137 C 
BRANCH  10   9
ATOM      7  C   UNL     1      49.870  16.462  19.694  0.00  0.00    -0.117 C 
ATOM      8  C   UNL     1      49.935  16.126  21.161  0.00  0.00    +0.077 C 
ATOM      9  C   UNL     1      49.598  17.685  19.313  0.00  0.00    -0.058 C 
BRANCH   7   6
ATOM      6  C   UNL     1      50.118  15.390  18.664  0.00  0.00    +0.060 C 
BRANCH   6   5
ATOM      5  C   UNL     1      48.884  15.246  17.769  0.00  0.00    +0.053 C 
BRANCH   5   4
ATOM      1  C   UNL     1      46.437  16.637  17.608  0.00  0.00    +0.071 C 
ATOM      2  C   UNL     1      46.589  15.483  18.566  0.00  0.00    -0.132 C 
ATOM      3  C   UNL     1      45.453  15.112  19.484  0.00  0.00    +0.072 C 
ATOM      4  C   UNL     1      47.709  14.805  18.601  0.00  0.00    -0.061 C 
ENDBRANCH   5   4
ENDBRANCH   6   5
ENDBRANCH   7   6
ENDBRANCH  10   9
ENDBRANCH  11  10
TORSDOF 9
ENDMDL
MODEL 7
REMARK VINA RESULT:      -6.2      2.482      6.979
REMARK  Name = ZINC15120680
REMARK  12 active torsions:
REMARK  status: ('A' for Active; 'I' for Inactive)
REMARK    1  A    between atoms: C1_1  and  C2_2
REMARK    2  A    between atoms: C2_2  and  C23_29
REMARK    3  A    between atoms: C3_3  and  C4_4
REMARK    4  A    between atoms: C4_4  and  C5_5
REMARK    5  A    between atoms: C5_5  and  C6_6
REMARK    6  A    between atoms: C6_6  and  C22_28
REMARK    7  A    between atoms: C7_7  and  C8_8
REMARK    8  A    between atoms: C8_8  and  C9_9
REMARK    9  A    between atoms: C10_10  and  O6_27
REMARK   10  A    between atoms: C14_14  and  O1_15
REMARK   11  A    between atoms: C17_19  and  O5_26
REMARK   12  A    between atoms: C20_22  and  O4_25
REMARK                            x       y       z     vdW  Elec       q    Type
REMARK                         _______ _______ _______ _____ _____    ______ ____
ROOT
ATOM     11  C   UNL     1      46.569  17.219  19.550  0.00  0.00    -0.162 A 
ATOM     12  C   UNL     1      46.997  16.750  18.313  0.00  0.00    +0.198 A 
ATOM     15  C   UNL     1      48.193  17.188  17.765  0.00  0.00    -0.031 A 
ATOM     16  C   UNL     1      48.981  18.103  18.448  0.00  0.00    +0.191 A 
ATOM     17  C   UNL     1      48.549  18.579  19.698  0.00  0.00    -0.268 A 
ATOM     18  C   UNL     1      49.389  19.550  20.418  0.00  0.00    +0.439 A 
ATOM     19  C   UNL     1      50.644  19.960  19.760  0.00  0.00    -0.247 A 
ATOM     20  C   UNL     1      51.507  20.879  20.370  0.00  0.00    +0.196 A 
ATOM     23  C   UNL     1      52.680  21.245  19.730  0.00  0.00    -0.015 A 
ATOM     24  C   UNL     1      52.995  20.705  18.495  0.00  0.00    +0.092 A 
ATOM     25  C   UNL     1      52.152  19.792  17.886  0.00  0.00    +0.072 A 
ATOM     28  C   UNL     1      50.964  19.412  18.508  0.00  0.00    +0.153 A 
ATOM     29  O   UNL     1      49.065  19.995  21.504  0.00  0.00    -0.418 OA
ATOM     30  O   UNL     1      50.143  18.525  17.908  0.00  0.00    -0.217 OA
ATOM     31  C   UNL     1      47.338  18.132  20.247  0.00  0.00    +0.222 A 
ENDROOT
BRANCH  12  13
ATOM     13  O   UNL     1      46.235  15.854  17.635  0.00  0.00    -0.482 OA
ATOM     14  H   UNL     1      45.742  15.247  18.205  0.00  0.00    +0.400 HD
ENDBRANCH  12  13
BRANCH  20  21
ATOM     21  O   UNL     1      51.196  21.408  21.581  0.00  0.00    -0.476 OA
ATOM     22  H   UNL     1      51.801  22.103  21.875  0.00  0.00    +0.403 HD
ENDBRANCH  20  21
BRANCH  25  26
ATOM     26  O   UNL     1      52.479  19.272  16.673  0.00  0.00    -0.479 OA
ATOM     27  H   UNL     1      52.408  18.309  16.625  0.00  0.00    +0.393 HD
ENDBRANCH  25  26
BRANCH  31  32
ATOM     32  O   UNL     1      46.926  18.593  21.455  0.00  0.00    -0.469 OA
ATOM     33  H   UNL     1      47.223  18.058  22.203  0.00  0.00    +0.401 HD
ENDBRANCH  31  32
BRANCH  11  10
ATOM     10  C   UNL     1      45.267  16.733  20.132  0.00  0.00    +0.137 C 
BRANCH  10   9
ATOM      7  C   UNL     1      43.468  18.214  20.859  0.00  0.00    -0.117 C 
ATOM      8  C   UNL     1      43.636  17.646  22.244  0.00  0.00    +0.077 C 
ATOM      9  C   UNL     1      44.187  17.750  19.867  0.00  0.00    -0.058 C 
BRANCH   7   6
ATOM      6  C   UNL     1      42.471  19.318  20.613  0.00  0.00    +0.060 C 
BRANCH   6   5
ATOM      5  C   UNL     1      43.109  20.395  19.732  0.00  0.00    +0.053 C 
BRANCH   5   4
ATOM      1  C   UNL     1      45.676  20.944  18.705  0.00  0.00    +0.071 C 
ATOM      2  C   UNL     1      45.305  21.400  20.092  0.00  0.00    -0.132 C 
ATOM      3  C   UNL     1      46.325  22.096  20.956  0.00  0.00    +0.072 C 
ATOM      4  C   UNL     1      44.094  21.192  20.548  0.00  0.00    -0.061 C 
ENDBRANCH   5   4
ENDBRANCH   6   5
ENDBRANCH   7   6
ENDBRANCH  10   9
ENDBRANCH  11  10
TORSDOF 9
ENDMDL
MODEL 8
REMARK VINA RESULT:      -6.2      2.976      7.240
REMARK  Name = ZINC15120680
REMARK  12 active torsions:
REMARK  status: ('A' for Active; 'I' for Inactive)
REMARK    1  A    between atoms: C1_1  and  C2_2
REMARK    2  A    between atoms: C2_2  and  C23_29
REMARK    3  A    between atoms: C3_3  and  C4_4
REMARK    4  A    between atoms: C4_4  and  C5_5
REMARK    5  A    between atoms: C5_5  and  C6_6
REMARK    6  A    between atoms: C6_6  and  C22_28
REMARK    7  A    between atoms: C7_7  and  C8_8
REMARK    8  A    between atoms: C8_8  and  C9_9
REMARK    9  A    between atoms: C10_10  and  O6_27
REMARK   10  A    between atoms: C14_14  and  O1_15
REMARK   11  A    between atoms: C17_19  and  O5_26
REMARK   12  A    between atoms: C20_22  and  O4_25
REMARK                            x       y       z     vdW  Elec       q    Type
REMARK                         _______ _______ _______ _____ _____    ______ ____
ROOT
ATOM     11  C   UNL     1      48.403  18.856  19.607  0.00  0.00    -0.162 A 
ATOM     12  C   UNL     1      49.254  18.782  18.511  0.00  0.00    +0.198 A 
ATOM     15  C   UNL     1      49.195  17.705  17.640  0.00  0.00    -0.031 A 
ATOM     16  C   UNL     1      48.282  16.683  17.854  0.00  0.00    +0.191 A 
ATOM     17  C   UNL     1      47.421  16.756  18.963  0.00  0.00    -0.268 A 
ATOM     18  C   UNL     1      46.453  15.669  19.185  0.00  0.00    +0.439 A 
ATOM     19  C   UNL     1      46.460  14.563  18.209  0.00  0.00    -0.247 A 
ATOM     20  C   UNL     1      45.575  13.486  18.338  0.00  0.00    +0.196 A 
ATOM     23  C   UNL     1      45.603  12.461  17.407  0.00  0.00    -0.015 A 
ATOM     24  C   UNL     1      46.501  12.504  16.354  0.00  0.00    +0.092 A 
ATOM     25  C   UNL     1      47.377  13.567  16.214  0.00  0.00    +0.072 A 
ATOM     28  C   UNL     1      47.371  14.607  17.141  0.00  0.00    +0.153 A 
ATOM     29  O   UNL     1      45.684  15.681  20.128  0.00  0.00    -0.418 OA
ATOM     30  O   UNL     1      48.230  15.638  17.003  0.00  0.00    -0.217 OA
ATOM     31  C   UNL     1      47.485  17.849  19.840  0.00  0.00    +0.222 A 
ENDROOT
BRANCH  12  13
ATOM     13  O   UNL     1      50.153  19.776  18.290  0.00  0.00    -0.482 OA
ATOM     14  H   UNL     1      50.868  19.532  17.687  0.00  0.00    +0.400 HD
ENDBRANCH  12  13
BRANCH  20  21
ATOM     21  O   UNL     1      44.696  13.446  19.371  0.00  0.00    -0.476 OA
ATOM     22  H   UNL     1      44.059  12.720  19.319  0.00  0.00    +0.403 HD
ENDBRANCH  20  21
BRANCH  25  26
ATOM     26  O   UNL     1      48.252  13.590  15.172  0.00  0.00    -0.479 OA
ATOM     27  H   UNL     1      48.703  14.437  15.057  0.00  0.00    +0.393 HD
ENDBRANCH  25  26
BRANCH  31  32
ATOM     32  O   UNL     1      46.653  17.916  20.909  0.00  0.00    -0.469 OA
ATOM     33  H   UNL     1      46.390  17.054  21.258  0.00  0.00    +0.401 HD
ENDBRANCH  31  32
BRANCH  11  10
ATOM     10  C   UNL     1      48.480  20.035  20.544  0.00  0.00    +0.137 C 
BRANCH  10   9
ATOM      7  C   UNL     1      46.646  21.561  21.058  0.00  0.00    -0.117 C 
ATOM      8  C   UNL     1      46.677  21.033  22.469  0.00  0.00    +0.077 C 
ATOM      9  C   UNL     1      47.445  21.057  20.151  0.00  0.00    -0.058 C 
BRANCH   7   6
ATOM      6  C   UNL     1      45.693  22.669  20.690  0.00  0.00    +0.060 C 
BRANCH   6   5
ATOM      5  C   UNL     1      44.993  22.324  19.373  0.00  0.00    +0.053 C 
BRANCH   5   4
ATOM      1  C   UNL     1      44.455  19.672  18.583  0.00  0.00    +0.071 C 
ATOM      2  C   UNL     1      43.382  20.494  19.249  0.00  0.00    -0.132 C 
ATOM      3  C   UNL     1      42.001  19.921  19.438  0.00  0.00    +0.072 C 
ATOM      4  C   UNL     1      43.650  21.708  19.664  0.00  0.00    -0.061 C 
ENDBRANCH   5   4
ENDBRANCH   6   5
ENDBRANCH   7   6
ENDBRANCH  10   9
ENDBRANCH  11  10
TORSDOF 9
ENDMDL
MODEL 9
REMARK VINA RESULT:      -6.1      4.148      7.429
REMARK  Name = ZINC15120680
REMARK  12 active torsions:
REMARK  status: ('A' for Active; 'I' for Inactive)
REMARK    1  A    between atoms: C1_1  and  C2_2
REMARK    2  A    between atoms: C2_2  and  C23_29
REMARK    3  A    between atoms: C3_3  and  C4_4
REMARK    4  A    between atoms: C4_4  and  C5_5
REMARK    5  A    between atoms: C5_5  and  C6_6
REMARK    6  A    between atoms: C6_6  and  C22_28
REMARK    7  A    between atoms: C7_7  and  C8_8
REMARK    8  A    between atoms: C8_8  and  C9_9
REMARK    9  A    between atoms: C10_10  and  O6_27
REMARK   10  A    between atoms: C14_14  and  O1_15
REMARK   11  A    between atoms: C17_19  and  O5_26
REMARK   12  A    between atoms: C20_22  and  O4_25
REMARK                            x       y       z     vdW  Elec       q    Type
REMARK                         _______ _______ _______ _____ _____    ______ ____
ROOT
ATOM     11  C   UNL     1      46.804  16.959  18.961  0.00  0.00    -0.162 A 
ATOM     12  C   UNL     1      46.420  17.280  17.664  0.00  0.00    +0.198 A 
ATOM     15  C   UNL     1      46.543  16.354  16.639  0.00  0.00    -0.031 A 
ATOM     16  C   UNL     1      47.055  15.091  16.897  0.00  0.00    +0.191 A 
ATOM     17  C   UNL     1      47.445  14.765  18.208  0.00  0.00    -0.268 A 
ATOM     18  C   UNL     1      47.987  13.423  18.476  0.00  0.00    +0.439 A 
ATOM     19  C   UNL     1      48.083  12.503  17.327  0.00  0.00    -0.247 A 
ATOM     20  C   UNL     1      48.586  11.206  17.486  0.00  0.00    +0.196 A 
ATOM     23  C   UNL     1      48.663  10.363  16.390  0.00  0.00    -0.015 A 
ATOM     24  C   UNL     1      48.246  10.802  15.145  0.00  0.00    +0.092 A 
ATOM     25  C   UNL     1      47.743  12.080  14.978  0.00  0.00    +0.072 A 
ATOM     28  C   UNL     1      47.659  12.948  16.065  0.00  0.00    +0.153 A 
ATOM     29  O   UNL     1      48.339  13.087  19.592  0.00  0.00    -0.418 OA
ATOM     30  O   UNL     1      47.173  14.195  15.895  0.00  0.00    -0.217 OA
ATOM     31  C   UNL     1      47.317  15.706  19.240  0.00  0.00    +0.222 A 
ENDROOT
BRANCH  12  13
ATOM     13  O   UNL     1      45.917  18.513  17.398  0.00  0.00    -0.482 OA
ATOM     14  H   UNL     1      46.570  19.137  17.052  0.00  0.00    +0.400 HD
ENDBRANCH  12  13
BRANCH  20  21
ATOM     21  O   UNL     1      48.994  10.778  18.708  0.00  0.00    -0.476 OA
ATOM     22  H   UNL     1      49.804  10.249  18.690  0.00  0.00    +0.403 HD
ENDBRANCH  20  21
BRANCH  25  26
ATOM     26  O   UNL     1      47.338  12.493  13.747  0.00  0.00    -0.479 OA
ATOM     27  H   UNL     1      47.411  11.815  13.061  0.00  0.00    +0.393 HD
ENDBRANCH  25  26
BRANCH  31  32
ATOM     32  O   UNL     1      47.694  15.388  20.504  0.00  0.00    -0.469 OA
ATOM     33  H   UNL     1      48.454  15.890  20.826  0.00  0.00    +0.401 HD
ENDBRANCH  31  32
BRANCH  11  10
ATOM     10  C   UNL     1      46.662  17.977  20.063  0.00  0.00    +0.137 C 
BRANCH  10   9
ATOM      7  C   UNL     1      47.987  20.025  20.167  0.00  0.00    -0.117 C 
ATOM      8  C   UNL     1      46.738  20.784  19.801  0.00  0.00    +0.077 C 
ATOM      9  C   UNL     1      47.964  18.717  20.234  0.00  0.00    -0.058 C 
BRANCH   7   6
ATOM      6  C   UNL     1      49.264  20.771  20.457  0.00  0.00    +0.060 C 
BRANCH   6   5
ATOM      5  C   UNL     1      50.401  20.182  19.618  0.00  0.00    +0.053 C 
BRANCH   5   4
ATOM      1  C   UNL     1      52.253  19.353  17.660  0.00  0.00    +0.071 C 
ATOM      2  C   UNL     1      51.374  20.552  17.410  0.00  0.00    -0.132 C 
ATOM      3  C   UNL     1      51.529  21.347  16.139  0.00  0.00    +0.072 C 
ATOM      4  C   UNL     1      50.478  20.904  18.298  0.00  0.00    -0.061 C 
ENDBRANCH   5   4
ENDBRANCH   6   5
ENDBRANCH   7   6
ENDBRANCH  10   9
ENDBRANCH  11  10
TORSDOF 9
ENDMDL
