MODEL 1
REMARK VINA RESULT:      -5.7      0.000      0.000
REMARK  Name = ZINC33831299
REMARK  6 active torsions:
REMARK  status: ('A' for Active; 'I' for Inactive)
REMARK    1  A    between atoms: C1_1  and  C2_2
REMARK    2  A    between atoms: C6_6  and  C19_25
REMARK    3  A    between atoms: C6_6  and  C20_26
REMARK    4  A    between atoms: C10_11  and  C18_23
REMARK    5  A    between atoms: C14_16  and  C17_21
REMARK    6  A    between atoms: C16_18  and  O1_20
REMARK                            x       y       z     vdW  Elec       q    Type
REMARK                         _______ _______ _______ _____ _____    ______ ____
ROOT
ATOM      1  C   UNL     1      46.634  19.856  21.301  0.00  0.00    +0.026 C 
ATOM      2  C   UNL     1      46.558  20.378  19.870  0.00  0.00    -0.037 C 
ATOM      3  C   UNL     1      46.494  21.915  19.930  0.00  0.00    +0.019 C 
ATOM      4  C   UNL     1      45.242  22.339  20.696  0.00  0.00    +0.005 C 
ATOM      5  C   UNL     1      43.989  21.868  19.973  0.00  0.00    +0.010 C 
ATOM      6  C   UNL     1      43.999  20.365  19.693  0.00  0.00    -0.047 C 
ATOM      7  C   UNL     1      43.573  19.594  20.941  0.00  0.00    +0.023 C 
ATOM      8  C   UNL     1      42.906  20.120  18.619  0.00  0.00    +0.011 C 
ATOM      9  C   UNL     1      47.809  19.973  19.089  0.00  0.00    +0.029 C 
ATOM     10  C   UNL     1      49.069  20.459  19.815  0.00  0.00    +0.066 C 
ATOM     11  C   UNL     1      50.052  20.929  18.759  0.00  0.00    +0.065 C 
ATOM     12  C   UNL     1      50.662  20.049  17.991  0.00  0.00    -0.224 C 
ATOM     15  C   UNL     1      50.385  18.570  18.175  0.00  0.00    +0.056 C 
ATOM     16  C   UNL     1      48.990  18.250  17.668  0.00  0.00    +0.190 C 
ATOM     19  C   UNL     1      47.891  18.508  18.712  0.00  0.00    -0.103 C 
ATOM     22  C   UNL     1      46.579  18.073  18.028  0.00  0.00    +0.043 C 
ATOM     23  C   UNL     1      45.379  18.384  18.927  0.00  0.00    +0.023 C 
ATOM     24  C   UNL     1      45.319  19.897  19.123  0.00  0.00    +0.000 C 
ENDROOT
BRANCH  12  13
ATOM     13  C   UNL     1      51.601  20.498  16.963  0.00  0.00    +0.475 C 
ATOM     14  O   UNL     1      51.360  21.494  16.313  0.00  0.00    -0.458 OA
ENDBRANCH  12  13
BRANCH  16  17
ATOM     17  O   UNL     1      48.937  16.873  17.283  0.00  0.00    -0.563 OA
ATOM     18  H   UNL     1      48.087  16.602  16.910  0.00  0.00    +0.385 HD
ENDBRANCH  16  17
BRANCH  19  20
ATOM     20  C   UNL     1      48.143  17.594  19.875  0.00  0.00    +0.448 C 
ATOM     21  O   UNL     1      47.953  16.407  19.761  0.00  0.00    -0.440 OA
ENDBRANCH  19  20
TORSDOF 3
ENDMDL
MODEL 2
REMARK VINA RESULT:      -5.5      2.825      6.268
REMARK  Name = ZINC33831299
REMARK  6 active torsions:
REMARK  status: ('A' for Active; 'I' for Inactive)
REMARK    1  A    between atoms: C1_1  and  C2_2
REMARK    2  A    between atoms: C6_6  and  C19_25
REMARK    3  A    between atoms: C6_6  and  C20_26
REMARK    4  A    between atoms: C10_11  and  C18_23
REMARK    5  A    between atoms: C14_16  and  C17_21
REMARK    6  A    between atoms: C16_18  and  O1_20
REMARK                            x       y       z     vdW  Elec       q    Type
REMARK                         _______ _______ _______ _____ _____    ______ ____
ROOT
ATOM      1  C   UNL     1      51.208  17.985  19.510  0.00  0.00    +0.026 C 
ATOM      2  C   UNL     1      50.115  18.428  18.543  0.00  0.00    -0.037 C 
ATOM      3  C   UNL     1      50.093  17.433  17.367  0.00  0.00    +0.019 C 
ATOM      4  C   UNL     1      51.445  17.460  16.658  0.00  0.00    +0.005 C 
ATOM      5  C   UNL     1      51.713  18.839  16.072  0.00  0.00    +0.010 C 
ATOM      6  C   UNL     1      51.597  19.954  17.110  0.00  0.00    -0.047 C 
ATOM      7  C   UNL     1      52.883  20.049  17.928  0.00  0.00    +0.023 C 
ATOM      8  C   UNL     1      51.477  21.277  16.309  0.00  0.00    +0.011 C 
ATOM      9  C   UNL     1      48.750  18.396  19.232  0.00  0.00    +0.029 C 
ATOM     10  C   UNL     1      48.479  17.003  19.812  0.00  0.00    +0.066 C 
ATOM     11  C   UNL     1      47.010  16.695  19.593  0.00  0.00    +0.065 C 
ATOM     12  C   UNL     1      46.094  17.322  20.301  0.00  0.00    -0.224 C 
ATOM     15  C   UNL     1      46.515  18.343  21.340  0.00  0.00    +0.056 C 
ATOM     16  C   UNL     1      47.029  19.591  20.643  0.00  0.00    +0.190 C 
ATOM     19  C   UNL     1      48.511  19.497  20.245  0.00  0.00    -0.103 C 
ATOM     22  C   UNL     1      48.843  20.865  19.614  0.00  0.00    +0.043 C 
ATOM     23  C   UNL     1      50.273  20.868  19.068  0.00  0.00    +0.023 C 
ATOM     24  C   UNL     1      50.356  19.816  17.963  0.00  0.00    +0.000 C 
ENDROOT
BRANCH  12  13
ATOM     13  C   UNL     1      44.675  17.038  20.085  0.00  0.00    +0.475 C 
ATOM     14  O   UNL     1      43.848  17.910  20.256  0.00  0.00    -0.458 OA
ENDBRANCH  12  13
BRANCH  16  17
ATOM     17  O   UNL     1      46.862  20.714  21.514  0.00  0.00    -0.563 OA
ATOM     18  H   UNL     1      47.278  21.526  21.191  0.00  0.00    +0.385 HD
ENDBRANCH  16  17
BRANCH  19  20
ATOM     20  C   UNL     1      49.314  19.350  21.504  0.00  0.00    +0.448 C 
ATOM     21  O   UNL     1      49.426  20.285  22.260  0.00  0.00    -0.440 OA
ENDBRANCH  19  20
TORSDOF 3
ENDMDL
MODEL 3
REMARK VINA RESULT:      -5.4      3.269      6.686
REMARK  Name = ZINC33831299
REMARK  6 active torsions:
REMARK  status: ('A' for Active; 'I' for Inactive)
REMARK    1  A    between atoms: C1_1  and  C2_2
REMARK    2  A    between atoms: C6_6  and  C19_25
REMARK    3  A    between atoms: C6_6  and  C20_26
REMARK    4  A    between atoms: C10_11  and  C18_23
REMARK    5  A    between atoms: C14_16  and  C17_21
REMARK    6  A    between atoms: C16_18  and  O1_20
REMARK                            x       y       z     vdW  Elec       q    Type
REMARK                         _______ _______ _______ _____ _____    ______ ____
ROOT
ATOM      1  C   UNL     1      46.995  16.327  20.830  0.00  0.00    +0.026 C 
ATOM      2  C   UNL     1      45.798  16.102  19.912  0.00  0.00    -0.037 C 
ATOM      3  C   UNL     1      45.125  14.781  20.328  0.00  0.00    +0.019 C 
ATOM      4  C   UNL     1      46.120  13.634  20.161  0.00  0.00    +0.005 C 
ATOM      5  C   UNL     1      46.527  13.488  18.702  0.00  0.00    +0.010 C 
ATOM      6  C   UNL     1      47.062  14.790  18.106  0.00  0.00    -0.047 C 
ATOM      7  C   UNL     1      48.524  14.989  18.498  0.00  0.00    +0.023 C 
ATOM      8  C   UNL     1      47.031  14.603  16.566  0.00  0.00    +0.011 C 
ATOM      9  C   UNL     1      44.784  17.235  20.073  0.00  0.00    +0.029 C 
ATOM     10  C   UNL     1      44.368  17.372  21.542  0.00  0.00    +0.066 C 
ATOM     11  C   UNL     1      42.883  17.686  21.569  0.00  0.00    +0.065 C 
ATOM     12  C   UNL     1      42.455  18.872  21.190  0.00  0.00    -0.224 C 
ATOM     15  C   UNL     1      43.450  19.923  20.739  0.00  0.00    +0.056 C 
ATOM     16  C   UNL     1      44.010  19.538  19.380  0.00  0.00    +0.190 C 
ATOM     19  C   UNL     1      45.194  18.562  19.465  0.00  0.00    -0.103 C 
ATOM     22  C   UNL     1      45.642  18.348  18.005  0.00  0.00    +0.043 C 
ATOM     23  C   UNL     1      46.755  17.299  17.936  0.00  0.00    +0.023 C 
ATOM     24  C   UNL     1      46.186  15.976  18.443  0.00  0.00    +0.000 C 
ENDROOT
BRANCH  12  13
ATOM     13  C   UNL     1      41.023  19.175  21.202  0.00  0.00    +0.475 C 
ATOM     14  O   UNL     1      40.547  19.889  20.345  0.00  0.00    -0.458 OA
ENDBRANCH  12  13
BRANCH  16  17
ATOM     17  O   UNL     1      44.443  20.721  18.702  0.00  0.00    -0.563 OA
ATOM     18  H   UNL     1      43.824  21.038  18.030  0.00  0.00    +0.385 HD
ENDBRANCH  16  17
BRANCH  19  20
ATOM     20  C   UNL     1      46.303  19.252  20.203  0.00  0.00    +0.448 C 
ATOM     21  O   UNL     1      46.901  20.161  19.680  0.00  0.00    -0.440 OA
ENDBRANCH  19  20
TORSDOF 3
ENDMDL
MODEL 4
REMARK VINA RESULT:      -5.4      1.614      2.131
REMARK  Name = ZINC33831299
REMARK  6 active torsions:
REMARK  status: ('A' for Active; 'I' for Inactive)
REMARK    1  A    between atoms: C1_1  and  C2_2
REMARK    2  A    between atoms: C6_6  and  C19_25
REMARK    3  A    between atoms: C6_6  and  C20_26
REMARK    4  A    between atoms: C10_11  and  C18_23
REMARK    5  A    between atoms: C14_16  and  C17_21
REMARK    6  A    between atoms: C16_18  and  O1_20
REMARK                            x       y       z     vdW  Elec       q    Type
REMARK                         _______ _______ _______ _____ _____    ______ ____
ROOT
ATOM      1  C   UNL     1      46.911  19.191  21.541  0.00  0.00    +0.026 C 
ATOM      2  C   UNL     1      47.197  20.053  20.317  0.00  0.00    -0.037 C 
ATOM      3  C   UNL     1      48.212  21.136  20.728  0.00  0.00    +0.019 C 
ATOM      4  C   UNL     1      47.609  22.001  21.833  0.00  0.00    +0.005 C 
ATOM      5  C   UNL     1      46.367  22.721  21.329  0.00  0.00    +0.010 C 
ATOM      6  C   UNL     1      45.333  21.768  20.730  0.00  0.00    -0.047 C 
ATOM      7  C   UNL     1      44.510  21.118  21.840  0.00  0.00    +0.023 C 
ATOM      8  C   UNL     1      44.359  22.651  19.907  0.00  0.00    +0.011 C 
ATOM      9  C   UNL     1      47.812  19.208  19.201  0.00  0.00    +0.029 C 
ATOM     10  C   UNL     1      49.069  18.492  19.710  0.00  0.00    +0.066 C 
ATOM     11  C   UNL     1      50.090  18.510  18.587  0.00  0.00    +0.065 C 
ATOM     12  C   UNL     1      49.914  17.750  17.526  0.00  0.00    -0.224 C 
ATOM     15  C   UNL     1      48.696  16.852  17.437  0.00  0.00    +0.056 C 
ATOM     16  C   UNL     1      47.459  17.701  17.205  0.00  0.00    +0.190 C 
ATOM     19  C   UNL     1      46.855  18.263  18.502  0.00  0.00    -0.103 C 
ATOM     22  C   UNL     1      45.597  19.035  18.056  0.00  0.00    +0.043 C 
ATOM     23  C   UNL     1      44.955  19.746  19.252  0.00  0.00    +0.023 C 
ATOM     24  C   UNL     1      45.958  20.766  19.785  0.00  0.00    +0.000 C 
ENDROOT
BRANCH  12  13
ATOM     13  C   UNL     1      50.890  17.773  16.435  0.00  0.00    +0.475 C 
ATOM     14  O   UNL     1      51.297  18.833  16.008  0.00  0.00    -0.458 OA
ENDBRANCH  12  13
BRANCH  16  17
ATOM     17  O   UNL     1      46.465  16.909  16.547  0.00  0.00    -0.563 OA
ATOM     18  H   UNL     1      46.717  16.618  15.660  0.00  0.00    +0.385 HD
ENDBRANCH  16  17
BRANCH  19  20
ATOM     20  C   UNL     1      46.423  17.101  19.346  0.00  0.00    +0.448 C 
ATOM     21  O   UNL     1      45.467  16.440  19.017  0.00  0.00    -0.440 OA
ENDBRANCH  19  20
TORSDOF 3
ENDMDL
MODEL 5
REMARK VINA RESULT:      -5.4      3.039      6.271
REMARK  Name = ZINC33831299
REMARK  6 active torsions:
REMARK  status: ('A' for Active; 'I' for Inactive)
REMARK    1  A    between atoms: C1_1  and  C2_2
REMARK    2  A    between atoms: C6_6  and  C19_25
REMARK    3  A    between atoms: C6_6  and  C20_26
REMARK    4  A    between atoms: C10_11  and  C18_23
REMARK    5  A    between atoms: C14_16  and  C17_21
REMARK    6  A    between atoms: C16_18  and  O1_20
REMARK                            x       y       z     vdW  Elec       q    Type
REMARK                         _______ _______ _______ _____ _____    ______ ____
ROOT
ATOM      1  C   UNL     1      46.331  18.205  21.320  0.00  0.00    +0.026 C 
ATOM      2  C   UNL     1      45.932  18.194  19.848  0.00  0.00    -0.037 C 
ATOM      3  C   UNL     1      45.348  16.805  19.528  0.00  0.00    +0.019 C 
ATOM      4  C   UNL     1      46.413  15.739  19.778  0.00  0.00    +0.005 C 
ATOM      5  C   UNL     1      47.603  15.947  18.853  0.00  0.00    +0.010 C 
ATOM      6  C   UNL     1      48.183  17.358  18.945  0.00  0.00    -0.047 C 
ATOM      7  C   UNL     1      49.103  17.471  20.159  0.00  0.00    +0.023 C 
ATOM      8  C   UNL     1      49.074  17.540  17.689  0.00  0.00    +0.011 C 
ATOM      9  C   UNL     1      44.857  19.247  19.580  0.00  0.00    +0.029 C 
ATOM     10  C   UNL     1      43.655  19.028  20.507  0.00  0.00    +0.066 C 
ATOM     11  C   UNL     1      42.400  19.313  19.702  0.00  0.00    +0.065 C 
ATOM     12  C   UNL     1      42.099  20.551  19.370  0.00  0.00    -0.224 C 
ATOM     15  C   UNL     1      43.003  21.688  19.805  0.00  0.00    +0.056 C 
ATOM     16  C   UNL     1      44.293  21.642  19.004  0.00  0.00    +0.190 C 
ATOM     19  C   UNL     1      45.341  20.684  19.594  0.00  0.00    -0.103 C 
ATOM     22  C   UNL     1      46.574  20.825  18.680  0.00  0.00    +0.043 C 
ATOM     23  C   UNL     1      47.664  19.833  19.095  0.00  0.00    +0.023 C 
ATOM     24  C   UNL     1      47.109  18.422  18.908  0.00  0.00    +0.000 C 
ENDROOT
BRANCH  12  13
ATOM     13  C   UNL     1      40.897  20.830  18.584  0.00  0.00    +0.475 C 
ATOM     14  O   UNL     1      40.604  21.974  18.307  0.00  0.00    -0.458 OA
ENDBRANCH  12  13
BRANCH  16  17
ATOM     17  O   UNL     1      44.858  22.955  18.951  0.00  0.00    -0.563 OA
ATOM     18  H   UNL     1      45.542  23.116  19.615  0.00  0.00    +0.385 HD
ENDBRANCH  16  17
BRANCH  19  20
ATOM     20  C   UNL     1      45.704  21.189  20.960  0.00  0.00    +0.448 C 
ATOM     21  O   UNL     1      46.352  22.201  21.075  0.00  0.00    -0.440 OA
ENDBRANCH  19  20
TORSDOF 3
ENDMDL
MODEL 6
REMARK VINA RESULT:      -5.3      1.731      2.242
REMARK  Name = ZINC33831299
REMARK  6 active torsions:
REMARK  status: ('A' for Active; 'I' for Inactive)
REMARK    1  A    between atoms: C1_1  and  C2_2
REMARK    2  A    between atoms: C6_6  and  C19_25
REMARK    3  A    between atoms: C6_6  and  C20_26
REMARK    4  A    between atoms: C10_11  and  C18_23
REMARK    5  A    between atoms: C14_16  and  C17_21
REMARK    6  A    between atoms: C16_18  and  O1_20
REMARK                            x       y       z     vdW  Elec       q    Type
REMARK                         _______ _______ _______ _____ _____    ______ ____
ROOT
ATOM      1  C   UNL     1      47.788  20.720  20.979  0.00  0.00    +0.026 C 
ATOM      2  C   UNL     1      47.624  20.010  19.640  0.00  0.00    -0.037 C 
ATOM      3  C   UNL     1      46.857  20.954  18.696  0.00  0.00    +0.019 C 
ATOM      4  C   UNL     1      45.481  21.253  19.288  0.00  0.00    +0.005 C 
ATOM      5  C   UNL     1      44.661  19.976  19.405  0.00  0.00    +0.010 C 
ATOM      6  C   UNL     1      45.386  18.879  20.185  0.00  0.00    -0.047 C 
ATOM      7  C   UNL     1      45.240  19.116  21.687  0.00  0.00    +0.023 C 
ATOM      8  C   UNL     1      44.640  17.558  19.864  0.00  0.00    +0.011 C 
ATOM      9  C   UNL     1      48.991  19.712  19.024  0.00  0.00    +0.029 C 
ATOM     10  C   UNL     1      49.809  21.002  18.898  0.00  0.00    +0.066 C 
ATOM     11  C   UNL     1      50.568  20.935  17.584  0.00  0.00    +0.065 C 
ATOM     12  C   UNL     1      51.585  20.109  17.455  0.00  0.00    -0.224 C 
ATOM     15  C   UNL     1      52.001  19.237  18.623  0.00  0.00    +0.056 C 
ATOM     16  C   UNL     1      50.964  18.146  18.832  0.00  0.00    +0.190 C 
ATOM     19  C   UNL     1      49.772  18.598  19.691  0.00  0.00    -0.103 C 
ATOM     22  C   UNL     1      48.880  17.347  19.828  0.00  0.00    +0.043 C 
ATOM     23  C   UNL     1      47.589  17.691  20.576  0.00  0.00    +0.023 C 
ATOM     24  C   UNL     1      46.823  18.717  19.743  0.00  0.00    +0.000 C 
ENDROOT
BRANCH  12  13
ATOM     13  C   UNL     1      52.311  20.031  16.186  0.00  0.00    +0.475 C 
ATOM     14  O   UNL     1      52.178  19.062  15.469  0.00  0.00    -0.458 OA
ENDBRANCH  12  13
BRANCH  16  17
ATOM     17  O   UNL     1      51.587  17.027  19.471  0.00  0.00    -0.563 OA
ATOM     18  H   UNL     1      52.350  17.260  20.016  0.00  0.00    +0.385 HD
ENDBRANCH  16  17
BRANCH  19  20
ATOM     20  C   UNL     1      50.298  18.954  21.051  0.00  0.00    +0.448 C 
ATOM     21  O   UNL     1      50.670  18.083  21.801  0.00  0.00    -0.440 OA
ENDBRANCH  19  20
TORSDOF 3
ENDMDL
MODEL 7
REMARK VINA RESULT:      -5.2      2.418      5.841
REMARK  Name = ZINC33831299
REMARK  6 active torsions:
REMARK  status: ('A' for Active; 'I' for Inactive)
REMARK    1  A    between atoms: C1_1  and  C2_2
REMARK    2  A    between atoms: C6_6  and  C19_25
REMARK    3  A    between atoms: C6_6  and  C20_26
REMARK    4  A    between atoms: C10_11  and  C18_23
REMARK    5  A    between atoms: C14_16  and  C17_21
REMARK    6  A    between atoms: C16_18  and  O1_20
REMARK                            x       y       z     vdW  Elec       q    Type
REMARK                         _______ _______ _______ _____ _____    ______ ____
ROOT
ATOM      1  C   UNL     1      49.377  18.701  18.426  0.00  0.00    +0.026 C 
ATOM      2  C   UNL     1      49.294  19.977  19.257  0.00  0.00    -0.037 C 
ATOM      3  C   UNL     1      49.736  21.152  18.365  0.00  0.00    +0.019 C 
ATOM      4  C   UNL     1      51.178  20.928  17.913  0.00  0.00    +0.005 C 
ATOM      5  C   UNL     1      52.114  20.901  19.112  0.00  0.00    +0.010 C 
ATOM      6  C   UNL     1      51.689  19.883  20.170  0.00  0.00    -0.047 C 
ATOM      7  C   UNL     1      52.153  18.483  19.771  0.00  0.00    +0.023 C 
ATOM      8  C   UNL     1      52.459  20.259  21.463  0.00  0.00    +0.011 C 
ATOM      9  C   UNL     1      47.854  20.225  19.710  0.00  0.00    +0.029 C 
ATOM     10  C   UNL     1      46.915  20.263  18.498  0.00  0.00    +0.066 C 
ATOM     11  C   UNL     1      45.886  21.349  18.752  0.00  0.00    +0.065 C 
ATOM     12  C   UNL     1      44.945  21.165  19.654  0.00  0.00    -0.224 C 
ATOM     15  C   UNL     1      44.888  19.863  20.428  0.00  0.00    +0.056 C 
ATOM     16  C   UNL     1      46.039  19.813  21.418  0.00  0.00    +0.190 C 
ATOM     19  C   UNL     1      47.350  19.301  20.800  0.00  0.00    -0.103 C 
ATOM     22  C   UNL     1      48.359  19.274  21.966  0.00  0.00    +0.043 C 
ATOM     23  C   UNL     1      49.751  18.884  21.460  0.00  0.00    +0.023 C 
ATOM     24  C   UNL     1      50.210  19.957  20.475  0.00  0.00    +0.000 C 
ENDROOT
BRANCH  12  13
ATOM     13  C   UNL     1      43.959  22.215  19.912  0.00  0.00    +0.475 C 
ATOM     14  O   UNL     1      42.883  22.187  19.352  0.00  0.00    -0.458 OA
ENDBRANCH  12  13
BRANCH  16  17
ATOM     17  O   UNL     1      45.684  18.954  22.505  0.00  0.00    -0.563 OA
ATOM     18  H   UNL     1      45.237  18.141  22.234  0.00  0.00    +0.385 HD
ENDBRANCH  16  17
BRANCH  19  20
ATOM     20  C   UNL     1      47.119  17.891  20.342  0.00  0.00    +0.448 C 
ATOM     21  O   UNL     1      47.143  16.986  21.142  0.00  0.00    -0.440 OA
ENDBRANCH  19  20
TORSDOF 3
ENDMDL
MODEL 8
REMARK VINA RESULT:      -5.1      3.318      4.385
REMARK  Name = ZINC33831299
REMARK  6 active torsions:
REMARK  status: ('A' for Active; 'I' for Inactive)
REMARK    1  A    between atoms: C1_1  and  C2_2
REMARK    2  A    between atoms: C6_6  and  C19_25
REMARK    3  A    between atoms: C6_6  and  C20_26
REMARK    4  A    between atoms: C10_11  and  C18_23
REMARK    5  A    between atoms: C14_16  and  C17_21
REMARK    6  A    between atoms: C16_18  and  O1_20
REMARK                            x       y       z     vdW  Elec       q    Type
REMARK                         _______ _______ _______ _____ _____    ______ ____
ROOT
ATOM      1  C   UNL     1      46.407  18.993  20.408  0.00  0.00    +0.026 C 
ATOM      2  C   UNL     1      45.325  18.267  19.615  0.00  0.00    -0.037 C 
ATOM      3  C   UNL     1      44.940  19.156  18.418  0.00  0.00    +0.019 C 
ATOM      4  C   UNL     1      44.393  20.487  18.931  0.00  0.00    +0.005 C 
ATOM      5  C   UNL     1      43.128  20.265  19.747  0.00  0.00    +0.010 C 
ATOM      6  C   UNL     1      43.327  19.260  20.882  0.00  0.00    -0.047 C 
ATOM      7  C   UNL     1      43.984  19.940  22.080  0.00  0.00    +0.023 C 
ATOM      8  C   UNL     1      41.905  18.833  21.332  0.00  0.00    +0.011 C 
ATOM      9  C   UNL     1      45.857  16.937  19.082  0.00  0.00    +0.029 C 
ATOM     10  C   UNL     1      47.125  17.166  18.252  0.00  0.00    +0.066 C 
ATOM     11  C   UNL     1      47.074  16.218  17.068  0.00  0.00    +0.065 C 
ATOM     12  C   UNL     1      47.256  14.927  17.252  0.00  0.00    -0.224 C 
ATOM     15  C   UNL     1      47.528  14.395  18.645  0.00  0.00    +0.056 C 
ATOM     16  C   UNL     1      46.257  14.473  19.473  0.00  0.00    +0.190 C 
ATOM     19  C   UNL     1      46.038  15.849  20.122  0.00  0.00    -0.103 C 
ATOM     22  C   UNL     1      44.745  15.701  20.950  0.00  0.00    +0.043 C 
ATOM     23  C   UNL     1      44.348  17.045  21.566  0.00  0.00    +0.023 C 
ATOM     24  C   UNL     1      44.058  18.017  20.425  0.00  0.00    +0.000 C 
ENDROOT
BRANCH  12  13
ATOM     13  C   UNL     1      47.194  14.007  16.115  0.00  0.00    +0.475 C 
ATOM     14  O   UNL     1      46.927  12.837  16.295  0.00  0.00    -0.458 OA
ENDBRANCH  12  13
BRANCH  16  17
ATOM     17  O   UNL     1      46.312  13.486  20.507  0.00  0.00    -0.563 OA
ATOM     18  H   UNL     1      45.615  13.574  21.172  0.00  0.00    +0.385 HD
ENDBRANCH  16  17
BRANCH  19  20
ATOM     20  C   UNL     1      47.178  16.095  21.066  0.00  0.00    +0.448 C 
ATOM     21  O   UNL     1      47.259  15.462  22.092  0.00  0.00    -0.440 OA
ENDBRANCH  19  20
TORSDOF 3
ENDMDL
MODEL 9
REMARK VINA RESULT:      -5.0      2.919      6.021
REMARK  Name = ZINC33831299
REMARK  6 active torsions:
REMARK  status: ('A' for Active; 'I' for Inactive)
REMARK    1  A    between atoms: C1_1  and  C2_2
REMARK    2  A    between atoms: C6_6  and  C19_25
REMARK    3  A    between atoms: C6_6  and  C20_26
REMARK    4  A    between atoms: C10_11  and  C18_23
REMARK    5  A    between atoms: C14_16  and  C17_21
REMARK    6  A    between atoms: C16_18  and  O1_20
REMARK                            x       y       z     vdW  Elec       q    Type
REMARK                         _______ _______ _______ _____ _____    ______ ____
ROOT
ATOM      1  C   UNL     1      50.424  18.504  20.815  0.00  0.00    +0.026 C 
ATOM      2  C   UNL     1      50.023  18.252  19.366  0.00  0.00    -0.037 C 
ATOM      3  C   UNL     1      51.109  17.370  18.721  0.00  0.00    +0.019 C 
ATOM      4  C   UNL     1      52.447  18.106  18.762  0.00  0.00    +0.005 C 
ATOM      5  C   UNL     1      52.375  19.390  17.949  0.00  0.00    +0.010 C 
ATOM      6  C   UNL     1      51.220  20.295  18.377  0.00  0.00    -0.047 C 
ATOM      7  C   UNL     1      51.610  21.097  19.617  0.00  0.00    +0.023 C 
ATOM      8  C   UNL     1      51.023  21.316  17.225  0.00  0.00    +0.011 C 
ATOM      9  C   UNL     1      48.690  17.506  19.304  0.00  0.00    +0.029 C 
ATOM     10  C   UNL     1      48.770  16.208  20.114  0.00  0.00    +0.066 C 
ATOM     11  C   UNL     1      48.001  15.145  19.351  0.00  0.00    +0.065 C 
ATOM     12  C   UNL     1      46.686  15.196  19.296  0.00  0.00    -0.224 C 
ATOM     15  C   UNL     1      45.947  16.313  20.006  0.00  0.00    +0.056 C 
ATOM     16  C   UNL     1      46.166  17.618  19.262  0.00  0.00    +0.190 C 
ATOM     19  C   UNL     1      47.469  18.332  19.657  0.00  0.00    -0.103 C 
ATOM     22  C   UNL     1      47.473  19.641  18.842  0.00  0.00    +0.043 C 
ATOM     23  C   UNL     1      48.783  20.403  19.061  0.00  0.00    +0.023 C 
ATOM     24  C   UNL     1      49.925  19.532  18.542  0.00  0.00    +0.000 C 
ENDROOT
BRANCH  12  13
ATOM     13  C   UNL     1      45.941  14.181  18.551  0.00  0.00    +0.475 C 
ATOM     14  O   UNL     1      45.082  13.529  19.106  0.00  0.00    -0.458 OA
ENDBRANCH  12  13
BRANCH  16  17
ATOM     17  O   UNL     1      45.069  18.497  19.525  0.00  0.00    -0.563 OA
ATOM     18  H   UNL     1      45.187  19.050  20.309  0.00  0.00    +0.385 HD
ENDBRANCH  16  17
BRANCH  19  20
ATOM     20  C   UNL     1      47.374  18.682  21.113  0.00  0.00    +0.448 C 
ATOM     21  O   UNL     1      46.615  19.549  21.476  0.00  0.00    -0.440 OA
ENDBRANCH  19  20
TORSDOF 3
ENDMDL
