MODEL 1
REMARK VINA RESULT:      -5.9      0.000      0.000
REMARK  Name = ZINC95486321
REMARK  10 active torsions:
REMARK  status: ('A' for Active; 'I' for Inactive)
REMARK    1  A    between atoms: C1_1  and  C2_2
REMARK    2  A    between atoms: C7_8  and  C13_17
REMARK    3  A    between atoms: C8_9  and  O1_15
REMARK    4  A    between atoms: C10_11  and  C11_14
REMARK    5  A    between atoms: O1_15  and  C12_16
REMARK    6  A    between atoms: C18_22  and  O4_31
REMARK    7  A    between atoms: C20_24  and  O3_29
REMARK    8  A    between atoms: C22_26  and  O2_27
REMARK    9  A    between atoms: O2_27  and  C23_28
REMARK   10  A    between atoms: O3_29  and  C24_30
REMARK                            x       y       z     vdW  Elec       q    Type
REMARK                         _______ _______ _______ _____ _____    ______ ____
ROOT
ATOM      1  C   UNL     1      52.407  20.002  21.491  0.00  0.00    +0.094 C 
ATOM      2  C   UNL     1      50.987  20.254  20.979  0.00  0.00    +0.168 C 
ATOM      3  C   UNL     1      49.999  20.171  22.142  0.00  0.00    +0.132 C 
ATOM      4  C   UNL     1      48.586  20.192  21.616  0.00  0.00    -0.080 A 
ATOM      5  C   UNL     1      47.554  20.474  22.499  0.00  0.00    +0.030 A 
ATOM      6  C   UNL     1      46.246  20.500  22.065  0.00  0.00    +0.074 A 
ATOM      7  C   UNL     1      45.957  20.243  20.726  0.00  0.00    -0.009 A 
ATOM     24  C   UNL     1      46.998  19.961  19.837  0.00  0.00    +0.140 A 
ATOM     27  C   UNL     1      48.312  19.939  20.288  0.00  0.00    -0.149 A 
ATOM     28  C   UNL     1      49.405  19.638  19.296  0.00  0.00    +0.228 C 
ATOM     29  C   UNL     1      49.690  20.892  18.466  0.00  0.00    +0.101 C 
ATOM     30  N   UNL     1      50.632  19.230  19.984  0.00  0.00    -0.502 N 
ATOM     31  H   UNL     1      50.478  18.348  20.448  0.00  0.00    +0.427 HD
ATOM     32  H   UNL     1      51.381  19.135  19.315  0.00  0.00    +0.431 HD
ENDROOT
BRANCH   7   8
ATOM      8  C   UNL     1      44.555  20.267  20.248  0.00  0.00    -0.158 A 
ATOM      9  C   UNL     1      43.992  21.465  19.747  0.00  0.00    +0.056 A 
ATOM     10  C   UNL     1      44.742  22.649  19.693  0.00  0.00    -0.030 A 
ATOM     11  C   UNL     1      44.179  23.790  19.206  0.00  0.00    +0.070 A 
ATOM     12  C   UNL     1      42.861  23.804  18.759  0.00  0.00    -0.041 A 
ATOM     13  C   UNL     1      42.093  22.660  18.798  0.00  0.00    +0.169 A 
ATOM     16  C   UNL     1      42.652  21.467  19.296  0.00  0.00    -0.133 A 
ATOM     17  C   UNL     1      41.896  20.278  19.350  0.00  0.00    +0.216 A 
ATOM     20  C   UNL     1      42.464  19.124  19.840  0.00  0.00    -0.172 A 
ATOM     21  C   UNL     1      43.785  19.110  20.284  0.00  0.00    +0.215 A 
BRANCH  13  14
ATOM     14  O   UNL     1      40.808  22.684  18.360  0.00  0.00    -0.480 OA
ATOM     15  H   UNL     1      40.225  23.254  18.882  0.00  0.00    +0.397 HD
ENDBRANCH  13  14
BRANCH  17  18
ATOM     18  O   UNL     1      40.609  20.271  18.918  0.00  0.00    -0.287 OA
ATOM     19  C   UNL     1      40.313  19.472  17.770  0.00  0.00    +0.250 C 
ENDBRANCH  17  18
BRANCH  21  22
ATOM     22  O   UNL     1      44.324  17.958  20.758  0.00  0.00    -0.305 OA
ATOM     23  C   UNL     1      43.670  17.346  21.872  0.00  0.00    +0.247 C 
ENDBRANCH  21  22
ENDBRANCH   7   8
BRANCH  24  25
ATOM     25  O   UNL     1      46.724  19.708  18.530  0.00  0.00    -0.327 OA
ATOM     26  C   UNL     1      46.562  18.339  18.154  0.00  0.00    +0.233 C 
ENDBRANCH  24  25
TORSDOF 5
ENDMDL
MODEL 2
REMARK VINA RESULT:      -5.7      2.841      7.218
REMARK  Name = ZINC95486321
REMARK  10 active torsions:
REMARK  status: ('A' for Active; 'I' for Inactive)
REMARK    1  A    between atoms: C1_1  and  C2_2
REMARK    2  A    between atoms: C7_8  and  C13_17
REMARK    3  A    between atoms: C8_9  and  O1_15
REMARK    4  A    between atoms: C10_11  and  C11_14
REMARK    5  A    between atoms: O1_15  and  C12_16
REMARK    6  A    between atoms: C18_22  and  O4_31
REMARK    7  A    between atoms: C20_24  and  O3_29
REMARK    8  A    between atoms: C22_26  and  O2_27
REMARK    9  A    between atoms: O2_27  and  C23_28
REMARK   10  A    between atoms: O3_29  and  C24_30
REMARK                            x       y       z     vdW  Elec       q    Type
REMARK                         _______ _______ _______ _____ _____    ______ ____
ROOT
ATOM      1  C   UNL     1      40.234  19.154  21.756  0.00  0.00    +0.094 C 
ATOM      2  C   UNL     1      41.474  19.005  20.870  0.00  0.00    +0.168 C 
ATOM      3  C   UNL     1      42.512  18.137  21.582  0.00  0.00    +0.132 C 
ATOM      4  C   UNL     1      43.814  18.173  20.822  0.00  0.00    -0.080 A 
ATOM      5  C   UNL     1      44.765  17.199  21.093  0.00  0.00    +0.030 A 
ATOM      6  C   UNL     1      45.972  17.193  20.427  0.00  0.00    +0.074 A 
ATOM      7  C   UNL     1      46.240  18.172  19.471  0.00  0.00    -0.009 A 
ATOM     24  C   UNL     1      45.280  19.151  19.200  0.00  0.00    +0.140 A 
ATOM     27  C   UNL     1      44.067  19.145  19.877  0.00  0.00    -0.149 A 
ATOM     28  C   UNL     1      43.057  20.213  19.549  0.00  0.00    +0.228 C 
ATOM     29  C   UNL     1      42.350  19.851  18.240  0.00  0.00    +0.101 C 
ATOM     30  N   UNL     1      42.059  20.329  20.615  0.00  0.00    -0.502 N 
ATOM     31  H   UNL     1      42.505  20.669  21.454  0.00  0.00    +0.427 HD
ATOM     32  H   UNL     1      41.335  20.971  20.333  0.00  0.00    +0.431 HD
ENDROOT
BRANCH   7   8
ATOM      8  C   UNL     1      47.533  18.177  18.751  0.00  0.00    -0.158 A 
ATOM      9  C   UNL     1      48.609  18.967  19.222  0.00  0.00    +0.056 A 
ATOM     10  C   UNL     1      48.476  19.759  20.373  0.00  0.00    -0.030 A 
ATOM     11  C   UNL     1      49.525  20.511  20.807  0.00  0.00    +0.070 A 
ATOM     12  C   UNL     1      50.739  20.509  20.124  0.00  0.00    -0.041 A 
ATOM     13  C   UNL     1      50.907  19.745  18.990  0.00  0.00    +0.169 A 
ATOM     16  C   UNL     1      49.837  18.958  18.520  0.00  0.00    -0.133 A 
ATOM     17  C   UNL     1      49.974  18.163  17.364  0.00  0.00    +0.216 A 
ATOM     20  C   UNL     1      48.915  17.402  16.924  0.00  0.00    -0.172 A 
ATOM     21  C   UNL     1      47.701  17.400  17.611  0.00  0.00    +0.215 A 
BRANCH  13  14
ATOM     14  O   UNL     1      52.094  19.751  18.331  0.00  0.00    -0.480 OA
ATOM     15  H   UNL     1      52.142  19.117  17.602  0.00  0.00    +0.397 HD
ENDBRANCH  13  14
BRANCH  17  18
ATOM     18  O   UNL     1      51.149  18.148  16.685  0.00  0.00    -0.287 OA
ATOM     19  C   UNL     1      51.779  16.877  16.505  0.00  0.00    +0.250 C 
ENDBRANCH  17  18
BRANCH  21  22
ATOM     22  O   UNL     1      46.674  16.636  17.160  0.00  0.00    -0.305 OA
ATOM     23  C   UNL     1      46.959  15.264  16.881  0.00  0.00    +0.247 C 
ENDBRANCH  21  22
ENDBRANCH   7   8
BRANCH  24  25
ATOM     25  O   UNL     1      45.534  20.110  18.270  0.00  0.00    -0.327 OA
ATOM     26  C   UNL     1      45.839  21.418  18.756  0.00  0.00    +0.233 C 
ENDBRANCH  24  25
TORSDOF 5
ENDMDL
MODEL 3
REMARK VINA RESULT:      -5.7      3.149      5.842
REMARK  Name = ZINC95486321
REMARK  10 active torsions:
REMARK  status: ('A' for Active; 'I' for Inactive)
REMARK    1  A    between atoms: C1_1  and  C2_2
REMARK    2  A    between atoms: C7_8  and  C13_17
REMARK    3  A    between atoms: C8_9  and  O1_15
REMARK    4  A    between atoms: C10_11  and  C11_14
REMARK    5  A    between atoms: O1_15  and  C12_16
REMARK    6  A    between atoms: C18_22  and  O4_31
REMARK    7  A    between atoms: C20_24  and  O3_29
REMARK    8  A    between atoms: C22_26  and  O2_27
REMARK    9  A    between atoms: O2_27  and  C23_28
REMARK   10  A    between atoms: O3_29  and  C24_30
REMARK                            x       y       z     vdW  Elec       q    Type
REMARK                         _______ _______ _______ _____ _____    ______ ____
ROOT
ATOM      1  C   UNL     1      46.753  11.702  16.784  0.00  0.00    +0.094 C 
ATOM      2  C   UNL     1      46.432  13.053  17.428  0.00  0.00    +0.168 C 
ATOM      3  C   UNL     1      46.955  14.182  16.541  0.00  0.00    +0.132 C 
ATOM      4  C   UNL     1      46.847  15.497  17.270  0.00  0.00    -0.080 A 
ATOM      5  C   UNL     1      46.936  16.671  16.536  0.00  0.00    +0.030 A 
ATOM      6  C   UNL     1      46.847  17.897  17.160  0.00  0.00    +0.074 A 
ATOM      7  C   UNL     1      46.662  17.959  18.541  0.00  0.00    -0.009 A 
ATOM     24  C   UNL     1      46.571  16.775  19.278  0.00  0.00    +0.140 A 
ATOM     27  C   UNL     1      46.662  15.546  18.637  0.00  0.00    -0.149 A 
ATOM     28  C   UNL     1      46.550  14.294  19.466  0.00  0.00    +0.228 C 
ATOM     29  C   UNL     1      45.077  14.037  19.793  0.00  0.00    +0.101 C 
ATOM     30  N   UNL     1      47.087  13.141  18.741  0.00  0.00    -0.502 N 
ATOM     31  H   UNL     1      48.082  13.259  18.615  0.00  0.00    +0.427 HD
ATOM     32  H   UNL     1      46.910  12.298  19.266  0.00  0.00    +0.431 HD
ENDROOT
BRANCH   7   8
ATOM      8  C   UNL     1      46.567  19.270  19.222  0.00  0.00    -0.158 A 
ATOM      9  C   UNL     1      45.323  19.941  19.306  0.00  0.00    +0.056 A 
ATOM     10  C   UNL     1      44.162  19.385  18.750  0.00  0.00    -0.030 A 
ATOM     11  C   UNL     1      42.977  20.049  18.844  0.00  0.00    +0.070 A 
ATOM     12  C   UNL     1      42.895  21.282  19.486  0.00  0.00    -0.041 A 
ATOM     13  C   UNL     1      44.015  21.860  20.044  0.00  0.00    +0.169 A 
ATOM     16  C   UNL     1      45.253  21.193  19.961  0.00  0.00    -0.133 A 
ATOM     17  C   UNL     1      46.419  21.754  20.521  0.00  0.00    +0.216 A 
ATOM     20  C   UNL     1      47.617  21.084  20.427  0.00  0.00    -0.172 A 
ATOM     21  C   UNL     1      47.697  19.848  19.788  0.00  0.00    +0.215 A 
BRANCH  13  14
ATOM     14  O   UNL     1      43.925  23.063  20.668  0.00  0.00    -0.480 OA
ATOM     15  H   UNL     1      44.467  23.133  21.466  0.00  0.00    +0.397 HD
ENDBRANCH  13  14
BRANCH  17  18
ATOM     18  O   UNL     1      46.360  22.955  21.151  0.00  0.00    -0.287 OA
ATOM     19  C   UNL     1      47.252  23.156  22.250  0.00  0.00    +0.250 C 
ENDBRANCH  17  18
BRANCH  21  22
ATOM     22  O   UNL     1      48.890  19.204  19.714  0.00  0.00    -0.305 OA
ATOM     23  C   UNL     1      49.890  19.785  18.874  0.00  0.00    +0.247 C 
ENDBRANCH  21  22
ENDBRANCH   7   8
BRANCH  24  25
ATOM     25  O   UNL     1      46.392  16.827  20.625  0.00  0.00    -0.327 OA
ATOM     26  C   UNL     1      47.548  16.625  21.440  0.00  0.00    +0.233 C 
ENDBRANCH  24  25
TORSDOF 5
ENDMDL
MODEL 4
REMARK VINA RESULT:      -5.7      3.201      5.377
REMARK  Name = ZINC95486321
REMARK  10 active torsions:
REMARK  status: ('A' for Active; 'I' for Inactive)
REMARK    1  A    between atoms: C1_1  and  C2_2
REMARK    2  A    between atoms: C7_8  and  C13_17
REMARK    3  A    between atoms: C8_9  and  O1_15
REMARK    4  A    between atoms: C10_11  and  C11_14
REMARK    5  A    between atoms: O1_15  and  C12_16
REMARK    6  A    between atoms: C18_22  and  O4_31
REMARK    7  A    between atoms: C20_24  and  O3_29
REMARK    8  A    between atoms: C22_26  and  O2_27
REMARK    9  A    between atoms: O2_27  and  C23_28
REMARK   10  A    between atoms: O3_29  and  C24_30
REMARK                            x       y       z     vdW  Elec       q    Type
REMARK                         _______ _______ _______ _____ _____    ______ ____
ROOT
ATOM      1  C   UNL     1      46.478  11.644  16.945  0.00  0.00    +0.094 C 
ATOM      2  C   UNL     1      46.654  13.041  17.545  0.00  0.00    +0.168 C 
ATOM      3  C   UNL     1      45.646  13.244  18.677  0.00  0.00    +0.132 C 
ATOM      4  C   UNL     1      45.659  14.685  19.119  0.00  0.00    -0.080 A 
ATOM      5  C   UNL     1      45.088  15.008  20.342  0.00  0.00    +0.030 A 
ATOM      6  C   UNL     1      45.073  16.312  20.786  0.00  0.00    +0.074 A 
ATOM      7  C   UNL     1      45.636  17.318  20.002  0.00  0.00    -0.009 A 
ATOM     24  C   UNL     1      46.212  16.990  18.771  0.00  0.00    +0.140 A 
ATOM     27  C   UNL     1      46.222  15.671  18.335  0.00  0.00    -0.149 A 
ATOM     28  C   UNL     1      46.860  15.360  17.007  0.00  0.00    +0.228 C 
ATOM     29  C   UNL     1      48.381  15.338  17.171  0.00  0.00    +0.101 C 
ATOM     30  N   UNL     1      46.413  14.057  16.510  0.00  0.00    -0.502 N 
ATOM     31  H   UNL     1      45.427  14.098  16.300  0.00  0.00    +0.427 HD
ATOM     32  H   UNL     1      46.927  13.818  15.675  0.00  0.00    +0.431 HD
ENDROOT
BRANCH   7   8
ATOM      8  C   UNL     1      45.623  18.723  20.468  0.00  0.00    -0.158 A 
ATOM      9  C   UNL     1      44.608  19.609  20.034  0.00  0.00    +0.056 A 
ATOM     10  C   UNL     1      43.600  19.181  19.159  0.00  0.00    -0.030 A 
ATOM     11  C   UNL     1      42.633  20.052  18.755  0.00  0.00    +0.070 A 
ATOM     12  C   UNL     1      42.628  21.371  19.199  0.00  0.00    -0.041 A 
ATOM     13  C   UNL     1      43.602  21.829  20.058  0.00  0.00    +0.169 A 
ATOM     16  C   UNL     1      44.613  20.948  20.492  0.00  0.00    -0.133 A 
ATOM     17  C   UNL     1      45.626  21.381  21.372  0.00  0.00    +0.216 A 
ATOM     20  C   UNL     1      46.602  20.502  21.781  0.00  0.00    -0.172 A 
ATOM     21  C   UNL     1      46.605  19.179  21.340  0.00  0.00    +0.215 A 
BRANCH  13  14
ATOM     14  O   UNL     1      43.589  23.118  20.485  0.00  0.00    -0.480 OA
ATOM     15  H   UNL     1      43.585  23.214  21.447  0.00  0.00    +0.397 HD
ENDBRANCH  13  14
BRANCH  17  18
ATOM     18  O   UNL     1      45.637  22.664  21.815  0.00  0.00    -0.287 OA
ATOM     19  C   UNL     1      46.885  23.360  21.756  0.00  0.00    +0.250 C 
ENDBRANCH  17  18
BRANCH  21  22
ATOM     22  O   UNL     1      47.576  18.330  21.763  0.00  0.00    -0.305 OA
ATOM     23  C   UNL     1      48.867  18.892  22.007  0.00  0.00    +0.247 C 
ENDBRANCH  21  22
ENDBRANCH   7   8
BRANCH  24  25
ATOM     25  O   UNL     1      46.763  17.965  18.000  0.00  0.00    -0.327 OA
ATOM     26  C   UNL     1      48.089  18.380  18.330  0.00  0.00    +0.233 C 
ENDBRANCH  24  25
TORSDOF 5
ENDMDL
MODEL 5
REMARK VINA RESULT:      -5.7      2.569      3.983
REMARK  Name = ZINC95486321
REMARK  10 active torsions:
REMARK  status: ('A' for Active; 'I' for Inactive)
REMARK    1  A    between atoms: C1_1  and  C2_2
REMARK    2  A    between atoms: C7_8  and  C13_17
REMARK    3  A    between atoms: C8_9  and  O1_15
REMARK    4  A    between atoms: C10_11  and  C11_14
REMARK    5  A    between atoms: O1_15  and  C12_16
REMARK    6  A    between atoms: C18_22  and  O4_31
REMARK    7  A    between atoms: C20_24  and  O3_29
REMARK    8  A    between atoms: C22_26  and  O2_27
REMARK    9  A    between atoms: O2_27  and  C23_28
REMARK   10  A    between atoms: O3_29  and  C24_30
REMARK                            x       y       z     vdW  Elec       q    Type
REMARK                         _______ _______ _______ _____ _____    ______ ____
ROOT
ATOM      1  C   UNL     1      54.369  16.001  19.523  0.00  0.00    +0.094 C 
ATOM      2  C   UNL     1      52.892  16.377  19.379  0.00  0.00    +0.168 C 
ATOM      3  C   UNL     1      52.774  17.826  18.907  0.00  0.00    +0.132 C 
ATOM      4  C   UNL     1      51.336  18.272  18.980  0.00  0.00    -0.080 A 
ATOM      5  C   UNL     1      50.959  19.411  18.284  0.00  0.00    +0.030 A 
ATOM      6  C   UNL     1      49.656  19.859  18.324  0.00  0.00    +0.074 A 
ATOM      7  C   UNL     1      48.707  19.162  19.070  0.00  0.00    -0.009 A 
ATOM     24  C   UNL     1      49.089  18.014  19.770  0.00  0.00    +0.140 A 
ATOM     27  C   UNL     1      50.405  17.572  19.720  0.00  0.00    -0.149 A 
ATOM     28  C   UNL     1      50.773  16.326  20.482  0.00  0.00    +0.228 C 
ATOM     29  C   UNL     1      50.310  15.099  19.693  0.00  0.00    +0.101 C 
ATOM     30  N   UNL     1      52.222  16.248  20.681  0.00  0.00    -0.502 N 
ATOM     31  H   UNL     1      52.516  16.998  21.289  0.00  0.00    +0.427 HD
ATOM     32  H   UNL     1      52.459  15.361  21.098  0.00  0.00    +0.431 HD
ENDROOT
BRANCH   7   8
ATOM      8  C   UNL     1      47.306  19.636  19.123  0.00  0.00    -0.158 A 
ATOM      9  C   UNL     1      46.933  20.662  20.024  0.00  0.00    +0.056 A 
ATOM     10  C   UNL     1      47.875  21.249  20.881  0.00  0.00    -0.030 A 
ATOM     11  C   UNL     1      47.492  22.235  21.739  0.00  0.00    +0.070 A 
ATOM     12  C   UNL     1      46.172  22.676  21.782  0.00  0.00    -0.041 A 
ATOM     13  C   UNL     1      45.219  22.122  20.956  0.00  0.00    +0.169 A 
ATOM     16  C   UNL     1      45.588  21.100  20.058  0.00  0.00    -0.133 A 
ATOM     17  C   UNL     1      44.640  20.512  19.197  0.00  0.00    +0.216 A 
ATOM     20  C   UNL     1      45.025  19.516  18.329  0.00  0.00    -0.172 A 
ATOM     21  C   UNL     1      46.348  19.079  18.283  0.00  0.00    +0.215 A 
BRANCH  13  14
ATOM     14  O   UNL     1      43.934  22.558  21.006  0.00  0.00    -0.480 OA
ATOM     15  H   UNL     1      43.326  21.942  21.440  0.00  0.00    +0.397 HD
ENDBRANCH  13  14
BRANCH  17  18
ATOM     18  O   UNL     1      43.348  20.928  19.224  0.00  0.00    -0.287 OA
ATOM     19  C   UNL     1      42.341  19.914  19.297  0.00  0.00    +0.250 C 
ENDBRANCH  17  18
BRANCH  21  22
ATOM     22  O   UNL     1      46.703  18.099  17.414  0.00  0.00    -0.305 OA
ATOM     23  C   UNL     1      46.179  16.792  17.660  0.00  0.00    +0.247 C 
ENDBRANCH  21  22
ENDBRANCH   7   8
BRANCH  24  25
ATOM     25  O   UNL     1      48.170  17.328  20.501  0.00  0.00    -0.327 OA
ATOM     26  C   UNL     1      48.068  17.658  21.887  0.00  0.00    +0.233 C 
ENDBRANCH  24  25
TORSDOF 5
ENDMDL
MODEL 6
REMARK VINA RESULT:      -5.4      4.648      8.156
REMARK  Name = ZINC95486321
REMARK  10 active torsions:
REMARK  status: ('A' for Active; 'I' for Inactive)
REMARK    1  A    between atoms: C1_1  and  C2_2
REMARK    2  A    between atoms: C7_8  and  C13_17
REMARK    3  A    between atoms: C8_9  and  O1_15
REMARK    4  A    between atoms: C10_11  and  C11_14
REMARK    5  A    between atoms: O1_15  and  C12_16
REMARK    6  A    between atoms: C18_22  and  O4_31
REMARK    7  A    between atoms: C20_24  and  O3_29
REMARK    8  A    between atoms: C22_26  and  O2_27
REMARK    9  A    between atoms: O2_27  and  C23_28
REMARK   10  A    between atoms: O3_29  and  C24_30
REMARK                            x       y       z     vdW  Elec       q    Type
REMARK                         _______ _______ _______ _____ _____    ______ ____
ROOT
ATOM      1  C   UNL     1      46.449  10.816  16.467  0.00  0.00    +0.094 C 
ATOM      2  C   UNL     1      47.007  12.021  17.226  0.00  0.00    +0.168 C 
ATOM      3  C   UNL     1      46.605  13.311  16.510  0.00  0.00    +0.132 C 
ATOM      4  C   UNL     1      47.335  14.481  17.117  0.00  0.00    -0.080 A 
ATOM      5  C   UNL     1      46.866  15.762  16.858  0.00  0.00    +0.030 A 
ATOM      6  C   UNL     1      47.502  16.863  17.388  0.00  0.00    +0.074 A 
ATOM      7  C   UNL     1      48.627  16.691  18.194  0.00  0.00    -0.009 A 
ATOM     24  C   UNL     1      49.097  15.400  18.455  0.00  0.00    +0.140 A 
ATOM     27  C   UNL     1      48.445  14.299  17.915  0.00  0.00    -0.149 A 
ATOM     28  C   UNL     1      48.979  12.926  18.228  0.00  0.00    +0.228 C 
ATOM     29  C   UNL     1      48.537  12.522  19.636  0.00  0.00    +0.101 C 
ATOM     30  N   UNL     1      48.475  11.942  17.268  0.00  0.00    -0.502 N 
ATOM     31  H   UNL     1      48.850  12.144  16.353  0.00  0.00    +0.427 HD
ATOM     32  H   UNL     1      48.756  11.015  17.552  0.00  0.00    +0.431 HD
ENDROOT
BRANCH   7   8
ATOM      8  C   UNL     1      49.321  17.867  18.767  0.00  0.00    -0.158 A 
ATOM      9  C   UNL     1      50.312  18.545  18.018  0.00  0.00    +0.056 A 
ATOM     10  C   UNL     1      50.659  18.122  16.726  0.00  0.00    -0.030 A 
ATOM     11  C   UNL     1      51.616  18.791  16.025  0.00  0.00    +0.070 A 
ATOM     12  C   UNL     1      52.263  19.897  16.571  0.00  0.00    -0.041 A 
ATOM     13  C   UNL     1      51.950  20.341  17.837  0.00  0.00    +0.169 A 
ATOM     16  C   UNL     1      50.963  19.667  18.583  0.00  0.00    -0.133 A 
ATOM     17  C   UNL     1      50.616  20.094  19.881  0.00  0.00    +0.216 A 
ATOM     20  C   UNL     1      49.649  19.420  20.591  0.00  0.00    -0.172 A 
ATOM     21  C   UNL     1      48.998  18.316  20.042  0.00  0.00    +0.215 A 
BRANCH  13  14
ATOM     14  O   UNL     1      52.587  21.419  18.360  0.00  0.00    -0.480 OA
ATOM     15  H   UNL     1      51.998  22.052  18.795  0.00  0.00    +0.397 HD
ENDBRANCH  13  14
BRANCH  17  18
ATOM     18  O   UNL     1      51.236  21.170  20.431  0.00  0.00    -0.287 OA
ATOM     19  C   UNL     1      51.675  21.044  21.785  0.00  0.00    +0.250 C 
ENDBRANCH  17  18
BRANCH  21  22
ATOM     22  O   UNL     1      48.043  17.671  20.761  0.00  0.00    -0.305 OA
ATOM     23  C   UNL     1      46.840  18.391  21.034  0.00  0.00    +0.247 C 
ENDBRANCH  21  22
ENDBRANCH   7   8
BRANCH  24  25
ATOM     25  O   UNL     1      50.194  15.224  19.239  0.00  0.00    -0.327 OA
ATOM     26  C   UNL     1      51.441  15.024  18.572  0.00  0.00    +0.233 C 
ENDBRANCH  24  25
TORSDOF 5
ENDMDL
MODEL 7
REMARK VINA RESULT:      -5.4      3.089      7.593
REMARK  Name = ZINC95486321
REMARK  10 active torsions:
REMARK  status: ('A' for Active; 'I' for Inactive)
REMARK    1  A    between atoms: C1_1  and  C2_2
REMARK    2  A    between atoms: C7_8  and  C13_17
REMARK    3  A    between atoms: C8_9  and  O1_15
REMARK    4  A    between atoms: C10_11  and  C11_14
REMARK    5  A    between atoms: O1_15  and  C12_16
REMARK    6  A    between atoms: C18_22  and  O4_31
REMARK    7  A    between atoms: C20_24  and  O3_29
REMARK    8  A    between atoms: C22_26  and  O2_27
REMARK    9  A    between atoms: O2_27  and  C23_28
REMARK   10  A    between atoms: O3_29  and  C24_30
REMARK                            x       y       z     vdW  Elec       q    Type
REMARK                         _______ _______ _______ _____ _____    ______ ____
ROOT
ATOM      1  C   UNL     1      42.046  22.193  19.143  0.00  0.00    +0.094 C 
ATOM      2  C   UNL     1      43.235  21.304  19.517  0.00  0.00    +0.168 C 
ATOM      3  C   UNL     1      44.471  22.171  19.752  0.00  0.00    +0.132 C 
ATOM      4  C   UNL     1      45.690  21.295  19.896  0.00  0.00    -0.080 A 
ATOM      5  C   UNL     1      46.837  21.843  20.452  0.00  0.00    +0.030 A 
ATOM      6  C   UNL     1      47.977  21.082  20.601  0.00  0.00    +0.074 A 
ATOM      7  C   UNL     1      47.978  19.750  20.191  0.00  0.00    -0.009 A 
ATOM     24  C   UNL     1      46.820  19.199  19.633  0.00  0.00    +0.140 A 
ATOM     27  C   UNL     1      45.678  19.977  19.490  0.00  0.00    -0.149 A 
ATOM     28  C   UNL     1      44.450  19.344  18.891  0.00  0.00    +0.228 C 
ATOM     29  C   UNL     1      43.757  18.486  19.952  0.00  0.00    +0.101 C 
ATOM     30  N   UNL     1      43.515  20.368  18.418  0.00  0.00    -0.502 N 
ATOM     31  H   UNL     1      43.930  20.868  17.646  0.00  0.00    +0.427 HD
ATOM     32  H   UNL     1      42.657  19.931  18.118  0.00  0.00    +0.431 HD
ENDROOT
BRANCH   7   8
ATOM      8  C   UNL     1      49.197  18.923  20.344  0.00  0.00    -0.158 A 
ATOM      9  C   UNL     1      50.225  18.982  19.373  0.00  0.00    +0.056 A 
ATOM     10  C   UNL     1      50.113  19.817  18.251  0.00  0.00    -0.030 A 
ATOM     11  C   UNL     1      51.116  19.857  17.330  0.00  0.00    +0.070 A 
ATOM     12  C   UNL     1      52.259  19.077  17.481  0.00  0.00    -0.041 A 
ATOM     13  C   UNL     1      52.404  18.244  18.569  0.00  0.00    +0.169 A 
ATOM     16  C   UNL     1      51.382  18.185  19.537  0.00  0.00    -0.133 A 
ATOM     17  C   UNL     1      51.496  17.345  20.664  0.00  0.00    +0.216 A 
ATOM     20  C   UNL     1      50.485  17.304  21.596  0.00  0.00    -0.172 A 
ATOM     21  C   UNL     1      49.342  18.089  21.446  0.00  0.00    +0.215 A 
BRANCH  13  14
ATOM     14  O   UNL     1      53.523  17.487  18.707  0.00  0.00    -0.480 OA
ATOM     15  H   UNL     1      53.421  16.742  19.317  0.00  0.00    +0.397 HD
ENDBRANCH  13  14
BRANCH  17  18
ATOM     18  O   UNL     1      52.603  16.577  20.829  0.00  0.00    -0.287 OA
ATOM     19  C   UNL     1      53.274  16.667  22.089  0.00  0.00    +0.250 C 
ENDBRANCH  17  18
BRANCH  21  22
ATOM     22  O   UNL     1      48.360  18.035  22.383  0.00  0.00    -0.305 OA
ATOM     23  C   UNL     1      47.648  16.802  22.505  0.00  0.00    +0.247 C 
ENDBRANCH  21  22
ENDBRANCH   7   8
BRANCH  24  25
ATOM     25  O   UNL     1      46.813  17.901  19.230  0.00  0.00    -0.327 OA
ATOM     26  C   UNL     1      47.077  17.650  17.849  0.00  0.00    +0.233 C 
ENDBRANCH  24  25
TORSDOF 5
ENDMDL
MODEL 8
REMARK VINA RESULT:      -5.3      1.857      2.134
REMARK  Name = ZINC95486321
REMARK  10 active torsions:
REMARK  status: ('A' for Active; 'I' for Inactive)
REMARK    1  A    between atoms: C1_1  and  C2_2
REMARK    2  A    between atoms: C7_8  and  C13_17
REMARK    3  A    between atoms: C8_9  and  O1_15
REMARK    4  A    between atoms: C10_11  and  C11_14
REMARK    5  A    between atoms: O1_15  and  C12_16
REMARK    6  A    between atoms: C18_22  and  O4_31
REMARK    7  A    between atoms: C20_24  and  O3_29
REMARK    8  A    between atoms: C22_26  and  O2_27
REMARK    9  A    between atoms: O2_27  and  C23_28
REMARK   10  A    between atoms: O3_29  and  C24_30
REMARK                            x       y       z     vdW  Elec       q    Type
REMARK                         _______ _______ _______ _____ _____    ______ ____
ROOT
ATOM      1  C   UNL     1      53.098  16.617  19.999  0.00  0.00    +0.094 C 
ATOM      2  C   UNL     1      51.777  17.368  19.816  0.00  0.00    +0.168 C 
ATOM      3  C   UNL     1      50.906  17.187  21.059  0.00  0.00    +0.132 C 
ATOM      4  C   UNL     1      49.524  17.729  20.798  0.00  0.00    -0.080 A 
ATOM      5  C   UNL     1      48.695  17.979  21.882  0.00  0.00    +0.030 A 
ATOM      6  C   UNL     1      47.422  18.471  21.692  0.00  0.00    +0.074 A 
ATOM      7  C   UNL     1      46.962  18.722  20.400  0.00  0.00    -0.009 A 
ATOM     24  C   UNL     1      47.799  18.470  19.309  0.00  0.00    +0.140 A 
ATOM     27  C   UNL     1      49.081  17.975  19.514  0.00  0.00    -0.149 A 
ATOM     28  C   UNL     1      49.954  17.726  18.313  0.00  0.00    +0.228 C 
ATOM     29  C   UNL     1      50.526  19.057  17.821  0.00  0.00    +0.101 C 
ATOM     30  N   UNL     1      51.059  16.827  18.652  0.00  0.00    -0.502 N 
ATOM     31  H   UNL     1      50.691  15.914  18.877  0.00  0.00    +0.427 HD
ATOM     32  H   UNL     1      51.690  16.754  17.869  0.00  0.00    +0.431 HD
ENDROOT
BRANCH   7   8
ATOM      8  C   UNL     1      45.595  19.248  20.184  0.00  0.00    -0.158 A 
ATOM      9  C   UNL     1      45.361  20.644  20.176  0.00  0.00    +0.056 A 
ATOM     10  C   UNL     1      46.411  21.554  20.370  0.00  0.00    -0.030 A 
ATOM     11  C   UNL     1      46.162  22.894  20.358  0.00  0.00    +0.070 A 
ATOM     12  C   UNL     1      44.873  23.381  20.154  0.00  0.00    -0.041 A 
ATOM     13  C   UNL     1      43.817  22.517  19.959  0.00  0.00    +0.169 A 
ATOM     16  C   UNL     1      44.048  21.127  19.968  0.00  0.00    -0.133 A 
ATOM     17  C   UNL     1      42.992  20.215  19.771  0.00  0.00    +0.216 A 
ATOM     20  C   UNL     1      43.242  18.861  19.783  0.00  0.00    -0.172 A 
ATOM     21  C   UNL     1      44.533  18.374  19.983  0.00  0.00    +0.215 A 
BRANCH  13  14
ATOM     14  O   UNL     1      42.564  23.002  19.762  0.00  0.00    -0.480 OA
ATOM     15  H   UNL     1      42.540  23.935  19.504  0.00  0.00    +0.397 HD
ENDBRANCH  13  14
BRANCH  17  18
ATOM     18  O   UNL     1      41.729  20.670  19.571  0.00  0.00    -0.287 OA
ATOM     19  C   UNL     1      41.051  20.210  18.399  0.00  0.00    +0.250 C 
ENDBRANCH  17  18
BRANCH  21  22
ATOM     22  O   UNL     1      44.754  17.035  19.985  0.00  0.00    -0.305 OA
ATOM     23  C   UNL     1      44.390  16.319  21.167  0.00  0.00    +0.247 C 
ENDBRANCH  21  22
ENDBRANCH   7   8
BRANCH  24  25
ATOM     25  O   UNL     1      47.358  18.711  18.046  0.00  0.00    -0.327 OA
ATOM     26  C   UNL     1      46.881  17.589  17.302  0.00  0.00    +0.233 C 
ENDBRANCH  24  25
TORSDOF 5
ENDMDL
MODEL 9
REMARK VINA RESULT:      -5.2      1.973      3.774
REMARK  Name = ZINC95486321
REMARK  10 active torsions:
REMARK  status: ('A' for Active; 'I' for Inactive)
REMARK    1  A    between atoms: C1_1  and  C2_2
REMARK    2  A    between atoms: C7_8  and  C13_17
REMARK    3  A    between atoms: C8_9  and  O1_15
REMARK    4  A    between atoms: C10_11  and  C11_14
REMARK    5  A    between atoms: O1_15  and  C12_16
REMARK    6  A    between atoms: C18_22  and  O4_31
REMARK    7  A    between atoms: C20_24  and  O3_29
REMARK    8  A    between atoms: C22_26  and  O2_27
REMARK    9  A    between atoms: O2_27  and  C23_28
REMARK   10  A    between atoms: O3_29  and  C24_30
REMARK                            x       y       z     vdW  Elec       q    Type
REMARK                         _______ _______ _______ _____ _____    ______ ____
ROOT
ATOM      1  C   UNL     1      53.037  17.086  19.146  0.00  0.00    +0.094 C 
ATOM      2  C   UNL     1      51.584  17.536  18.975  0.00  0.00    +0.168 C 
ATOM      3  C   UNL     1      51.094  18.189  20.267  0.00  0.00    +0.132 C 
ATOM      4  C   UNL     1      49.607  18.429  20.186  0.00  0.00    -0.080 A 
ATOM      5  C   UNL     1      49.028  19.311  21.087  0.00  0.00    +0.030 A 
ATOM      6  C   UNL     1      47.673  19.559  21.054  0.00  0.00    +0.074 A 
ATOM      7  C   UNL     1      46.876  18.919  20.106  0.00  0.00    -0.009 A 
ATOM     24  C   UNL     1      47.461  18.031  19.198  0.00  0.00    +0.140 A 
ATOM     27  C   UNL     1      48.829  17.792  19.242  0.00  0.00    -0.149 A 
ATOM     28  C   UNL     1      49.421  16.835  18.241  0.00  0.00    +0.228 C 
ATOM     29  C   UNL     1      49.568  17.544  16.893  0.00  0.00    +0.101 C 
ATOM     30  N   UNL     1      50.737  16.370  18.683  0.00  0.00    -0.502 N 
ATOM     31  H   UNL     1      50.632  15.812  19.517  0.00  0.00    +0.427 HD
ATOM     32  H   UNL     1      51.163  15.816  17.956  0.00  0.00    +0.431 HD
ENDROOT
BRANCH   7   8
ATOM      8  C   UNL     1      45.418  19.176  20.062  0.00  0.00    -0.158 A 
ATOM      9  C   UNL     1      44.534  18.406  20.856  0.00  0.00    +0.056 A 
ATOM     10  C   UNL     1      45.014  17.390  21.695  0.00  0.00    -0.030 A 
ATOM     11  C   UNL     1      44.144  16.663  22.450  0.00  0.00    +0.070 A 
ATOM     12  C   UNL     1      42.775  16.911  22.404  0.00  0.00    -0.041 A 
ATOM     13  C   UNL     1      42.267  17.900  21.591  0.00  0.00    +0.169 A 
ATOM     16  C   UNL     1      43.145  18.667  20.800  0.00  0.00    -0.133 A 
ATOM     17  C   UNL     1      42.660  19.689  19.958  0.00  0.00    +0.216 A 
ATOM     20  C   UNL     1      43.538  20.425  19.196  0.00  0.00    -0.172 A 
ATOM     21  C   UNL     1      44.909  20.179  19.246  0.00  0.00    +0.215 A 
BRANCH  13  14
ATOM     14  O   UNL     1      40.929  18.134  21.553  0.00  0.00    -0.480 OA
ATOM     15  H   UNL     1      40.419  17.602  22.179  0.00  0.00    +0.397 HD
ENDBRANCH  13  14
BRANCH  17  18
ATOM     18  O   UNL     1      41.328  19.945  19.899  0.00  0.00    -0.287 OA
ATOM     19  C   UNL     1      40.867  20.730  18.797  0.00  0.00    +0.250 C 
ENDBRANCH  17  18
BRANCH  21  22
ATOM     22  O   UNL     1      45.755  20.923  18.488  0.00  0.00    -0.305 OA
ATOM     23  C   UNL     1      45.845  22.316  18.794  0.00  0.00    +0.247 C 
ENDBRANCH  21  22
ENDBRANCH   7   8
BRANCH  24  25
ATOM     25  O   UNL     1      46.690  17.403  18.271  0.00  0.00    -0.327 OA
ATOM     26  C   UNL     1      46.289  16.064  18.563  0.00  0.00    +0.233 C 
ENDBRANCH  24  25
TORSDOF 5
ENDMDL
