MODEL 1
REMARK VINA RESULT:      -4.6      0.000      0.000
REMARK  Name = ZINC95485946
REMARK  43 active torsions:
REMARK  status: ('A' for Active; 'I' for Inactive)
REMARK    1  A    between atoms: C1_1  and  O1_2
REMARK    2  A    between atoms: O1_2  and  C2_3
REMARK    3  A    between atoms: C4_5  and  C8_10
REMARK    4  A    between atoms: C7_8  and  O2_9
REMARK    5  A    between atoms: C8_10  and  C9_11
REMARK    6  A    between atoms: C9_11  and  O3_12
REMARK    7  A    between atoms: O3_12  and  C10_13
REMARK    8  A    between atoms: C10_13  and  C11_14
REMARK    9  A    between atoms: C11_14  and  C12_15
REMARK   10  A    between atoms: C12_15  and  C13_16
REMARK   11  A    between atoms: C13_16  and  C14_17
REMARK   12  A    between atoms: C14_17  and  C15_18
REMARK   13  A    between atoms: C15_18  and  C16_19
REMARK   14  A    between atoms: C16_19  and  C17_20
REMARK   15  A    between atoms: C17_20  and  C18_21
REMARK   16  A    between atoms: C18_21  and  C19_22
REMARK   17  A    between atoms: C19_22  and  C20_23
REMARK   18  A    between atoms: C20_23  and  C21_24
REMARK   19  A    between atoms: C21_24  and  C22_25
REMARK   20  A    between atoms: C22_25  and  C23_26
REMARK   21  A    between atoms: C23_26  and  C24_27
REMARK   22  A    between atoms: C24_27  and  C25_28
REMARK   23  A    between atoms: C25_28  and  C26_29
REMARK   24  A    between atoms: C26_29  and  C27_30
REMARK   25  A    between atoms: C27_30  and  C28_31
REMARK   26  A    between atoms: C28_31  and  C29_32
REMARK   27  A    between atoms: C29_32  and  C30_33
REMARK   28  A    between atoms: C30_33  and  C31_34
REMARK   29  A    between atoms: C31_34  and  C32_35
REMARK   30  A    between atoms: C32_35  and  C33_36
REMARK   31  A    between atoms: C33_36  and  C34_37
REMARK   32  A    between atoms: C34_37  and  C35_38
REMARK   33  A    between atoms: C35_38  and  C36_39
REMARK   34  A    between atoms: C36_39  and  C37_40
REMARK   35  A    between atoms: C37_40  and  C38_41
REMARK   36  A    between atoms: C38_41  and  C39_42
REMARK   37  A    between atoms: C39_42  and  O4_43
REMARK   38  A    between atoms: O4_43  and  C40_44
REMARK   39  A    between atoms: C40_44  and  C41_46
REMARK   40  A    between atoms: C42_47  and  C43_48
REMARK   41  A    between atoms: C46_51  and  O7_56
REMARK   42  A    between atoms: C47_52  and  O6_54
REMARK   43  A    between atoms: O6_54  and  C49_55
REMARK                            x       y       z     vdW  Elec       q    Type
REMARK                         _______ _______ _______ _____ _____    ______ ____
ROOT
ATOM     24  C   UNL     1      51.849  20.779  16.554  0.00  0.00    +0.000 C 
ENDROOT
BRANCH  24  23
ATOM     23  C   UNL     1      52.276  20.571  18.008  0.00  0.00    +0.000 C 
BRANCH  23  22
ATOM     22  C   UNL     1      51.224  21.175  18.940  0.00  0.00    +0.000 C 
BRANCH  22  21
ATOM     21  C   UNL     1      50.465  20.051  19.649  0.00  0.00    +0.000 C 
BRANCH  21  20
ATOM     20  C   UNL     1      49.047  19.956  19.081  0.00  0.00    +0.000 C 
BRANCH  20  19
ATOM     19  C   UNL     1      48.553  18.512  19.184  0.00  0.00    +0.000 C 
BRANCH  19  18
ATOM     18  C   UNL     1      47.352  18.316  18.256  0.00  0.00    +0.000 C 
BRANCH  18  17
ATOM     17  C   UNL     1      47.739  17.374  17.114  0.00  0.00    +0.000 C 
BRANCH  17  16
ATOM     16  C   UNL     1      46.595  16.393  16.854  0.00  0.00    +0.000 C 
BRANCH  16  15
ATOM     15  C   UNL     1      47.164  14.986  16.652  0.00  0.00    +0.000 C 
BRANCH  15  14
ATOM     14  C   UNL     1      48.587  14.927  17.210  0.00  0.00    +0.001 C 
BRANCH  14  13
ATOM     13  C   UNL     1      48.558  14.330  18.618  0.00  0.00    +0.001 C 
BRANCH  13  12
ATOM     12  C   UNL     1      47.418  13.315  18.719  0.00  0.00    +0.006 C 
BRANCH  12  11
ATOM     11  C   UNL     1      46.703  13.482  20.061  0.00  0.00    +0.009 C 
BRANCH  11  10
ATOM     10  C   UNL     1      45.395  14.249  19.849  0.00  0.00    +0.023 C 
BRANCH  10   9
ATOM      9  C   UNL     1      45.548  15.675  20.381  0.00  0.00    +0.159 C 
BRANCH   9   8
ATOM      8  O   UNL     1      44.504  15.949  21.318  0.00  0.00    -0.390 OA
BRANCH   8   7
ATOM      7  C   UNL     1      43.971  17.271  21.225  0.00  0.00    +0.170 C 
BRANCH   7   6
ATOM      6  C   UNL     1      44.350  17.880  19.874  0.00  0.00    +0.088 C 
BRANCH   6   5
ATOM      3  C   UNL     1      42.650  21.207  19.312  0.00  0.00    +0.105 A 
ATOM      4  C   UNL     1      42.915  19.847  19.297  0.00  0.00    -0.057 A 
ATOM      5  C   UNL     1      44.063  19.360  19.892  0.00  0.00    -0.052 A 
ATOM     54  C   UNL     1      44.950  20.227  20.503  0.00  0.00    -0.004 A 
ATOM     55  C   UNL     1      44.691  21.585  20.522  0.00  0.00    +0.034 A 
ATOM     56  C   UNL     1      43.545  22.080  19.922  0.00  0.00    +0.072 A 
BRANCH   3   2
ATOM      1  C   UNL     1      40.472  20.750  18.471  0.00  0.00    +0.239 C 
ATOM      2  O   UNL     1      41.520  21.687  18.727  0.00  0.00    -0.307 OA
ENDBRANCH   3   2
BRANCH  56  57
ATOM     57  O   UNL     1      43.292  23.416  19.935  0.00  0.00    -0.486 OA
ATOM     58  H   UNL     1      43.872  23.932  19.359  0.00  0.00    +0.387 HD
ENDBRANCH  56  57
ENDBRANCH   6   5
ENDBRANCH   7   6
ENDBRANCH   8   7
ENDBRANCH   9   8
ENDBRANCH  10   9
ENDBRANCH  11  10
ENDBRANCH  12  11
ENDBRANCH  13  12
ENDBRANCH  14  13
ENDBRANCH  15  14
ENDBRANCH  16  15
ENDBRANCH  17  16
ENDBRANCH  18  17
ENDBRANCH  19  18
ENDBRANCH  20  19
ENDBRANCH  21  20
ENDBRANCH  22  21
ENDBRANCH  23  22
ENDBRANCH  24  23
BRANCH  24  25
ATOM     25  C   UNL     1      52.062  19.484  15.769  0.00  0.00    +0.000 C 
BRANCH  25  26
ATOM     26  C   UNL     1      50.969  18.479  16.137  0.00  0.00    +0.000 C 
BRANCH  26  27
ATOM     27  C   UNL     1      51.610  17.138  16.498  0.00  0.00    +0.000 C 
BRANCH  27  28
ATOM     28  C   UNL     1      51.600  16.961  18.018  0.00  0.00    +0.000 C 
BRANCH  28  29
ATOM     29  C   UNL     1      52.096  15.557  18.371  0.00  0.00    +0.000 C 
BRANCH  29  30
ATOM     30  C   UNL     1      51.893  15.305  19.867  0.00  0.00    +0.000 C 
BRANCH  30  31
ATOM     31  C   UNL     1      51.586  16.629  20.569  0.00  0.00    +0.000 C 
BRANCH  31  32
ATOM     32  C   UNL     1      52.762  17.012  21.472  0.00  0.00    +0.000 C 
BRANCH  32  33
ATOM     33  C   UNL     1      53.736  15.835  21.567  0.00  0.00    +0.001 C 
BRANCH  33  34
ATOM     34  C   UNL     1      55.147  16.362  21.834  0.00  0.00    +0.002 C 
BRANCH  34  35
ATOM     35  C   UNL     1      56.134  15.677  20.889  0.00  0.00    +0.008 C 
BRANCH  35  36
ATOM     36  C   UNL     1      55.389  14.664  20.017  0.00  0.00    +0.014 C 
BRANCH  36  37
ATOM     37  C   UNL     1      56.242  13.406  19.852  0.00  0.00    +0.030 C 
BRANCH  37  38
ATOM     38  C   UNL     1      55.408  12.174  20.209  0.00  0.00    +0.202 C 
BRANCH  38  39
ATOM     39  O   UNL     1      54.942  11.551  19.010  0.00  0.00    -0.350 OA
BRANCH  39  40
ATOM     40  C   UNL     1      53.630  11.241  18.951  0.00  0.00    +0.501 C 
ATOM     53  O   UNL     1      53.068  10.784  19.928  0.00  0.00    -0.514 OA
BRANCH  40  41
ATOM     41  C   UNL     1      52.906  11.448  17.749  0.00  0.00    -0.060 C 
ATOM     42  C   UNL     1      51.652  11.947  17.794  0.00  0.00    +0.150 C 
BRANCH  42  43
ATOM     43  C   UNL     1      50.901  12.161  16.550  0.00  0.00    -0.057 A 
ATOM     44  C   UNL     1      51.367  13.075  15.597  0.00  0.00    +0.026 A 
ATOM     45  C   UNL     1      50.661  13.274  14.431  0.00  0.00    +0.033 A 
ATOM     46  C   UNL     1      49.487  12.571  14.197  0.00  0.00    +0.095 A 
ATOM     49  C   UNL     1      49.015  11.659  15.141  0.00  0.00    +0.100 A 
ATOM     52  C   UNL     1      49.720  11.449  16.311  0.00  0.00    -0.026 A 
BRANCH  46  47
ATOM     47  O   UNL     1      48.795  12.773  13.047  0.00  0.00    -0.485 OA
ATOM     48  H   UNL     1      47.898  12.411  13.059  0.00  0.00    +0.392 HD
ENDBRANCH  46  47
BRANCH  49  50
ATOM     50  O   UNL     1      47.865  10.974  14.908  0.00  0.00    -0.306 OA
ATOM     51  C   UNL     1      46.724  11.334  15.690  0.00  0.00    +0.242 C 
ENDBRANCH  49  50
ENDBRANCH  42  43
ENDBRANCH  40  41
ENDBRANCH  39  40
ENDBRANCH  38  39
ENDBRANCH  37  38
ENDBRANCH  36  37
ENDBRANCH  35  36
ENDBRANCH  34  35
ENDBRANCH  33  34
ENDBRANCH  32  33
ENDBRANCH  31  32
ENDBRANCH  30  31
ENDBRANCH  29  30
ENDBRANCH  28  29
ENDBRANCH  27  28
ENDBRANCH  26  27
ENDBRANCH  25  26
ENDBRANCH  24  25
TORSDOF 41
ENDMDL
MODEL 2
REMARK VINA RESULT:      -4.4      1.935      6.513
REMARK  Name = ZINC95485946
REMARK  43 active torsions:
REMARK  status: ('A' for Active; 'I' for Inactive)
REMARK    1  A    between atoms: C1_1  and  O1_2
REMARK    2  A    between atoms: O1_2  and  C2_3
REMARK    3  A    between atoms: C4_5  and  C8_10
REMARK    4  A    between atoms: C7_8  and  O2_9
REMARK    5  A    between atoms: C8_10  and  C9_11
REMARK    6  A    between atoms: C9_11  and  O3_12
REMARK    7  A    between atoms: O3_12  and  C10_13
REMARK    8  A    between atoms: C10_13  and  C11_14
REMARK    9  A    between atoms: C11_14  and  C12_15
REMARK   10  A    between atoms: C12_15  and  C13_16
REMARK   11  A    between atoms: C13_16  and  C14_17
REMARK   12  A    between atoms: C14_17  and  C15_18
REMARK   13  A    between atoms: C15_18  and  C16_19
REMARK   14  A    between atoms: C16_19  and  C17_20
REMARK   15  A    between atoms: C17_20  and  C18_21
REMARK   16  A    between atoms: C18_21  and  C19_22
REMARK   17  A    between atoms: C19_22  and  C20_23
REMARK   18  A    between atoms: C20_23  and  C21_24
REMARK   19  A    between atoms: C21_24  and  C22_25
REMARK   20  A    between atoms: C22_25  and  C23_26
REMARK   21  A    between atoms: C23_26  and  C24_27
REMARK   22  A    between atoms: C24_27  and  C25_28
REMARK   23  A    between atoms: C25_28  and  C26_29
REMARK   24  A    between atoms: C26_29  and  C27_30
REMARK   25  A    between atoms: C27_30  and  C28_31
REMARK   26  A    between atoms: C28_31  and  C29_32
REMARK   27  A    between atoms: C29_32  and  C30_33
REMARK   28  A    between atoms: C30_33  and  C31_34
REMARK   29  A    between atoms: C31_34  and  C32_35
REMARK   30  A    between atoms: C32_35  and  C33_36
REMARK   31  A    between atoms: C33_36  and  C34_37
REMARK   32  A    between atoms: C34_37  and  C35_38
REMARK   33  A    between atoms: C35_38  and  C36_39
REMARK   34  A    between atoms: C36_39  and  C37_40
REMARK   35  A    between atoms: C37_40  and  C38_41
REMARK   36  A    between atoms: C38_41  and  C39_42
REMARK   37  A    between atoms: C39_42  and  O4_43
REMARK   38  A    between atoms: O4_43  and  C40_44
REMARK   39  A    between atoms: C40_44  and  C41_46
REMARK   40  A    between atoms: C42_47  and  C43_48
REMARK   41  A    between atoms: C46_51  and  O7_56
REMARK   42  A    between atoms: C47_52  and  O6_54
REMARK   43  A    between atoms: O6_54  and  C49_55
REMARK                            x       y       z     vdW  Elec       q    Type
REMARK                         _______ _______ _______ _____ _____    ______ ____
ROOT
ATOM     24  C   UNL     1      51.886  12.239  15.187  0.00  0.00    +0.000 C 
ENDROOT
BRANCH  24  23
ATOM     23  C   UNL     1      51.405  12.439  16.627  0.00  0.00    +0.000 C 
BRANCH  23  22
ATOM     22  C   UNL     1      51.263  13.936  16.913  0.00  0.00    +0.000 C 
BRANCH  22  21
ATOM     21  C   UNL     1      49.794  14.344  16.778  0.00  0.00    +0.000 C 
BRANCH  21  20
ATOM     20  C   UNL     1      49.414  15.271  17.935  0.00  0.00    +0.000 C 
BRANCH  20  19
ATOM     19  C   UNL     1      49.563  16.727  17.490  0.00  0.00    +0.000 C 
BRANCH  19  18
ATOM     18  C   UNL     1      50.741  17.368  18.228  0.00  0.00    +0.000 C 
BRANCH  18  17
ATOM     17  C   UNL     1      51.878  17.633  17.240  0.00  0.00    +0.000 C 
BRANCH  17  16
ATOM     16  C   UNL     1      51.369  18.521  16.103  0.00  0.00    +0.000 C 
BRANCH  16  15
ATOM     15  C   UNL     1      52.277  19.746  15.967  0.00  0.00    +0.000 C 
BRANCH  15  14
ATOM     14  C   UNL     1      51.524  20.993  16.432  0.00  0.00    +0.001 C 
BRANCH  14  13
ATOM     13  C   UNL     1      51.591  21.089  17.958  0.00  0.00    +0.001 C 
BRANCH  13  12
ATOM     12  C   UNL     1      50.172  21.084  18.531  0.00  0.00    +0.006 C 
BRANCH  12  11
ATOM     11  C   UNL     1      50.181  20.423  19.911  0.00  0.00    +0.009 C 
BRANCH  11  10
ATOM     10  C   UNL     1      48.762  20.415  20.483  0.00  0.00    +0.023 C 
BRANCH  10   9
ATOM      9  C   UNL     1      48.435  19.020  21.017  0.00  0.00    +0.159 C 
BRANCH   9   8
ATOM      8  O   UNL     1      47.788  18.258  19.995  0.00  0.00    -0.390 OA
BRANCH   8   7
ATOM      7  C   UNL     1      47.117  19.051  19.014  0.00  0.00    +0.170 C 
BRANCH   7   6
ATOM      6  C   UNL     1      45.624  18.724  19.027  0.00  0.00    +0.088 C 
BRANCH   6   5
ATOM      3  C   UNL     1      42.748  21.174  19.079  0.00  0.00    +0.105 A 
ATOM      4  C   UNL     1      43.477  20.006  18.922  0.00  0.00    -0.057 A 
ATOM      5  C   UNL     1      44.832  19.995  19.198  0.00  0.00    -0.052 A 
ATOM     54  C   UNL     1      45.462  21.147  19.632  0.00  0.00    -0.004 A 
ATOM     55  C   UNL     1      44.739  22.315  19.791  0.00  0.00    +0.034 A 
ATOM     56  C   UNL     1      43.383  22.335  19.509  0.00  0.00    +0.072 A 
BRANCH   3   2
ATOM      1  C   UNL     1      40.849  19.985  18.281  0.00  0.00    +0.239 C 
ATOM      2  O   UNL     1      41.416  21.187  18.808  0.00  0.00    -0.307 OA
ENDBRANCH   3   2
BRANCH  56  57
ATOM     57  O   UNL     1      42.673  23.485  19.660  0.00  0.00    -0.486 OA
ATOM     58  H   UNL     1      42.384  23.652  20.567  0.00  0.00    +0.387 HD
ENDBRANCH  56  57
ENDBRANCH   6   5
ENDBRANCH   7   6
ENDBRANCH   8   7
ENDBRANCH   9   8
ENDBRANCH  10   9
ENDBRANCH  11  10
ENDBRANCH  12  11
ENDBRANCH  13  12
ENDBRANCH  14  13
ENDBRANCH  15  14
ENDBRANCH  16  15
ENDBRANCH  17  16
ENDBRANCH  18  17
ENDBRANCH  19  18
ENDBRANCH  20  19
ENDBRANCH  21  20
ENDBRANCH  22  21
ENDBRANCH  23  22
ENDBRANCH  24  23
BRANCH  24  25
ATOM     25  C   UNL     1      50.817  11.486  14.394  0.00  0.00    +0.000 C 
BRANCH  25  26
ATOM     26  C   UNL     1      49.930  12.487  13.654  0.00  0.00    +0.000 C 
BRANCH  26  27
ATOM     27  C   UNL     1      48.497  12.386  14.179  0.00  0.00    +0.000 C 
BRANCH  27  28
ATOM     28  C   UNL     1      48.330  11.077  14.955  0.00  0.00    +0.000 C 
BRANCH  28  29
ATOM     29  C   UNL     1      47.668  11.365  16.304  0.00  0.00    +0.000 C 
BRANCH  29  30
ATOM     30  C   UNL     1      46.154  11.182  16.179  0.00  0.00    +0.000 C 
BRANCH  30  31
ATOM     31  C   UNL     1      45.441  12.240  17.024  0.00  0.00    +0.000 C 
BRANCH  31  32
ATOM     32  C   UNL     1      46.310  13.497  17.106  0.00  0.00    +0.000 C 
BRANCH  32  33
ATOM     33  C   UNL     1      45.914  14.310  18.341  0.00  0.00    +0.001 C 
BRANCH  33  34
ATOM     34  C   UNL     1      45.312  13.378  19.394  0.00  0.00    +0.002 C 
BRANCH  34  35
ATOM     35  C   UNL     1      45.857  13.749  20.774  0.00  0.00    +0.008 C 
BRANCH  35  36
ATOM     36  C   UNL     1      46.855  14.901  20.636  0.00  0.00    +0.014 C 
BRANCH  36  37
ATOM     37  C   UNL     1      48.017  14.688  21.608  0.00  0.00    +0.030 C 
BRANCH  37  38
ATOM     38  C   UNL     1      48.021  13.235  22.088  0.00  0.00    +0.202 C 
BRANCH  38  39
ATOM     39  O   UNL     1      49.338  12.695  21.961  0.00  0.00    -0.350 OA
BRANCH  39  40
ATOM     40  C   UNL     1      49.819  12.539  20.711  0.00  0.00    +0.501 C 
ATOM     53  O   UNL     1      49.081  12.172  19.817  0.00  0.00    -0.514 OA
BRANCH  40  41
ATOM     41  C   UNL     1      51.186  12.802  20.438  0.00  0.00    -0.060 C 
ATOM     42  C   UNL     1      51.632  14.076  20.398  0.00  0.00    +0.150 C 
BRANCH  42  43
ATOM     43  C   UNL     1      53.048  14.349  20.115  0.00  0.00    -0.057 A 
ATOM     44  C   UNL     1      53.520  15.667  20.105  0.00  0.00    +0.026 A 
ATOM     45  C   UNL     1      54.848  15.921  19.838  0.00  0.00    +0.033 A 
ATOM     46  C   UNL     1      55.721  14.872  19.581  0.00  0.00    +0.095 A 
ATOM     49  C   UNL     1      55.259  13.556  19.589  0.00  0.00    +0.100 A 
ATOM     52  C   UNL     1      53.930  13.293  19.861  0.00  0.00    -0.026 A 
BRANCH  46  47
ATOM     47  O   UNL     1      57.028  15.129  19.319  0.00  0.00    -0.485 OA
ATOM     48  H   UNL     1      57.481  14.418  18.845  0.00  0.00    +0.392 HD
ENDBRANCH  46  47
BRANCH  49  50
ATOM     50  O   UNL     1      56.117  12.533  19.336  0.00  0.00    -0.306 OA
ATOM     51  C   UNL     1      56.577  11.779  20.459  0.00  0.00    +0.242 C 
ENDBRANCH  49  50
ENDBRANCH  42  43
ENDBRANCH  40  41
ENDBRANCH  39  40
ENDBRANCH  38  39
ENDBRANCH  37  38
ENDBRANCH  36  37
ENDBRANCH  35  36
ENDBRANCH  34  35
ENDBRANCH  33  34
ENDBRANCH  32  33
ENDBRANCH  31  32
ENDBRANCH  30  31
ENDBRANCH  29  30
ENDBRANCH  28  29
ENDBRANCH  27  28
ENDBRANCH  26  27
ENDBRANCH  25  26
ENDBRANCH  24  25
TORSDOF 41
ENDMDL
MODEL 3
REMARK VINA RESULT:      -4.3      2.471      9.195
REMARK  Name = ZINC95485946
REMARK  43 active torsions:
REMARK  status: ('A' for Active; 'I' for Inactive)
REMARK    1  A    between atoms: C1_1  and  O1_2
REMARK    2  A    between atoms: O1_2  and  C2_3
REMARK    3  A    between atoms: C4_5  and  C8_10
REMARK    4  A    between atoms: C7_8  and  O2_9
REMARK    5  A    between atoms: C8_10  and  C9_11
REMARK    6  A    between atoms: C9_11  and  O3_12
REMARK    7  A    between atoms: O3_12  and  C10_13
REMARK    8  A    between atoms: C10_13  and  C11_14
REMARK    9  A    between atoms: C11_14  and  C12_15
REMARK   10  A    between atoms: C12_15  and  C13_16
REMARK   11  A    between atoms: C13_16  and  C14_17
REMARK   12  A    between atoms: C14_17  and  C15_18
REMARK   13  A    between atoms: C15_18  and  C16_19
REMARK   14  A    between atoms: C16_19  and  C17_20
REMARK   15  A    between atoms: C17_20  and  C18_21
REMARK   16  A    between atoms: C18_21  and  C19_22
REMARK   17  A    between atoms: C19_22  and  C20_23
REMARK   18  A    between atoms: C20_23  and  C21_24
REMARK   19  A    between atoms: C21_24  and  C22_25
REMARK   20  A    between atoms: C22_25  and  C23_26
REMARK   21  A    between atoms: C23_26  and  C24_27
REMARK   22  A    between atoms: C24_27  and  C25_28
REMARK   23  A    between atoms: C25_28  and  C26_29
REMARK   24  A    between atoms: C26_29  and  C27_30
REMARK   25  A    between atoms: C27_30  and  C28_31
REMARK   26  A    between atoms: C28_31  and  C29_32
REMARK   27  A    between atoms: C29_32  and  C30_33
REMARK   28  A    between atoms: C30_33  and  C31_34
REMARK   29  A    between atoms: C31_34  and  C32_35
REMARK   30  A    between atoms: C32_35  and  C33_36
REMARK   31  A    between atoms: C33_36  and  C34_37
REMARK   32  A    between atoms: C34_37  and  C35_38
REMARK   33  A    between atoms: C35_38  and  C36_39
REMARK   34  A    between atoms: C36_39  and  C37_40
REMARK   35  A    between atoms: C37_40  and  C38_41
REMARK   36  A    between atoms: C38_41  and  C39_42
REMARK   37  A    between atoms: C39_42  and  O4_43
REMARK   38  A    between atoms: O4_43  and  C40_44
REMARK   39  A    between atoms: C40_44  and  C41_46
REMARK   40  A    between atoms: C42_47  and  C43_48
REMARK   41  A    between atoms: C46_51  and  O7_56
REMARK   42  A    between atoms: C47_52  and  O6_54
REMARK   43  A    between atoms: O6_54  and  C49_55
REMARK                            x       y       z     vdW  Elec       q    Type
REMARK                         _______ _______ _______ _____ _____    ______ ____
ROOT
ATOM     24  C   UNL     1      50.821  12.070  13.663  0.00  0.00    +0.000 C 
ENDROOT
BRANCH  24  23
ATOM     23  C   UNL     1      49.717  12.884  12.984  0.00  0.00    +0.000 C 
BRANCH  23  22
ATOM     22  C   UNL     1      48.461  12.868  13.857  0.00  0.00    +0.000 C 
BRANCH  22  21
ATOM     21  C   UNL     1      48.425  11.575  14.676  0.00  0.00    +0.000 C 
BRANCH  21  20
ATOM     20  C   UNL     1      47.005  11.340  15.196  0.00  0.00    +0.000 C 
BRANCH  20  19
ATOM     19  C   UNL     1      47.068  10.579  16.521  0.00  0.00    +0.000 C 
BRANCH  19  18
ATOM     18  C   UNL     1      46.759  11.537  17.674  0.00  0.00    +0.000 C 
BRANCH  18  17
ATOM     17  C   UNL     1      45.603  12.457  17.276  0.00  0.00    +0.000 C 
BRANCH  17  16
ATOM     16  C   UNL     1      44.826  12.869  18.527  0.00  0.00    +0.000 C 
BRANCH  16  15
ATOM     15  C   UNL     1      45.809  13.243  19.639  0.00  0.00    +0.000 C 
BRANCH  15  14
ATOM     14  C   UNL     1      45.412  14.592  20.240  0.00  0.00    +0.001 C 
BRANCH  14  13
ATOM     13  C   UNL     1      46.628  15.227  20.917  0.00  0.00    +0.001 C 
BRANCH  13  12
ATOM     12  C   UNL     1      46.576  16.746  20.739  0.00  0.00    +0.006 C 
BRANCH  12  11
ATOM     11  C   UNL     1      47.547  17.408  21.718  0.00  0.00    +0.009 C 
BRANCH  11  10
ATOM     10  C   UNL     1      48.962  17.372  21.136  0.00  0.00    +0.023 C 
BRANCH  10   9
ATOM      9  C   UNL     1      49.933  16.834  22.188  0.00  0.00    +0.159 C 
BRANCH   9   8
ATOM      8  O   UNL     1      51.156  17.571  22.129  0.00  0.00    -0.390 OA
BRANCH   8   7
ATOM      7  C   UNL     1      52.329  16.764  22.256  0.00  0.00    +0.170 C 
BRANCH   7   6
ATOM      6  C   UNL     1      52.165  15.492  21.423  0.00  0.00    +0.088 C 
BRANCH   6   5
ATOM      3  C   UNL     1      54.881  13.503  19.708  0.00  0.00    +0.105 A 
ATOM      4  C   UNL     1      53.659  13.858  20.257  0.00  0.00    -0.057 A 
ATOM      5  C   UNL     1      53.494  15.107  20.827  0.00  0.00    -0.052 A 
ATOM     54  C   UNL     1      54.546  16.004  20.850  0.00  0.00    -0.004 A 
ATOM     55  C   UNL     1      55.768  15.655  20.304  0.00  0.00    +0.034 A 
ATOM     56  C   UNL     1      55.941  14.403  19.737  0.00  0.00    +0.072 A 
BRANCH   3   2
ATOM      1  C   UNL     1      53.859  11.540  18.837  0.00  0.00    +0.239 C 
ATOM      2  O   UNL     1      55.045  12.274  19.148  0.00  0.00    -0.307 OA
ENDBRANCH   3   2
BRANCH  56  57
ATOM     57  O   UNL     1      57.144  14.058  19.205  0.00  0.00    -0.486 OA
ATOM     58  H   UNL     1      57.827  14.734  19.305  0.00  0.00    +0.387 HD
ENDBRANCH  56  57
ENDBRANCH   6   5
ENDBRANCH   7   6
ENDBRANCH   8   7
ENDBRANCH   9   8
ENDBRANCH  10   9
ENDBRANCH  11  10
ENDBRANCH  12  11
ENDBRANCH  13  12
ENDBRANCH  14  13
ENDBRANCH  15  14
ENDBRANCH  16  15
ENDBRANCH  17  16
ENDBRANCH  18  17
ENDBRANCH  19  18
ENDBRANCH  20  19
ENDBRANCH  21  20
ENDBRANCH  22  21
ENDBRANCH  23  22
ENDBRANCH  24  23
BRANCH  24  25
ATOM     25  C   UNL     1      51.801  13.019  14.355  0.00  0.00    +0.000 C 
BRANCH  25  26
ATOM     26  C   UNL     1      51.762  12.781  15.865  0.00  0.00    +0.000 C 
BRANCH  26  27
ATOM     27  C   UNL     1      50.935  13.880  16.534  0.00  0.00    +0.000 C 
BRANCH  27  28
ATOM     28  C   UNL     1      50.308  13.335  17.820  0.00  0.00    +0.000 C 
BRANCH  28  29
ATOM     29  C   UNL     1      49.104  14.197  18.205  0.00  0.00    +0.000 C 
BRANCH  29  30
ATOM     30  C   UNL     1      48.496  14.816  16.944  0.00  0.00    +0.000 C 
BRANCH  30  31
ATOM     31  C   UNL     1      47.363  15.766  17.339  0.00  0.00    +0.000 C 
BRANCH  31  32
ATOM     32  C   UNL     1      47.723  17.192  16.917  0.00  0.00    +0.000 C 
BRANCH  32  33
ATOM     33  C   UNL     1      49.079  17.574  17.515  0.00  0.00    +0.001 C 
BRANCH  33  34
ATOM     34  C   UNL     1      50.085  17.811  16.388  0.00  0.00    +0.002 C 
BRANCH  34  35
ATOM     35  C   UNL     1      51.492  17.464  16.878  0.00  0.00    +0.008 C 
BRANCH  35  36
ATOM     36  C   UNL     1      51.505  17.431  18.408  0.00  0.00    +0.014 C 
BRANCH  36  37
ATOM     37  C   UNL     1      52.510  18.459  18.931  0.00  0.00    +0.030 C 
BRANCH  37  38
ATOM     38  C   UNL     1      52.621  19.616  17.936  0.00  0.00    +0.202 C 
BRANCH  38  39
ATOM     39  O   UNL     1      51.456  20.439  18.031  0.00  0.00    -0.350 OA
BRANCH  39  40
ATOM     40  C   UNL     1      51.268  21.104  19.189  0.00  0.00    +0.501 C 
ATOM     53  O   UNL     1      52.180  21.741  19.680  0.00  0.00    -0.514 OA
BRANCH  40  41
ATOM     41  C   UNL     1      50.006  21.060  19.836  0.00  0.00    -0.060 C 
ATOM     42  C   UNL     1      48.909  20.680  19.147  0.00  0.00    +0.150 C 
BRANCH  42  43
ATOM     43  C   UNL     1      47.601  20.634  19.816  0.00  0.00    -0.057 A 
ATOM     44  C   UNL     1      47.437  21.220  21.077  0.00  0.00    +0.026 A 
ATOM     45  C   UNL     1      46.210  21.175  21.703  0.00  0.00    +0.033 A 
ATOM     46  C   UNL     1      45.135  20.550  21.086  0.00  0.00    +0.095 A 
ATOM     49  C   UNL     1      45.290  19.963  19.830  0.00  0.00    +0.100 A 
ATOM     52  C   UNL     1      46.515  20.009  19.193  0.00  0.00    -0.026 A 
BRANCH  46  47
ATOM     47  O   UNL     1      43.929  20.508  21.708  0.00  0.00    -0.485 OA
ATOM     48  H   UNL     1      43.187  20.325  21.115  0.00  0.00    +0.392 HD
ENDBRANCH  46  47
BRANCH  49  50
ATOM     50  O   UNL     1      44.234  19.352  19.231  0.00  0.00    -0.306 OA
ATOM     51  C   UNL     1      43.246  20.197  18.639  0.00  0.00    +0.242 C 
ENDBRANCH  49  50
ENDBRANCH  42  43
ENDBRANCH  40  41
ENDBRANCH  39  40
ENDBRANCH  38  39
ENDBRANCH  37  38
ENDBRANCH  36  37
ENDBRANCH  35  36
ENDBRANCH  34  35
ENDBRANCH  33  34
ENDBRANCH  32  33
ENDBRANCH  31  32
ENDBRANCH  30  31
ENDBRANCH  29  30
ENDBRANCH  28  29
ENDBRANCH  27  28
ENDBRANCH  26  27
ENDBRANCH  25  26
ENDBRANCH  24  25
TORSDOF 41
ENDMDL
MODEL 4
REMARK VINA RESULT:      -4.3      2.944      7.584
REMARK  Name = ZINC95485946
REMARK  43 active torsions:
REMARK  status: ('A' for Active; 'I' for Inactive)
REMARK    1  A    between atoms: C1_1  and  O1_2
REMARK    2  A    between atoms: O1_2  and  C2_3
REMARK    3  A    between atoms: C4_5  and  C8_10
REMARK    4  A    between atoms: C7_8  and  O2_9
REMARK    5  A    between atoms: C8_10  and  C9_11
REMARK    6  A    between atoms: C9_11  and  O3_12
REMARK    7  A    between atoms: O3_12  and  C10_13
REMARK    8  A    between atoms: C10_13  and  C11_14
REMARK    9  A    between atoms: C11_14  and  C12_15
REMARK   10  A    between atoms: C12_15  and  C13_16
REMARK   11  A    between atoms: C13_16  and  C14_17
REMARK   12  A    between atoms: C14_17  and  C15_18
REMARK   13  A    between atoms: C15_18  and  C16_19
REMARK   14  A    between atoms: C16_19  and  C17_20
REMARK   15  A    between atoms: C17_20  and  C18_21
REMARK   16  A    between atoms: C18_21  and  C19_22
REMARK   17  A    between atoms: C19_22  and  C20_23
REMARK   18  A    between atoms: C20_23  and  C21_24
REMARK   19  A    between atoms: C21_24  and  C22_25
REMARK   20  A    between atoms: C22_25  and  C23_26
REMARK   21  A    between atoms: C23_26  and  C24_27
REMARK   22  A    between atoms: C24_27  and  C25_28
REMARK   23  A    between atoms: C25_28  and  C26_29
REMARK   24  A    between atoms: C26_29  and  C27_30
REMARK   25  A    between atoms: C27_30  and  C28_31
REMARK   26  A    between atoms: C28_31  and  C29_32
REMARK   27  A    between atoms: C29_32  and  C30_33
REMARK   28  A    between atoms: C30_33  and  C31_34
REMARK   29  A    between atoms: C31_34  and  C32_35
REMARK   30  A    between atoms: C32_35  and  C33_36
REMARK   31  A    between atoms: C33_36  and  C34_37
REMARK   32  A    between atoms: C34_37  and  C35_38
REMARK   33  A    between atoms: C35_38  and  C36_39
REMARK   34  A    between atoms: C36_39  and  C37_40
REMARK   35  A    between atoms: C37_40  and  C38_41
REMARK   36  A    between atoms: C38_41  and  C39_42
REMARK   37  A    between atoms: C39_42  and  O4_43
REMARK   38  A    between atoms: O4_43  and  C40_44
REMARK   39  A    between atoms: C40_44  and  C41_46
REMARK   40  A    between atoms: C42_47  and  C43_48
REMARK   41  A    between atoms: C46_51  and  O7_56
REMARK   42  A    between atoms: C47_52  and  O6_54
REMARK   43  A    between atoms: O6_54  and  C49_55
REMARK                            x       y       z     vdW  Elec       q    Type
REMARK                         _______ _______ _______ _____ _____    ______ ____
ROOT
ATOM     24  C   UNL     1      51.809  12.768  15.324  0.00  0.00    +0.000 C 
ENDROOT
BRANCH  24  23
ATOM     23  C   UNL     1      51.197  12.988  16.709  0.00  0.00    +0.000 C 
BRANCH  23  22
ATOM     22  C   UNL     1      51.134  14.488  17.006  0.00  0.00    +0.000 C 
BRANCH  22  21
ATOM     21  C   UNL     1      49.694  14.882  17.340  0.00  0.00    +0.000 C 
BRANCH  21  20
ATOM     20  C   UNL     1      49.659  15.579  18.702  0.00  0.00    +0.000 C 
BRANCH  20  19
ATOM     19  C   UNL     1      48.670  16.746  18.652  0.00  0.00    +0.000 C 
BRANCH  19  18
ATOM     18  C   UNL     1      48.444  17.160  17.196  0.00  0.00    +0.000 C 
BRANCH  18  17
ATOM     17  C   UNL     1      46.952  17.398  16.960  0.00  0.00    +0.000 C 
BRANCH  17  16
ATOM     16  C   UNL     1      46.299  17.873  18.259  0.00  0.00    +0.000 C 
BRANCH  16  15
ATOM     15  C   UNL     1      45.493  19.146  17.989  0.00  0.00    +0.000 C 
BRANCH  15  14
ATOM     14  C   UNL     1      45.500  20.029  19.238  0.00  0.00    +0.001 C 
BRANCH  14  13
ATOM     13  C   UNL     1      46.661  21.022  19.153  0.00  0.00    +0.001 C 
BRANCH  13  12
ATOM     12  C   UNL     1      47.442  21.007  20.469  0.00  0.00    +0.006 C 
BRANCH  12  11
ATOM     11  C   UNL     1      48.493  19.896  20.426  0.00  0.00    +0.009 C 
BRANCH  11  10
ATOM     10  C   UNL     1      48.911  19.533  21.853  0.00  0.00    +0.023 C 
BRANCH  10   9
ATOM      9  C   UNL     1      49.507  18.125  21.867  0.00  0.00    +0.159 C 
BRANCH   9   8
ATOM      8  O   UNL     1      50.809  18.164  22.457  0.00  0.00    -0.390 OA
BRANCH   8   7
ATOM      7  C   UNL     1      51.792  18.821  21.654  0.00  0.00    +0.170 C 
BRANCH   7   6
ATOM      6  C   UNL     1      51.993  18.041  20.354  0.00  0.00    +0.088 C 
BRANCH   6   5
ATOM      3  C   UNL     1      51.937  19.369  16.817  0.00  0.00    +0.105 A 
ATOM      4  C   UNL     1      51.990  18.497  17.894  0.00  0.00    -0.057 A 
ATOM      5  C   UNL     1      51.936  18.990  19.185  0.00  0.00    -0.052 A 
ATOM     54  C   UNL     1      51.829  20.351  19.405  0.00  0.00    -0.004 A 
ATOM     55  C   UNL     1      51.776  21.224  18.335  0.00  0.00    +0.034 A 
ATOM     56  C   UNL     1      51.836  20.738  17.040  0.00  0.00    +0.072 A 
BRANCH   3   2
ATOM      1  C   UNL     1      52.261  17.491  15.394  0.00  0.00    +0.239 C 
ATOM      2  O   UNL     1      51.990  18.886  15.547  0.00  0.00    -0.307 OA
ENDBRANCH   3   2
BRANCH  56  57
ATOM     57  O   UNL     1      51.789  21.598  15.987  0.00  0.00    -0.486 OA
ATOM     58  H   UNL     1      50.894  21.801  15.685  0.00  0.00    +0.387 HD
ENDBRANCH  56  57
ENDBRANCH   6   5
ENDBRANCH   7   6
ENDBRANCH   8   7
ENDBRANCH   9   8
ENDBRANCH  10   9
ENDBRANCH  11  10
ENDBRANCH  12  11
ENDBRANCH  13  12
ENDBRANCH  14  13
ENDBRANCH  15  14
ENDBRANCH  16  15
ENDBRANCH  17  16
ENDBRANCH  18  17
ENDBRANCH  19  18
ENDBRANCH  20  19
ENDBRANCH  21  20
ENDBRANCH  22  21
ENDBRANCH  23  22
ENDBRANCH  24  23
BRANCH  24  25
ATOM     25  C   UNL     1      50.873  11.896  14.485  0.00  0.00    +0.000 C 
BRANCH  25  26
ATOM     26  C   UNL     1      49.880  12.787  13.737  0.00  0.00    +0.000 C 
BRANCH  26  27
ATOM     27  C   UNL     1      48.466  12.521  14.254  0.00  0.00    +0.000 C 
BRANCH  27  28
ATOM     28  C   UNL     1      48.437  11.183  14.996  0.00  0.00    +0.000 C 
BRANCH  28  29
ATOM     29  C   UNL     1      47.760  11.369  16.355  0.00  0.00    +0.000 C 
BRANCH  29  30
ATOM     30  C   UNL     1      46.256  11.124  16.214  0.00  0.00    +0.000 C 
BRANCH  30  31
ATOM     31  C   UNL     1      45.490  12.173  17.024  0.00  0.00    +0.000 C 
BRANCH  31  32
ATOM     32  C   UNL     1      46.331  13.447  17.133  0.00  0.00    +0.000 C 
BRANCH  32  33
ATOM     33  C   UNL     1      45.944  14.206  18.403  0.00  0.00    +0.001 C 
BRANCH  33  34
ATOM     34  C   UNL     1      45.167  13.276  19.336  0.00  0.00    +0.002 C 
BRANCH  34  35
ATOM     35  C   UNL     1      45.379  13.715  20.786  0.00  0.00    +0.008 C 
BRANCH  35  36
ATOM     36  C   UNL     1      46.100  15.064  20.811  0.00  0.00    +0.014 C 
BRANCH  36  37
ATOM     37  C   UNL     1      47.324  14.972  21.724  0.00  0.00    +0.030 C 
BRANCH  37  38
ATOM     38  C   UNL     1      47.614  13.503  22.041  0.00  0.00    +0.202 C 
BRANCH  38  39
ATOM     39  O   UNL     1      49.007  13.242  21.855  0.00  0.00    -0.350 OA
BRANCH  39  40
ATOM     40  C   UNL     1      49.360  12.567  20.742  0.00  0.00    +0.501 C 
ATOM     53  O   UNL     1      48.508  12.040  20.054  0.00  0.00    -0.514 OA
BRANCH  40  41
ATOM     41  C   UNL     1      50.727  12.471  20.375  0.00  0.00    -0.060 C 
ATOM     42  C   UNL     1      51.575  13.483  20.659  0.00  0.00    +0.150 C 
BRANCH  42  43
ATOM     43  C   UNL     1      52.990  13.385  20.279  0.00  0.00    -0.057 A 
ATOM     44  C   UNL     1      53.535  12.147  19.918  0.00  0.00    +0.026 A 
ATOM     45  C   UNL     1      54.864  12.057  19.562  0.00  0.00    +0.033 A 
ATOM     46  C   UNL     1      55.664  13.191  19.560  0.00  0.00    +0.095 A 
ATOM     49  C   UNL     1      55.129  14.429  19.919  0.00  0.00    +0.100 A 
ATOM     52  C   UNL     1      53.797  14.528  20.271  0.00  0.00    -0.026 A 
BRANCH  46  47
ATOM     47  O   UNL     1      56.972  13.096  19.209  0.00  0.00    -0.485 OA
ATOM     48  H   UNL     1      57.186  13.523  18.368  0.00  0.00    +0.392 HD
ENDBRANCH  46  47
BRANCH  49  50
ATOM     50  O   UNL     1      55.916  15.536  19.915  0.00  0.00    -0.306 OA
ATOM     51  C   UNL     1      56.460  15.950  21.170  0.00  0.00    +0.242 C 
ENDBRANCH  49  50
ENDBRANCH  42  43
ENDBRANCH  40  41
ENDBRANCH  39  40
ENDBRANCH  38  39
ENDBRANCH  37  38
ENDBRANCH  36  37
ENDBRANCH  35  36
ENDBRANCH  34  35
ENDBRANCH  33  34
ENDBRANCH  32  33
ENDBRANCH  31  32
ENDBRANCH  30  31
ENDBRANCH  29  30
ENDBRANCH  28  29
ENDBRANCH  27  28
ENDBRANCH  26  27
ENDBRANCH  25  26
ENDBRANCH  24  25
TORSDOF 41
ENDMDL
MODEL 5
REMARK VINA RESULT:      -4.3      1.426      2.185
REMARK  Name = ZINC95485946
REMARK  43 active torsions:
REMARK  status: ('A' for Active; 'I' for Inactive)
REMARK    1  A    between atoms: C1_1  and  O1_2
REMARK    2  A    between atoms: O1_2  and  C2_3
REMARK    3  A    between atoms: C4_5  and  C8_10
REMARK    4  A    between atoms: C7_8  and  O2_9
REMARK    5  A    between atoms: C8_10  and  C9_11
REMARK    6  A    between atoms: C9_11  and  O3_12
REMARK    7  A    between atoms: O3_12  and  C10_13
REMARK    8  A    between atoms: C10_13  and  C11_14
REMARK    9  A    between atoms: C11_14  and  C12_15
REMARK   10  A    between atoms: C12_15  and  C13_16
REMARK   11  A    between atoms: C13_16  and  C14_17
REMARK   12  A    between atoms: C14_17  and  C15_18
REMARK   13  A    between atoms: C15_18  and  C16_19
REMARK   14  A    between atoms: C16_19  and  C17_20
REMARK   15  A    between atoms: C17_20  and  C18_21
REMARK   16  A    between atoms: C18_21  and  C19_22
REMARK   17  A    between atoms: C19_22  and  C20_23
REMARK   18  A    between atoms: C20_23  and  C21_24
REMARK   19  A    between atoms: C21_24  and  C22_25
REMARK   20  A    between atoms: C22_25  and  C23_26
REMARK   21  A    between atoms: C23_26  and  C24_27
REMARK   22  A    between atoms: C24_27  and  C25_28
REMARK   23  A    between atoms: C25_28  and  C26_29
REMARK   24  A    between atoms: C26_29  and  C27_30
REMARK   25  A    between atoms: C27_30  and  C28_31
REMARK   26  A    between atoms: C28_31  and  C29_32
REMARK   27  A    between atoms: C29_32  and  C30_33
REMARK   28  A    between atoms: C30_33  and  C31_34
REMARK   29  A    between atoms: C31_34  and  C32_35
REMARK   30  A    between atoms: C32_35  and  C33_36
REMARK   31  A    between atoms: C33_36  and  C34_37
REMARK   32  A    between atoms: C34_37  and  C35_38
REMARK   33  A    between atoms: C35_38  and  C36_39
REMARK   34  A    between atoms: C36_39  and  C37_40
REMARK   35  A    between atoms: C37_40  and  C38_41
REMARK   36  A    between atoms: C38_41  and  C39_42
REMARK   37  A    between atoms: C39_42  and  O4_43
REMARK   38  A    between atoms: O4_43  and  C40_44
REMARK   39  A    between atoms: C40_44  and  C41_46
REMARK   40  A    between atoms: C42_47  and  C43_48
REMARK   41  A    between atoms: C46_51  and  O7_56
REMARK   42  A    between atoms: C47_52  and  O6_54
REMARK   43  A    between atoms: O6_54  and  C49_55
REMARK                            x       y       z     vdW  Elec       q    Type
REMARK                         _______ _______ _______ _____ _____    ______ ____
ROOT
ATOM     24  C   UNL     1      51.792  20.690  17.147  0.00  0.00    +0.000 C 
ENDROOT
BRANCH  24  23
ATOM     23  C   UNL     1      52.531  20.692  18.487  0.00  0.00    +0.000 C 
BRANCH  23  22
ATOM     22  C   UNL     1      51.780  21.580  19.482  0.00  0.00    +0.000 C 
BRANCH  22  21
ATOM     21  C   UNL     1      51.129  20.706  20.556  0.00  0.00    +0.000 C 
BRANCH  21  20
ATOM     20  C   UNL     1      49.630  20.586  20.276  0.00  0.00    +0.000 C 
BRANCH  20  19
ATOM     19  C   UNL     1      49.263  19.113  20.086  0.00  0.00    +0.000 C 
BRANCH  19  18
ATOM     18  C   UNL     1      48.693  18.906  18.681  0.00  0.00    +0.000 C 
BRANCH  18  17
ATOM     17  C   UNL     1      48.349  17.429  18.482  0.00  0.00    +0.000 C 
BRANCH  17  16
ATOM     16  C   UNL     1      47.487  17.271  17.229  0.00  0.00    +0.000 C 
BRANCH  16  15
ATOM     15  C   UNL     1      47.406  15.791  16.848  0.00  0.00    +0.000 C 
BRANCH  15  14
ATOM     14  C   UNL     1      48.444  15.001  17.648  0.00  0.00    +0.001 C 
BRANCH  14  13
ATOM     13  C   UNL     1      48.029  13.529  17.707  0.00  0.00    +0.001 C 
BRANCH  13  12
ATOM     12  C   UNL     1      46.529  13.411  17.430  0.00  0.00    +0.006 C 
BRANCH  12  11
ATOM     11  C   UNL     1      45.813  12.930  18.694  0.00  0.00    +0.009 C 
BRANCH  11  10
ATOM     10  C   UNL     1      45.195  14.129  19.416  0.00  0.00    +0.023 C 
BRANCH  10   9
ATOM      9  C   UNL     1      45.293  13.919  20.928  0.00  0.00    +0.159 C 
BRANCH   9   8
ATOM      8  O   UNL     1      44.928  15.126  21.602  0.00  0.00    -0.390 OA
BRANCH   8   7
ATOM      7  C   UNL     1      44.934  16.284  20.765  0.00  0.00    +0.170 C 
BRANCH   7   6
ATOM      6  C   UNL     1      45.801  17.370  21.402  0.00  0.00    +0.088 C 
BRANCH   6   5
ATOM      3  C   UNL     1      45.858  21.050  20.545  0.00  0.00    +0.105 A 
ATOM      4  C   UNL     1      46.038  19.855  21.225  0.00  0.00    -0.057 A 
ATOM      5  C   UNL     1      45.606  18.668  20.662  0.00  0.00    -0.052 A 
ATOM     54  C   UNL     1      44.994  18.670  19.422  0.00  0.00    -0.004 A 
ATOM     55  C   UNL     1      44.813  19.858  18.739  0.00  0.00    +0.034 A 
ATOM     56  C   UNL     1      45.238  21.051  19.300  0.00  0.00    +0.072 A 
BRANCH   3   2
ATOM      1  C   UNL     1      46.531  22.217  22.505  0.00  0.00    +0.239 C 
ATOM      2  O   UNL     1      46.282  22.217  21.098  0.00  0.00    -0.307 OA
ENDBRANCH   3   2
BRANCH  56  57
ATOM     57  O   UNL     1      45.054  22.222  18.632  0.00  0.00    -0.486 OA
ATOM     58  H   UNL     1      44.444  22.156  17.885  0.00  0.00    +0.387 HD
ENDBRANCH  56  57
ENDBRANCH   6   5
ENDBRANCH   7   6
ENDBRANCH   8   7
ENDBRANCH   9   8
ENDBRANCH  10   9
ENDBRANCH  11  10
ENDBRANCH  12  11
ENDBRANCH  13  12
ENDBRANCH  14  13
ENDBRANCH  15  14
ENDBRANCH  16  15
ENDBRANCH  17  16
ENDBRANCH  18  17
ENDBRANCH  19  18
ENDBRANCH  20  19
ENDBRANCH  21  20
ENDBRANCH  22  21
ENDBRANCH  23  22
ENDBRANCH  24  23
BRANCH  24  25
ATOM     25  C   UNL     1      52.258  19.498  16.310  0.00  0.00    +0.000 C 
BRANCH  25  26
ATOM     26  C   UNL     1      51.122  18.482  16.190  0.00  0.00    +0.000 C 
BRANCH  26  27
ATOM     27  C   UNL     1      51.614  17.109  16.650  0.00  0.00    +0.000 C 
BRANCH  27  28
ATOM     28  C   UNL     1      52.096  17.199  18.100  0.00  0.00    +0.000 C 
BRANCH  28  29
ATOM     29  C   UNL     1      51.671  15.939  18.858  0.00  0.00    +0.000 C 
BRANCH  29  30
ATOM     30  C   UNL     1      52.382  15.895  20.212  0.00  0.00    +0.000 C 
BRANCH  30  31
ATOM     31  C   UNL     1      52.364  17.288  20.844  0.00  0.00    +0.000 C 
BRANCH  31  32
ATOM     32  C   UNL     1      53.326  17.321  22.033  0.00  0.00    +0.000 C 
BRANCH  32  33
ATOM     33  C   UNL     1      54.249  16.102  21.976  0.00  0.00    +0.001 C 
BRANCH  33  34
ATOM     34  C   UNL     1      55.664  16.515  22.388  0.00  0.00    +0.002 C 
BRANCH  34  35
ATOM     35  C   UNL     1      56.675  15.906  21.416  0.00  0.00    +0.008 C 
BRANCH  35  36
ATOM     36  C   UNL     1      56.037  15.772  20.032  0.00  0.00    +0.014 C 
BRANCH  36  37
ATOM     37  C   UNL     1      56.605  14.540  19.325  0.00  0.00    +0.030 C 
BRANCH  37  38
ATOM     38  C   UNL     1      56.404  13.307  20.210  0.00  0.00    +0.202 C 
BRANCH  38  39
ATOM     39  O   UNL     1      55.653  12.324  19.494  0.00  0.00    -0.350 OA
BRANCH  39  40
ATOM     40  C   UNL     1      54.315  12.327  19.669  0.00  0.00    +0.501 C 
ATOM     53  O   UNL     1      53.839  12.737  20.711  0.00  0.00    -0.514 OA
BRANCH  40  41
ATOM     41  C   UNL     1      53.464  11.853  18.639  0.00  0.00    -0.060 C 
ATOM     42  C   UNL     1      52.328  12.520  18.341  0.00  0.00    +0.150 C 
BRANCH  42  43
ATOM     43  C   UNL     1      51.446  12.028  17.274  0.00  0.00    -0.057 A 
ATOM     44  C   UNL     1      50.813  10.786  17.404  0.00  0.00    +0.026 A 
ATOM     45  C   UNL     1      49.987  10.327  16.401  0.00  0.00    +0.033 A 
ATOM     46  C   UNL     1      49.778  11.093  15.263  0.00  0.00    +0.095 A 
ATOM     49  C   UNL     1      50.404  12.332  15.126  0.00  0.00    +0.100 A 
ATOM     52  C   UNL     1      51.230  12.802  16.128  0.00  0.00    -0.026 A 
BRANCH  46  47
ATOM     47  O   UNL     1      48.963  10.634  14.278  0.00  0.00    -0.485 OA
ATOM     48  H   UNL     1      49.179  10.974  13.399  0.00  0.00    +0.392 HD
ENDBRANCH  46  47
BRANCH  49  50
ATOM     50  O   UNL     1      50.198  13.078  14.009  0.00  0.00    -0.306 OA
ATOM     51  C   UNL     1      51.217  13.046  13.009  0.00  0.00    +0.242 C 
ENDBRANCH  49  50
ENDBRANCH  42  43
ENDBRANCH  40  41
ENDBRANCH  39  40
ENDBRANCH  38  39
ENDBRANCH  37  38
ENDBRANCH  36  37
ENDBRANCH  35  36
ENDBRANCH  34  35
ENDBRANCH  33  34
ENDBRANCH  32  33
ENDBRANCH  31  32
ENDBRANCH  30  31
ENDBRANCH  29  30
ENDBRANCH  28  29
ENDBRANCH  27  28
ENDBRANCH  26  27
ENDBRANCH  25  26
ENDBRANCH  24  25
TORSDOF 41
ENDMDL
MODEL 6
REMARK VINA RESULT:      -4.2      2.080      8.933
REMARK  Name = ZINC95485946
REMARK  43 active torsions:
REMARK  status: ('A' for Active; 'I' for Inactive)
REMARK    1  A    between atoms: C1_1  and  O1_2
REMARK    2  A    between atoms: O1_2  and  C2_3
REMARK    3  A    between atoms: C4_5  and  C8_10
REMARK    4  A    between atoms: C7_8  and  O2_9
REMARK    5  A    between atoms: C8_10  and  C9_11
REMARK    6  A    between atoms: C9_11  and  O3_12
REMARK    7  A    between atoms: O3_12  and  C10_13
REMARK    8  A    between atoms: C10_13  and  C11_14
REMARK    9  A    between atoms: C11_14  and  C12_15
REMARK   10  A    between atoms: C12_15  and  C13_16
REMARK   11  A    between atoms: C13_16  and  C14_17
REMARK   12  A    between atoms: C14_17  and  C15_18
REMARK   13  A    between atoms: C15_18  and  C16_19
REMARK   14  A    between atoms: C16_19  and  C17_20
REMARK   15  A    between atoms: C17_20  and  C18_21
REMARK   16  A    between atoms: C18_21  and  C19_22
REMARK   17  A    between atoms: C19_22  and  C20_23
REMARK   18  A    between atoms: C20_23  and  C21_24
REMARK   19  A    between atoms: C21_24  and  C22_25
REMARK   20  A    between atoms: C22_25  and  C23_26
REMARK   21  A    between atoms: C23_26  and  C24_27
REMARK   22  A    between atoms: C24_27  and  C25_28
REMARK   23  A    between atoms: C25_28  and  C26_29
REMARK   24  A    between atoms: C26_29  and  C27_30
REMARK   25  A    between atoms: C27_30  and  C28_31
REMARK   26  A    between atoms: C28_31  and  C29_32
REMARK   27  A    between atoms: C29_32  and  C30_33
REMARK   28  A    between atoms: C30_33  and  C31_34
REMARK   29  A    between atoms: C31_34  and  C32_35
REMARK   30  A    between atoms: C32_35  and  C33_36
REMARK   31  A    between atoms: C33_36  and  C34_37
REMARK   32  A    between atoms: C34_37  and  C35_38
REMARK   33  A    between atoms: C35_38  and  C36_39
REMARK   34  A    between atoms: C36_39  and  C37_40
REMARK   35  A    between atoms: C37_40  and  C38_41
REMARK   36  A    between atoms: C38_41  and  C39_42
REMARK   37  A    between atoms: C39_42  and  O4_43
REMARK   38  A    between atoms: O4_43  and  C40_44
REMARK   39  A    between atoms: C40_44  and  C41_46
REMARK   40  A    between atoms: C42_47  and  C43_48
REMARK   41  A    between atoms: C46_51  and  O7_56
REMARK   42  A    between atoms: C47_52  and  O6_54
REMARK   43  A    between atoms: O6_54  and  C49_55
REMARK                            x       y       z     vdW  Elec       q    Type
REMARK                         _______ _______ _______ _____ _____    ______ ____
ROOT
ATOM     24  C   UNL     1      51.407  21.152  16.750  0.00  0.00    +0.000 C 
ENDROOT
BRANCH  24  23
ATOM     23  C   UNL     1      51.172  21.218  18.261  0.00  0.00    +0.000 C 
BRANCH  23  22
ATOM     22  C   UNL     1      52.481  20.918  18.995  0.00  0.00    +0.000 C 
BRANCH  22  21
ATOM     21  C   UNL     1      52.177  20.167  20.293  0.00  0.00    +0.000 C 
BRANCH  21  20
ATOM     20  C   UNL     1      50.687  19.820  20.344  0.00  0.00    +0.000 C 
BRANCH  20  19
ATOM     19  C   UNL     1      50.063  20.434  21.599  0.00  0.00    +0.000 C 
BRANCH  19  18
ATOM     18  C   UNL     1      48.539  20.432  21.463  0.00  0.00    +0.000 C 
BRANCH  18  17
ATOM     17  C   UNL     1      48.073  19.060  20.974  0.00  0.00    +0.000 C 
BRANCH  17  16
ATOM     16  C   UNL     1      47.248  18.381  22.068  0.00  0.00    +0.000 C 
BRANCH  16  15
ATOM     15  C   UNL     1      47.840  17.002  22.372  0.00  0.00    +0.000 C 
BRANCH  15  14
ATOM     14  C   UNL     1      47.093  15.937  21.568  0.00  0.00    +0.001 C 
BRANCH  14  13
ATOM     13  C   UNL     1      47.951  14.674  21.474  0.00  0.00    +0.001 C 
BRANCH  13  12
ATOM     12  C   UNL     1      49.169  14.949  20.590  0.00  0.00    +0.006 C 
BRANCH  12  11
ATOM     11  C   UNL     1      50.409  14.311  21.218  0.00  0.00    +0.009 C 
BRANCH  11  10
ATOM     10  C   UNL     1      50.025  12.979  21.867  0.00  0.00    +0.023 C 
BRANCH  10   9
ATOM      9  C   UNL     1      50.930  11.870  21.329  0.00  0.00    +0.159 C 
BRANCH   9   8
ATOM      8  O   UNL     1      52.157  11.858  22.063  0.00  0.00    -0.390 OA
BRANCH   8   7
ATOM      7  C   UNL     1      53.226  11.181  21.398  0.00  0.00    +0.170 C 
BRANCH   7   6
ATOM      6  C   UNL     1      53.286  11.633  19.938  0.00  0.00    +0.088 C 
BRANCH   6   5
ATOM      3  C   UNL     1      54.765  15.106  19.785  0.00  0.00    +0.105 A 
ATOM      4  C   UNL     1      53.854  14.070  19.911  0.00  0.00    -0.057 A 
ATOM      5  C   UNL     1      54.278  12.759  19.801  0.00  0.00    -0.052 A 
ATOM     54  C   UNL     1      55.612  12.478  19.565  0.00  0.00    -0.004 A 
ATOM     55  C   UNL     1      56.526  13.508  19.439  0.00  0.00    +0.034 A 
ATOM     56  C   UNL     1      56.105  14.824  19.542  0.00  0.00    +0.072 A 
BRANCH   3   2
ATOM      1  C   UNL     1      53.296  16.663  20.823  0.00  0.00    +0.239 C 
ATOM      2  O   UNL     1      54.348  16.396  19.893  0.00  0.00    -0.307 OA
ENDBRANCH   3   2
BRANCH  56  57
ATOM     57  O   UNL     1      57.003  15.837  19.412  0.00  0.00    -0.486 OA
ATOM     58  H   UNL     1      57.788  15.604  18.898  0.00  0.00    +0.387 HD
ENDBRANCH  56  57
ENDBRANCH   6   5
ENDBRANCH   7   6
ENDBRANCH   8   7
ENDBRANCH   9   8
ENDBRANCH  10   9
ENDBRANCH  11  10
ENDBRANCH  12  11
ENDBRANCH  13  12
ENDBRANCH  14  13
ENDBRANCH  15  14
ENDBRANCH  16  15
ENDBRANCH  17  16
ENDBRANCH  18  17
ENDBRANCH  19  18
ENDBRANCH  20  19
ENDBRANCH  21  20
ENDBRANCH  22  21
ENDBRANCH  23  22
ENDBRANCH  24  23
BRANCH  24  25
ATOM     25  C   UNL     1      52.294  19.949  16.425  0.00  0.00    +0.000 C 
BRANCH  25  26
ATOM     26  C   UNL     1      51.450  18.855  15.771  0.00  0.00    +0.000 C 
BRANCH  26  27
ATOM     27  C   UNL     1      50.762  18.023  16.855  0.00  0.00    +0.000 C 
BRANCH  27  28
ATOM     28  C   UNL     1      51.814  17.226  17.630  0.00  0.00    +0.000 C 
BRANCH  28  29
ATOM     29  C   UNL     1      51.416  15.749  17.658  0.00  0.00    +0.000 C 
BRANCH  29  30
ATOM     30  C   UNL     1      51.414  15.194  16.232  0.00  0.00    +0.000 C 
BRANCH  30  31
ATOM     31  C   UNL     1      51.034  13.713  16.261  0.00  0.00    +0.000 C 
BRANCH  31  32
ATOM     32  C   UNL     1      50.863  13.259  17.713  0.00  0.00    +0.000 C 
BRANCH  32  33
ATOM     33  C   UNL     1      49.730  12.233  17.797  0.00  0.00    +0.001 C 
BRANCH  33  34
ATOM     34  C   UNL     1      49.365  11.762  16.388  0.00  0.00    +0.002 C 
BRANCH  34  35
ATOM     35  C   UNL     1      47.846  11.627  16.274  0.00  0.00    +0.008 C 
BRANCH  35  36
ATOM     36  C   UNL     1      47.202  13.012  16.361  0.00  0.00    +0.014 C 
BRANCH  36  37
ATOM     37  C   UNL     1      46.091  12.994  17.412  0.00  0.00    +0.030 C 
BRANCH  37  38
ATOM     38  C   UNL     1      46.161  14.273  18.249  0.00  0.00    +0.202 C 
BRANCH  38  39
ATOM     39  O   UNL     1      46.150  15.411  17.384  0.00  0.00    -0.350 OA
BRANCH  39  40
ATOM     40  C   UNL     1      46.720  16.541  17.850  0.00  0.00    +0.501 C 
ATOM     53  O   UNL     1      47.930  16.661  17.839  0.00  0.00    -0.514 OA
BRANCH  40  41
ATOM     41  C   UNL     1      45.908  17.589  18.354  0.00  0.00    -0.060 C 
ATOM     42  C   UNL     1      46.211  18.874  18.070  0.00  0.00    +0.150 C 
BRANCH  42  43
ATOM     43  C   UNL     1      45.371  19.960  18.591  0.00  0.00    -0.057 A 
ATOM     44  C   UNL     1      45.927  21.220  18.840  0.00  0.00    +0.026 A 
ATOM     45  C   UNL     1      45.136  22.237  19.330  0.00  0.00    +0.033 A 
ATOM     46  C   UNL     1      43.789  22.015  19.578  0.00  0.00    +0.095 A 
ATOM     49  C   UNL     1      43.227  20.763  19.334  0.00  0.00    +0.100 A 
ATOM     52  C   UNL     1      44.011  19.739  18.837  0.00  0.00    -0.026 A 
BRANCH  46  47
ATOM     47  O   UNL     1      43.015  23.021  20.062  0.00  0.00    -0.485 OA
ATOM     48  H   UNL     1      43.263  23.316  20.949  0.00  0.00    +0.392 HD
ENDBRANCH  46  47
BRANCH  49  50
ATOM     50  O   UNL     1      41.907  20.550  19.579  0.00  0.00    -0.306 OA
ATOM     51  C   UNL     1      41.001  20.775  18.496  0.00  0.00    +0.242 C 
ENDBRANCH  49  50
ENDBRANCH  42  43
ENDBRANCH  40  41
ENDBRANCH  39  40
ENDBRANCH  38  39
ENDBRANCH  37  38
ENDBRANCH  36  37
ENDBRANCH  35  36
ENDBRANCH  34  35
ENDBRANCH  33  34
ENDBRANCH  32  33
ENDBRANCH  31  32
ENDBRANCH  30  31
ENDBRANCH  29  30
ENDBRANCH  28  29
ENDBRANCH  27  28
ENDBRANCH  26  27
ENDBRANCH  25  26
ENDBRANCH  24  25
TORSDOF 41
ENDMDL
MODEL 7
REMARK VINA RESULT:      -4.1      1.383      2.356
REMARK  Name = ZINC95485946
REMARK  43 active torsions:
REMARK  status: ('A' for Active; 'I' for Inactive)
REMARK    1  A    between atoms: C1_1  and  O1_2
REMARK    2  A    between atoms: O1_2  and  C2_3
REMARK    3  A    between atoms: C4_5  and  C8_10
REMARK    4  A    between atoms: C7_8  and  O2_9
REMARK    5  A    between atoms: C8_10  and  C9_11
REMARK    6  A    between atoms: C9_11  and  O3_12
REMARK    7  A    between atoms: O3_12  and  C10_13
REMARK    8  A    between atoms: C10_13  and  C11_14
REMARK    9  A    between atoms: C11_14  and  C12_15
REMARK   10  A    between atoms: C12_15  and  C13_16
REMARK   11  A    between atoms: C13_16  and  C14_17
REMARK   12  A    between atoms: C14_17  and  C15_18
REMARK   13  A    between atoms: C15_18  and  C16_19
REMARK   14  A    between atoms: C16_19  and  C17_20
REMARK   15  A    between atoms: C17_20  and  C18_21
REMARK   16  A    between atoms: C18_21  and  C19_22
REMARK   17  A    between atoms: C19_22  and  C20_23
REMARK   18  A    between atoms: C20_23  and  C21_24
REMARK   19  A    between atoms: C21_24  and  C22_25
REMARK   20  A    between atoms: C22_25  and  C23_26
REMARK   21  A    between atoms: C23_26  and  C24_27
REMARK   22  A    between atoms: C24_27  and  C25_28
REMARK   23  A    between atoms: C25_28  and  C26_29
REMARK   24  A    between atoms: C26_29  and  C27_30
REMARK   25  A    between atoms: C27_30  and  C28_31
REMARK   26  A    between atoms: C28_31  and  C29_32
REMARK   27  A    between atoms: C29_32  and  C30_33
REMARK   28  A    between atoms: C30_33  and  C31_34
REMARK   29  A    between atoms: C31_34  and  C32_35
REMARK   30  A    between atoms: C32_35  and  C33_36
REMARK   31  A    between atoms: C33_36  and  C34_37
REMARK   32  A    between atoms: C34_37  and  C35_38
REMARK   33  A    between atoms: C35_38  and  C36_39
REMARK   34  A    between atoms: C36_39  and  C37_40
REMARK   35  A    between atoms: C37_40  and  C38_41
REMARK   36  A    between atoms: C38_41  and  C39_42
REMARK   37  A    between atoms: C39_42  and  O4_43
REMARK   38  A    between atoms: O4_43  and  C40_44
REMARK   39  A    between atoms: C40_44  and  C41_46
REMARK   40  A    between atoms: C42_47  and  C43_48
REMARK   41  A    between atoms: C46_51  and  O7_56
REMARK   42  A    between atoms: C47_52  and  O6_54
REMARK   43  A    between atoms: O6_54  and  C49_55
REMARK                            x       y       z     vdW  Elec       q    Type
REMARK                         _______ _______ _______ _____ _____    ______ ____
ROOT
ATOM     24  C   UNL     1      51.601  20.557  17.774  0.00  0.00    +0.000 C 
ENDROOT
BRANCH  24  23
ATOM     23  C   UNL     1      52.637  21.081  18.772  0.00  0.00    +0.000 C 
BRANCH  23  22
ATOM     22  C   UNL     1      52.006  21.165  20.163  0.00  0.00    +0.000 C 
BRANCH  22  21
ATOM     21  C   UNL     1      51.993  19.774  20.802  0.00  0.00    +0.000 C 
BRANCH  21  20
ATOM     20  C   UNL     1      50.621  19.513  21.428  0.00  0.00    +0.000 C 
BRANCH  20  19
ATOM     19  C   UNL     1      50.064  18.189  20.902  0.00  0.00    +0.000 C 
BRANCH  19  18
ATOM     18  C   UNL     1      49.151  18.459  19.704  0.00  0.00    +0.000 C 
BRANCH  18  17
ATOM     17  C   UNL     1      48.119  17.336  19.587  0.00  0.00    +0.000 C 
BRANCH  17  16
ATOM     16  C   UNL     1      47.776  17.110  18.113  0.00  0.00    +0.000 C 
BRANCH  16  15
ATOM     15  C   UNL     1      47.528  15.620  17.869  0.00  0.00    +0.000 C 
BRANCH  15  14
ATOM     14  C   UNL     1      48.089  14.811  19.039  0.00  0.00    +0.001 C 
BRANCH  14  13
ATOM     13  C   UNL     1      47.194  13.596  19.294  0.00  0.00    +0.001 C 
BRANCH  13  12
ATOM     12  C   UNL     1      45.732  14.044  19.359  0.00  0.00    +0.006 C 
BRANCH  12  11
ATOM     11  C   UNL     1      45.411  14.532  20.773  0.00  0.00    +0.009 C 
BRANCH  11  10
ATOM     10  C   UNL     1      44.739  15.904  20.698  0.00  0.00    +0.023 C 
BRANCH  10   9
ATOM      9  C   UNL     1      44.144  16.256  22.063  0.00  0.00    +0.159 C 
BRANCH   9   8
ATOM      8  O   UNL     1      43.412  17.480  21.964  0.00  0.00    -0.390 OA
BRANCH   8   7
ATOM      7  C   UNL     1      43.763  18.277  20.831  0.00  0.00    +0.170 C 
BRANCH   7   6
ATOM      6  C   UNL     1      42.498  18.644  20.054  0.00  0.00    +0.088 C 
BRANCH   6   5
ATOM      3  C   UNL     1      43.622  22.242  19.796  0.00  0.00    +0.105 A 
ATOM      4  C   UNL     1      43.603  20.889  20.094  0.00  0.00    -0.057 A 
ATOM      5  C   UNL     1      42.517  20.116  19.729  0.00  0.00    -0.052 A 
ATOM     54  C   UNL     1      41.448  20.689  19.065  0.00  0.00    -0.004 A 
ATOM     55  C   UNL     1      41.461  22.038  18.764  0.00  0.00    +0.034 A 
ATOM     56  C   UNL     1      42.543  22.820  19.134  0.00  0.00    +0.072 A 
BRANCH   3   2
ATOM      1  C   UNL     1      45.924  22.323  20.386  0.00  0.00    +0.239 C 
ATOM      2  O   UNL     1      44.689  23.004  20.155  0.00  0.00    -0.307 OA
ENDBRANCH   3   2
BRANCH  56  57
ATOM     57  O   UNL     1      42.554  24.149  18.843  0.00  0.00    -0.486 OA
ATOM     58  H   UNL     1      42.293  24.715  19.582  0.00  0.00    +0.387 HD
ENDBRANCH  56  57
ENDBRANCH   6   5
ENDBRANCH   7   6
ENDBRANCH   8   7
ENDBRANCH   9   8
ENDBRANCH  10   9
ENDBRANCH  11  10
ENDBRANCH  12  11
ENDBRANCH  13  12
ENDBRANCH  14  13
ENDBRANCH  15  14
ENDBRANCH  16  15
ENDBRANCH  17  16
ENDBRANCH  18  17
ENDBRANCH  19  18
ENDBRANCH  20  19
ENDBRANCH  21  20
ENDBRANCH  22  21
ENDBRANCH  23  22
ENDBRANCH  24  23
BRANCH  24  25
ATOM     25  C   UNL     1      52.158  19.323  17.062  0.00  0.00    +0.000 C 
BRANCH  25  26
ATOM     26  C   UNL     1      51.003  18.493  16.500  0.00  0.00    +0.000 C 
BRANCH  26  27
ATOM     27  C   UNL     1      51.213  17.020  16.853  0.00  0.00    +0.000 C 
BRANCH  27  28
ATOM     28  C   UNL     1      52.122  16.915  18.080  0.00  0.00    +0.000 C 
BRANCH  28  29
ATOM     29  C   UNL     1      51.754  15.663  18.881  0.00  0.00    +0.000 C 
BRANCH  29  30
ATOM     30  C   UNL     1      52.980  15.174  19.654  0.00  0.00    +0.000 C 
BRANCH  30  31
ATOM     31  C   UNL     1      54.092  16.221  19.563  0.00  0.00    +0.000 C 
BRANCH  31  32
ATOM     32  C   UNL     1      55.451  15.520  19.513  0.00  0.00    +0.000 C 
BRANCH  32  33
ATOM     33  C   UNL     1      55.387  14.226  20.327  0.00  0.00    +0.001 C 
BRANCH  33  34
ATOM     34  C   UNL     1      56.333  13.191  19.716  0.00  0.00    +0.002 C 
BRANCH  34  35
ATOM     35  C   UNL     1      55.721  11.796  19.855  0.00  0.00    +0.008 C 
BRANCH  35  36
ATOM     36  C   UNL     1      54.458  11.704  18.996  0.00  0.00    +0.014 C 
BRANCH  36  37
ATOM     37  C   UNL     1      53.626  10.500  19.439  0.00  0.00    +0.030 C 
BRANCH  37  38
ATOM     38  C   UNL     1      52.863  10.850  20.719  0.00  0.00    +0.202 C 
BRANCH  38  39
ATOM     39  O   UNL     1      51.468  10.611  20.523  0.00  0.00    -0.350 OA
BRANCH  39  40
ATOM     40  C   UNL     1      50.729  11.640  20.058  0.00  0.00    +0.501 C 
ATOM     53  O   UNL     1      50.378  12.526  20.812  0.00  0.00    -0.514 OA
BRANCH  40  41
ATOM     41  C   UNL     1      50.362  11.687  18.689  0.00  0.00    -0.060 C 
ATOM     42  C   UNL     1      50.880  12.638  17.883  0.00  0.00    +0.150 C 
BRANCH  42  43
ATOM     43  C   UNL     1      50.499  12.688  16.465  0.00  0.00    -0.057 A 
ATOM     44  C   UNL     1      51.468  12.937  15.486  0.00  0.00    +0.026 A 
ATOM     45  C   UNL     1      51.108  12.984  14.157  0.00  0.00    +0.033 A 
ATOM     46  C   UNL     1      49.786  12.784  13.785  0.00  0.00    +0.095 A 
ATOM     49  C   UNL     1      48.814  12.535  14.753  0.00  0.00    +0.100 A 
ATOM     52  C   UNL     1      49.167  12.481  16.088  0.00  0.00    -0.026 A 
BRANCH  46  47
ATOM     47  O   UNL     1      49.438  12.832  12.473  0.00  0.00    -0.485 OA
ATOM     48  H   UNL     1      50.116  13.214  11.900  0.00  0.00    +0.392 HD
ENDBRANCH  46  47
BRANCH  49  50
ATOM     50  O   UNL     1      47.521  12.340  14.384  0.00  0.00    -0.306 OA
ATOM     51  C   UNL     1      46.844  11.219  14.956  0.00  0.00    +0.242 C 
ENDBRANCH  49  50
ENDBRANCH  42  43
ENDBRANCH  40  41
ENDBRANCH  39  40
ENDBRANCH  38  39
ENDBRANCH  37  38
ENDBRANCH  36  37
ENDBRANCH  35  36
ENDBRANCH  34  35
ENDBRANCH  33  34
ENDBRANCH  32  33
ENDBRANCH  31  32
ENDBRANCH  30  31
ENDBRANCH  29  30
ENDBRANCH  28  29
ENDBRANCH  27  28
ENDBRANCH  26  27
ENDBRANCH  25  26
ENDBRANCH  24  25
TORSDOF 41
ENDMDL
MODEL 8
REMARK VINA RESULT:      -3.8      1.518      2.249
REMARK  Name = ZINC95485946
REMARK  43 active torsions:
REMARK  status: ('A' for Active; 'I' for Inactive)
REMARK    1  A    between atoms: C1_1  and  O1_2
REMARK    2  A    between atoms: O1_2  and  C2_3
REMARK    3  A    between atoms: C4_5  and  C8_10
REMARK    4  A    between atoms: C7_8  and  O2_9
REMARK    5  A    between atoms: C8_10  and  C9_11
REMARK    6  A    between atoms: C9_11  and  O3_12
REMARK    7  A    between atoms: O3_12  and  C10_13
REMARK    8  A    between atoms: C10_13  and  C11_14
REMARK    9  A    between atoms: C11_14  and  C12_15
REMARK   10  A    between atoms: C12_15  and  C13_16
REMARK   11  A    between atoms: C13_16  and  C14_17
REMARK   12  A    between atoms: C14_17  and  C15_18
REMARK   13  A    between atoms: C15_18  and  C16_19
REMARK   14  A    between atoms: C16_19  and  C17_20
REMARK   15  A    between atoms: C17_20  and  C18_21
REMARK   16  A    between atoms: C18_21  and  C19_22
REMARK   17  A    between atoms: C19_22  and  C20_23
REMARK   18  A    between atoms: C20_23  and  C21_24
REMARK   19  A    between atoms: C21_24  and  C22_25
REMARK   20  A    between atoms: C22_25  and  C23_26
REMARK   21  A    between atoms: C23_26  and  C24_27
REMARK   22  A    between atoms: C24_27  and  C25_28
REMARK   23  A    between atoms: C25_28  and  C26_29
REMARK   24  A    between atoms: C26_29  and  C27_30
REMARK   25  A    between atoms: C27_30  and  C28_31
REMARK   26  A    between atoms: C28_31  and  C29_32
REMARK   27  A    between atoms: C29_32  and  C30_33
REMARK   28  A    between atoms: C30_33  and  C31_34
REMARK   29  A    between atoms: C31_34  and  C32_35
REMARK   30  A    between atoms: C32_35  and  C33_36
REMARK   31  A    between atoms: C33_36  and  C34_37
REMARK   32  A    between atoms: C34_37  and  C35_38
REMARK   33  A    between atoms: C35_38  and  C36_39
REMARK   34  A    between atoms: C36_39  and  C37_40
REMARK   35  A    between atoms: C37_40  and  C38_41
REMARK   36  A    between atoms: C38_41  and  C39_42
REMARK   37  A    between atoms: C39_42  and  O4_43
REMARK   38  A    between atoms: O4_43  and  C40_44
REMARK   39  A    between atoms: C40_44  and  C41_46
REMARK   40  A    between atoms: C42_47  and  C43_48
REMARK   41  A    between atoms: C46_51  and  O7_56
REMARK   42  A    between atoms: C47_52  and  O6_54
REMARK   43  A    between atoms: O6_54  and  C49_55
REMARK                            x       y       z     vdW  Elec       q    Type
REMARK                         _______ _______ _______ _____ _____    ______ ____
ROOT
ATOM     24  C   UNL     1      51.083  20.462  17.686  0.00  0.00    +0.000 C 
ENDROOT
BRANCH  24  23
ATOM     23  C   UNL     1      51.937  21.105  18.781  0.00  0.00    +0.000 C 
BRANCH  23  22
ATOM     22  C   UNL     1      51.158  21.112  20.098  0.00  0.00    +0.000 C 
BRANCH  22  21
ATOM     21  C   UNL     1      51.150  19.701  20.692  0.00  0.00    +0.000 C 
BRANCH  21  20
ATOM     20  C   UNL     1      49.751  19.379  21.221  0.00  0.00    +0.000 C 
BRANCH  20  19
ATOM     19  C   UNL     1      49.254  18.078  20.586  0.00  0.00    +0.000 C 
BRANCH  19  18
ATOM     18  C   UNL     1      48.406  18.403  19.355  0.00  0.00    +0.000 C 
BRANCH  18  17
ATOM     17  C   UNL     1      47.753  17.122  18.832  0.00  0.00    +0.000 C 
BRANCH  17  16
ATOM     16  C   UNL     1      47.002  17.425  17.535  0.00  0.00    +0.000 C 
BRANCH  16  15
ATOM     15  C   UNL     1      46.722  16.118  16.790  0.00  0.00    +0.000 C 
BRANCH  15  14
ATOM     14  C   UNL     1      47.900  15.161  16.977  0.00  0.00    +0.001 C 
BRANCH  14  13
ATOM     13  C   UNL     1      47.390  13.718  16.987  0.00  0.00    +0.001 C 
BRANCH  13  12
ATOM     12  C   UNL     1      46.108  13.637  17.819  0.00  0.00    +0.006 C 
BRANCH  12  11
ATOM     11  C   UNL     1      46.462  13.297  19.268  0.00  0.00    +0.009 C 
BRANCH  11  10
ATOM     10  C   UNL     1      45.210  13.418  20.141  0.00  0.00    +0.023 C 
BRANCH  10   9
ATOM      9  C   UNL     1      45.620  13.494  21.612  0.00  0.00    +0.159 C 
BRANCH   9   8
ATOM      8  O   UNL     1      45.996  14.835  21.933  0.00  0.00    -0.390 OA
BRANCH   8   7
ATOM      7  C   UNL     1      44.893  15.695  22.225  0.00  0.00    +0.170 C 
BRANCH   7   6
ATOM      6  C   UNL     1      45.373  17.146  22.264  0.00  0.00    +0.088 C 
BRANCH   6   5
ATOM      3  C   UNL     1      43.794  19.813  20.103  0.00  0.00    +0.105 A 
ATOM      4  C   UNL     1      44.740  18.996  20.703  0.00  0.00    -0.057 A 
ATOM      5  C   UNL     1      44.344  18.034  21.613  0.00  0.00    -0.052 A 
ATOM     54  C   UNL     1      43.006  17.885  21.928  0.00  0.00    -0.004 A 
ATOM     55  C   UNL     1      42.058  18.697  21.333  0.00  0.00    +0.034 A 
ATOM     56  C   UNL     1      42.449  19.667  20.425  0.00  0.00    +0.072 A 
BRANCH   3   2
ATOM      1  C   UNL     1      45.552  20.746  18.800  0.00  0.00    +0.239 C 
ATOM      2  O   UNL     1      44.182  20.760  19.208  0.00  0.00    -0.307 OA
ENDBRANCH   3   2
BRANCH  56  57
ATOM     57  O   UNL     1      41.517  20.469  19.843  0.00  0.00    -0.486 OA
ATOM     58  H   UNL     1      41.879  21.284  19.469  0.00  0.00    +0.387 HD
ENDBRANCH  56  57
ENDBRANCH   6   5
ENDBRANCH   7   6
ENDBRANCH   8   7
ENDBRANCH   9   8
ENDBRANCH  10   9
ENDBRANCH  11  10
ENDBRANCH  12  11
ENDBRANCH  13  12
ENDBRANCH  14  13
ENDBRANCH  15  14
ENDBRANCH  16  15
ENDBRANCH  17  16
ENDBRANCH  18  17
ENDBRANCH  19  18
ENDBRANCH  20  19
ENDBRANCH  21  20
ENDBRANCH  22  21
ENDBRANCH  23  22
ENDBRANCH  24  23
BRANCH  24  25
ATOM     25  C   UNL     1      51.823  19.256  17.105  0.00  0.00    +0.000 C 
BRANCH  25  26
ATOM     26  C   UNL     1      50.827  18.344  16.387  0.00  0.00    +0.000 C 
BRANCH  26  27
ATOM     27  C   UNL     1      50.972  16.915  16.915  0.00  0.00    +0.000 C 
BRANCH  27  28
ATOM     28  C   UNL     1      51.878  16.917  18.148  0.00  0.00    +0.000 C 
BRANCH  28  29
ATOM     29  C   UNL     1      51.524  15.727  19.042  0.00  0.00    +0.000 C 
BRANCH  29  30
ATOM     30  C   UNL     1      52.785  15.228  19.750  0.00  0.00    +0.000 C 
BRANCH  30  31
ATOM     31  C   UNL     1      53.840  16.337  19.755  0.00  0.00    +0.000 C 
BRANCH  31  32
ATOM     32  C   UNL     1      55.224  15.726  19.526  0.00  0.00    +0.000 C 
BRANCH  32  33
ATOM     33  C   UNL     1      55.753  15.155  20.844  0.00  0.00    +0.001 C 
BRANCH  33  34
ATOM     34  C   UNL     1      57.035  14.364  20.578  0.00  0.00    +0.002 C 
BRANCH  34  35
ATOM     35  C   UNL     1      56.773  12.875  20.815  0.00  0.00    +0.008 C 
BRANCH  35  36
ATOM     36  C   UNL     1      56.085  12.276  19.587  0.00  0.00    +0.014 C 
BRANCH  36  37
ATOM     37  C   UNL     1      55.053  11.240  20.035  0.00  0.00    +0.030 C 
BRANCH  37  38
ATOM     38  C   UNL     1      53.926  11.939  20.799  0.00  0.00    +0.202 C 
BRANCH  38  39
ATOM     39  O   UNL     1      52.745  11.136  20.746  0.00  0.00    -0.350 OA
BRANCH  39  40
ATOM     40  C   UNL     1      51.704  11.624  20.041  0.00  0.00    +0.501 C 
ATOM     53  O   UNL     1      50.886  12.344  20.582  0.00  0.00    -0.514 OA
BRANCH  40  41
ATOM     41  C   UNL     1      51.561  11.297  18.668  0.00  0.00    -0.060 C 
ATOM     42  C   UNL     1      51.551  12.276  17.739  0.00  0.00    +0.150 C 
BRANCH  42  43
ATOM     43  C   UNL     1      51.404  11.937  16.316  0.00  0.00    -0.057 A 
ATOM     44  C   UNL     1      52.152  10.892  15.762  0.00  0.00    +0.026 A 
ATOM     45  C   UNL     1      52.013  10.578  14.428  0.00  0.00    +0.033 A 
ATOM     46  C   UNL     1      51.131  11.294  13.631  0.00  0.00    +0.095 A 
ATOM     49  C   UNL     1      50.381  12.337  14.175  0.00  0.00    +0.100 A 
ATOM     52  C   UNL     1      50.511  12.655  15.513  0.00  0.00    -0.026 A 
BRANCH  46  47
ATOM     47  O   UNL     1      50.998  10.979  12.316  0.00  0.00    -0.485 OA
ATOM     48  H   UNL     1      51.249  11.693  11.714  0.00  0.00    +0.392 HD
ENDBRANCH  46  47
BRANCH  49  50
ATOM     50  O   UNL     1      49.519  13.035  13.390  0.00  0.00    -0.306 OA
ATOM     51  C   UNL     1      48.125  12.782  13.572  0.00  0.00    +0.242 C 
ENDBRANCH  49  50
ENDBRANCH  42  43
ENDBRANCH  40  41
ENDBRANCH  39  40
ENDBRANCH  38  39
ENDBRANCH  37  38
ENDBRANCH  36  37
ENDBRANCH  35  36
ENDBRANCH  34  35
ENDBRANCH  33  34
ENDBRANCH  32  33
ENDBRANCH  31  32
ENDBRANCH  30  31
ENDBRANCH  29  30
ENDBRANCH  28  29
ENDBRANCH  27  28
ENDBRANCH  26  27
ENDBRANCH  25  26
ENDBRANCH  24  25
TORSDOF 41
ENDMDL
MODEL 9
REMARK VINA RESULT:      -3.6      2.076      3.907
REMARK  Name = ZINC95485946
REMARK  43 active torsions:
REMARK  status: ('A' for Active; 'I' for Inactive)
REMARK    1  A    between atoms: C1_1  and  O1_2
REMARK    2  A    between atoms: O1_2  and  C2_3
REMARK    3  A    between atoms: C4_5  and  C8_10
REMARK    4  A    between atoms: C7_8  and  O2_9
REMARK    5  A    between atoms: C8_10  and  C9_11
REMARK    6  A    between atoms: C9_11  and  O3_12
REMARK    7  A    between atoms: O3_12  and  C10_13
REMARK    8  A    between atoms: C10_13  and  C11_14
REMARK    9  A    between atoms: C11_14  and  C12_15
REMARK   10  A    between atoms: C12_15  and  C13_16
REMARK   11  A    between atoms: C13_16  and  C14_17
REMARK   12  A    between atoms: C14_17  and  C15_18
REMARK   13  A    between atoms: C15_18  and  C16_19
REMARK   14  A    between atoms: C16_19  and  C17_20
REMARK   15  A    between atoms: C17_20  and  C18_21
REMARK   16  A    between atoms: C18_21  and  C19_22
REMARK   17  A    between atoms: C19_22  and  C20_23
REMARK   18  A    between atoms: C20_23  and  C21_24
REMARK   19  A    between atoms: C21_24  and  C22_25
REMARK   20  A    between atoms: C22_25  and  C23_26
REMARK   21  A    between atoms: C23_26  and  C24_27
REMARK   22  A    between atoms: C24_27  and  C25_28
REMARK   23  A    between atoms: C25_28  and  C26_29
REMARK   24  A    between atoms: C26_29  and  C27_30
REMARK   25  A    between atoms: C27_30  and  C28_31
REMARK   26  A    between atoms: C28_31  and  C29_32
REMARK   27  A    between atoms: C29_32  and  C30_33
REMARK   28  A    between atoms: C30_33  and  C31_34
REMARK   29  A    between atoms: C31_34  and  C32_35
REMARK   30  A    between atoms: C32_35  and  C33_36
REMARK   31  A    between atoms: C33_36  and  C34_37
REMARK   32  A    between atoms: C34_37  and  C35_38
REMARK   33  A    between atoms: C35_38  and  C36_39
REMARK   34  A    between atoms: C36_39  and  C37_40
REMARK   35  A    between atoms: C37_40  and  C38_41
REMARK   36  A    between atoms: C38_41  and  C39_42
REMARK   37  A    between atoms: C39_42  and  O4_43
REMARK   38  A    between atoms: O4_43  and  C40_44
REMARK   39  A    between atoms: C40_44  and  C41_46
REMARK   40  A    between atoms: C42_47  and  C43_48
REMARK   41  A    between atoms: C46_51  and  O7_56
REMARK   42  A    between atoms: C47_52  and  O6_54
REMARK   43  A    between atoms: O6_54  and  C49_55
REMARK                            x       y       z     vdW  Elec       q    Type
REMARK                         _______ _______ _______ _____ _____    ______ ____
ROOT
ATOM     24  C   UNL     1      51.484  19.860  16.536  0.00  0.00    +0.000 C 
ENDROOT
BRANCH  24  23
ATOM     23  C   UNL     1      51.294  20.817  17.716  0.00  0.00    +0.000 C 
BRANCH  23  22
ATOM     22  C   UNL     1      49.937  20.553  18.373  0.00  0.00    +0.000 C 
BRANCH  22  21
ATOM     21  C   UNL     1      49.928  19.147  18.977  0.00  0.00    +0.000 C 
BRANCH  21  20
ATOM     20  C   UNL     1      48.525  18.548  18.852  0.00  0.00    +0.000 C 
BRANCH  20  19
ATOM     19  C   UNL     1      48.441  17.709  17.575  0.00  0.00    +0.000 C 
BRANCH  19  18
ATOM     18  C   UNL     1      47.039  17.108  17.452  0.00  0.00    +0.000 C 
BRANCH  18  17
ATOM     17  C   UNL     1      46.144  17.669  18.558  0.00  0.00    +0.000 C 
BRANCH  17  16
ATOM     16  C   UNL     1      45.444  16.517  19.281  0.00  0.00    +0.000 C 
BRANCH  16  15
ATOM     15  C   UNL     1      45.615  16.685  20.793  0.00  0.00    +0.000 C 
BRANCH  15  14
ATOM     14  C   UNL     1      47.095  16.559  21.156  0.00  0.00    +0.001 C 
BRANCH  14  13
ATOM     13  C   UNL     1      47.348  17.237  22.505  0.00  0.00    +0.001 C 
BRANCH  13  12
ATOM     12  C   UNL     1      46.763  18.651  22.482  0.00  0.00    +0.006 C 
BRANCH  12  11
ATOM     11  C   UNL     1      47.824  19.634  21.984  0.00  0.00    +0.009 C 
BRANCH  11  10
ATOM     10  C   UNL     1      47.376  21.065  22.289  0.00  0.00    +0.023 C 
BRANCH  10   9
ATOM      9  C   UNL     1      47.147  21.819  20.978  0.00  0.00    +0.159 C 
BRANCH   9   8
ATOM      8  O   UNL     1      46.925  20.882  19.922  0.00  0.00    -0.390 OA
BRANCH   8   7
ATOM      7  C   UNL     1      45.911  21.278  18.996  0.00  0.00    +0.170 C 
BRANCH   7   6
ATOM      6  C   UNL     1      44.785  21.989  19.746  0.00  0.00    +0.088 C 
BRANCH   6   5
ATOM      3  C   UNL     1      41.553  20.032  19.749  0.00  0.00    +0.105 A 
ATOM      4  C   UNL     1      42.534  20.950  19.408  0.00  0.00    -0.057 A 
ATOM      5  C   UNL     1      43.719  20.991  20.118  0.00  0.00    -0.052 A 
ATOM     54  C   UNL     1      43.929  20.118  21.170  0.00  0.00    -0.004 A 
ATOM     55  C   UNL     1      42.954  19.200  21.515  0.00  0.00    +0.034 A 
ATOM     56  C   UNL     1      41.762  19.158  20.811  0.00  0.00    +0.072 A 
BRANCH   3   2
ATOM      1  C   UNL     1      40.023  21.166  18.325  0.00  0.00    +0.239 C 
ATOM      2  O   UNL     1      40.387  19.990  19.051  0.00  0.00    -0.307 OA
ENDBRANCH   3   2
BRANCH  56  57
ATOM     57  O   UNL     1      40.801  18.259  21.153  0.00  0.00    -0.486 OA
ATOM     58  H   UNL     1      40.285  17.931  20.404  0.00  0.00    +0.387 HD
ENDBRANCH  56  57
ENDBRANCH   6   5
ENDBRANCH   7   6
ENDBRANCH   8   7
ENDBRANCH   9   8
ENDBRANCH  10   9
ENDBRANCH  11  10
ENDBRANCH  12  11
ENDBRANCH  13  12
ENDBRANCH  14  13
ENDBRANCH  15  14
ENDBRANCH  16  15
ENDBRANCH  17  16
ENDBRANCH  18  17
ENDBRANCH  19  18
ENDBRANCH  20  19
ENDBRANCH  21  20
ENDBRANCH  22  21
ENDBRANCH  23  22
ENDBRANCH  24  23
BRANCH  24  25
ATOM     25  C   UNL     1      52.212  18.603  17.012  0.00  0.00    +0.000 C 
BRANCH  25  26
ATOM     26  C   UNL     1      51.705  17.391  16.229  0.00  0.00    +0.000 C 
BRANCH  26  27
ATOM     27  C   UNL     1      51.727  16.155  17.129  0.00  0.00    +0.000 C 
BRANCH  27  28
ATOM     28  C   UNL     1      52.574  16.444  18.371  0.00  0.00    +0.000 C 
BRANCH  28  29
ATOM     29  C   UNL     1      52.928  15.126  19.064  0.00  0.00    +0.000 C 
BRANCH  29  30
ATOM     30  C   UNL     1      53.935  15.394  20.185  0.00  0.00    +0.000 C 
BRANCH  30  31
ATOM     31  C   UNL     1      55.333  15.560  19.585  0.00  0.00    +0.000 C 
BRANCH  31  32
ATOM     32  C   UNL     1      56.065  14.216  19.619  0.00  0.00    +0.000 C 
BRANCH  32  33
ATOM     33  C   UNL     1      55.727  13.485  20.920  0.00  0.00    +0.001 C 
BRANCH  33  34
ATOM     34  C   UNL     1      55.854  11.975  20.704  0.00  0.00    +0.002 C 
BRANCH  34  35
ATOM     35  C   UNL     1      54.530  11.297  21.058  0.00  0.00    +0.008 C 
BRANCH  35  36
ATOM     36  C   UNL     1      53.502  11.581  19.961  0.00  0.00    +0.014 C 
BRANCH  36  37
ATOM     37  C   UNL     1      52.111  11.703  20.584  0.00  0.00    +0.030 C 
BRANCH  37  38
ATOM     38  C   UNL     1      52.152  12.719  21.728  0.00  0.00    +0.202 C 
BRANCH  38  39
ATOM     39  O   UNL     1      50.819  13.001  22.163  0.00  0.00    -0.350 OA
BRANCH  39  40
ATOM     40  C   UNL     1      50.137  13.942  21.478  0.00  0.00    +0.501 C 
ATOM     53  O   UNL     1      50.500  15.102  21.514  0.00  0.00    -0.514 OA
BRANCH  40  41
ATOM     41  C   UNL     1      48.998  13.579  20.716  0.00  0.00    -0.060 C 
ATOM     42  C   UNL     1      49.089  13.474  19.373  0.00  0.00    +0.150 C 
BRANCH  42  43
ATOM     43  C   UNL     1      47.909  13.098  18.583  0.00  0.00    -0.057 A 
ATOM     44  C   UNL     1      46.630  13.196  19.143  0.00  0.00    +0.026 A 
ATOM     45  C   UNL     1      45.524  12.842  18.400  0.00  0.00    +0.033 A 
ATOM     46  C   UNL     1      45.675  12.387  17.098  0.00  0.00    +0.095 A 
ATOM     49  C   UNL     1      46.946  12.286  16.532  0.00  0.00    +0.100 A 
ATOM     52  C   UNL     1      48.059  12.645  17.267  0.00  0.00    -0.026 A 
BRANCH  46  47
ATOM     47  O   UNL     1      44.582  12.039  16.371  0.00  0.00    -0.485 OA
ATOM     48  H   UNL     1      44.519  11.092  16.184  0.00  0.00    +0.392 HD
ENDBRANCH  46  47
BRANCH  49  50
ATOM     50  O   UNL     1      47.089  11.841  15.256  0.00  0.00    -0.306 OA
ATOM     51  C   UNL     1      47.837  12.665  14.360  0.00  0.00    +0.242 C 
ENDBRANCH  49  50
ENDBRANCH  42  43
ENDBRANCH  40  41
ENDBRANCH  39  40
ENDBRANCH  38  39
ENDBRANCH  37  38
ENDBRANCH  36  37
ENDBRANCH  35  36
ENDBRANCH  34  35
ENDBRANCH  33  34
ENDBRANCH  32  33
ENDBRANCH  31  32
ENDBRANCH  30  31
ENDBRANCH  29  30
ENDBRANCH  28  29
ENDBRANCH  27  28
ENDBRANCH  26  27
ENDBRANCH  25  26
ENDBRANCH  24  25
TORSDOF 41
ENDMDL
