MODEL 1
REMARK VINA RESULT:      -6.0      0.000      0.000
REMARK  Name = ZINC04098020
REMARK  11 active torsions:
REMARK  status: ('A' for Active; 'I' for Inactive)
REMARK    1  A    between atoms: C1_1  and  C2_2
REMARK    2  A    between atoms: C4_4  and  O4_30
REMARK    3  A    between atoms: C7_7  and  C8_8
REMARK    4  A    between atoms: C9_9  and  O2_23
REMARK    5  A    between atoms: C11_11  and  O1_21
REMARK    6  A    between atoms: C15_15  and  C18_20
REMARK    7  A    between atoms: C16_17  and  C17_19
REMARK    8  A    between atoms: O1_21  and  C19_22
REMARK    9  A    between atoms: C23_27  and  O3_28
REMARK   10  A    between atoms: O3_28  and  C24_29
REMARK   11  A    between atoms: O4_30  and  C25_31
REMARK                            x       y       z     vdW  Elec       q    Type
REMARK                         _______ _______ _______ _____ _____    ______ ____
ROOT
ATOM     16  C   UNL     1      46.061  19.677  19.684  0.00  0.00    -0.070 A 
ATOM     17  C   UNL     1      45.272  20.635  19.040  0.00  0.00    +0.192 A 
ATOM     20  C   UNL     1      43.893  20.517  19.070  0.00  0.00    -0.082 A 
ATOM     21  C   UNL     1      43.305  19.456  19.737  0.00  0.00    +0.176 A 
ATOM     24  C   UNL     1      44.088  18.500  20.381  0.00  0.00    -0.174 A 
ATOM     25  C   UNL     1      43.394  17.373  21.100  0.00  0.00    +0.244 C 
ATOM     26  N   UNL     1      44.326  16.261  21.337  0.00  0.00    -0.511 N 
ATOM     27  H   UNL     1      44.589  15.840  20.438  0.00  0.00    +0.433 HD
ATOM     28  H   UNL     1      43.872  15.553  21.926  0.00  0.00    +0.435 HD
ATOM     29  C   UNL     1      45.535  16.760  22.015  0.00  0.00    +0.171 C 
ATOM     30  C   UNL     1      46.372  15.576  22.505  0.00  0.00    +0.094 C 
ATOM     31  C   UNL     1      46.347  17.586  21.017  0.00  0.00    +0.136 C 
ATOM     32  C   UNL     1      42.847  17.886  22.435  0.00  0.00    +0.096 C 
ATOM     33  C   UNL     1      45.460  18.603  20.350  0.00  0.00    -0.023 A 
ENDROOT
BRANCH  16  15
ATOM      1  C   UNL     1      47.371  21.512  21.466  0.00  0.00    +0.095 C 
ATOM      2  C   UNL     1      48.180  20.676  20.509  0.00  0.00    +0.011 A 
ATOM      3  C   UNL     1      49.564  20.796  20.492  0.00  0.00    -0.111 A 
ATOM      4  C   UNL     1      50.330  20.043  19.629  0.00  0.00    +0.191 A 
ATOM      7  C   UNL     1      49.707  19.136  18.747  0.00  0.00    -0.106 A 
ATOM      8  C   UNL     1      48.298  19.010  18.758  0.00  0.00    +0.046 A 
ATOM      9  C   UNL     1      47.678  18.108  17.881  0.00  0.00    -0.061 A 
ATOM     10  C   UNL     1      48.434  17.363  17.025  0.00  0.00    +0.083 A 
ATOM     11  C   UNL     1      49.819  17.483  17.003  0.00  0.00    -0.114 A 
ATOM     12  C   UNL     1      50.464  18.354  17.853  0.00  0.00    +0.182 A 
ATOM     15  C   UNL     1      47.537  19.795  19.657  0.00  0.00    -0.116 A 
BRANCH   4   5
ATOM      5  O   UNL     1      51.682  20.174  19.626  0.00  0.00    -0.287 OA
ATOM      6  C   UNL     1      52.204  21.501  19.719  0.00  0.00    +0.247 C 
ENDBRANCH   4   5
BRANCH  12  13
ATOM     13  O   UNL     1      51.817  18.462  17.826  0.00  0.00    -0.289 OA
ATOM     14  C   UNL     1      52.567  17.305  18.205  0.00  0.00    +0.247 C 
ENDBRANCH  12  13
ENDBRANCH  16  15
BRANCH  17  18
ATOM     18  O   UNL     1      45.856  21.675  18.389  0.00  0.00    -0.484 OA
ATOM     19  H   UNL     1      45.540  22.544  18.671  0.00  0.00    +0.403 HD
ENDBRANCH  17  18
BRANCH  21  22
ATOM     22  O   UNL     1      41.951  19.345  19.763  0.00  0.00    -0.314 OA
ATOM     23  C   UNL     1      41.204  20.358  19.086  0.00  0.00    +0.263 C 
ENDBRANCH  21  22
TORSDOF 5
ENDMDL
MODEL 2
REMARK VINA RESULT:      -5.8      2.993      7.093
REMARK  Name = ZINC04098020
REMARK  11 active torsions:
REMARK  status: ('A' for Active; 'I' for Inactive)
REMARK    1  A    between atoms: C1_1  and  C2_2
REMARK    2  A    between atoms: C4_4  and  O4_30
REMARK    3  A    between atoms: C7_7  and  C8_8
REMARK    4  A    between atoms: C9_9  and  O2_23
REMARK    5  A    between atoms: C11_11  and  O1_21
REMARK    6  A    between atoms: C15_15  and  C18_20
REMARK    7  A    between atoms: C16_17  and  C17_19
REMARK    8  A    between atoms: O1_21  and  C19_22
REMARK    9  A    between atoms: C23_27  and  O3_28
REMARK   10  A    between atoms: O3_28  and  C24_29
REMARK   11  A    between atoms: O4_30  and  C25_31
REMARK                            x       y       z     vdW  Elec       q    Type
REMARK                         _______ _______ _______ _____ _____    ______ ____
ROOT
ATOM     16  C   UNL     1      48.406  18.421  19.555  0.00  0.00    -0.070 A 
ATOM     17  C   UNL     1      48.162  17.250  20.278  0.00  0.00    +0.192 A 
ATOM     20  C   UNL     1      49.103  16.235  20.274  0.00  0.00    -0.082 A 
ATOM     21  C   UNL     1      50.279  16.387  19.559  0.00  0.00    +0.176 A 
ATOM     24  C   UNL     1      50.527  17.554  18.839  0.00  0.00    -0.174 A 
ATOM     25  C   UNL     1      51.828  17.668  18.088  0.00  0.00    +0.244 C 
ATOM     26  N   UNL     1      51.743  18.724  17.067  0.00  0.00    -0.511 N 
ATOM     27  H   UNL     1      51.075  18.441  16.340  0.00  0.00    +0.433 HD
ATOM     28  H   UNL     1      52.667  18.867  16.645  0.00  0.00    +0.435 HD
ATOM     29  C   UNL     1      51.287  19.981  17.688  0.00  0.00    +0.171 C 
ATOM     30  C   UNL     1      51.464  21.133  16.697  0.00  0.00    +0.094 C 
ATOM     31  C   UNL     1      49.810  19.836  18.051  0.00  0.00    +0.136 C 
ATOM     32  C   UNL     1      52.954  17.988  19.074  0.00  0.00    +0.096 C 
ATOM     33  C   UNL     1      49.593  18.564  18.829  0.00  0.00    -0.023 A 
ENDROOT
BRANCH  16  15
ATOM      1  C   UNL     1      46.250  18.363  17.656  0.00  0.00    +0.095 C 
ATOM      2  C   UNL     1      46.362  19.496  18.642  0.00  0.00    +0.011 A 
ATOM      3  C   UNL     1      45.417  20.514  18.629  0.00  0.00    -0.111 A 
ATOM      4  C   UNL     1      45.492  21.563  19.519  0.00  0.00    +0.191 A 
ATOM      7  C   UNL     1      46.541  21.610  20.460  0.00  0.00    -0.106 A 
ATOM      8  C   UNL     1      47.508  20.577  20.479  0.00  0.00    +0.046 A 
ATOM      9  C   UNL     1      48.552  20.624  21.414  0.00  0.00    -0.061 A 
ATOM     10  C   UNL     1      48.630  21.661  22.296  0.00  0.00    +0.083 A 
ATOM     11  C   UNL     1      47.687  22.684  22.283  0.00  0.00    -0.114 A 
ATOM     12  C   UNL     1      46.645  22.670  21.383  0.00  0.00    +0.182 A 
ATOM     15  C   UNL     1      47.404  19.512  19.553  0.00  0.00    -0.116 A 
BRANCH   4   5
ATOM      5  O   UNL     1      44.559  22.549  19.492  0.00  0.00    -0.287 OA
ATOM      6  C   UNL     1      43.188  22.144  19.507  0.00  0.00    +0.247 C 
ENDBRANCH   4   5
BRANCH  12  13
ATOM     13  O   UNL     1      45.727  23.671  21.381  0.00  0.00    -0.289 OA
ATOM     14  C   UNL     1      46.214  24.996  21.154  0.00  0.00    +0.247 C 
ENDBRANCH  12  13
ENDBRANCH  16  15
BRANCH  17  18
ATOM     18  O   UNL     1      47.007  17.108  20.979  0.00  0.00    -0.484 OA
ATOM     19  H   UNL     1      46.287  16.706  20.475  0.00  0.00    +0.403 HD
ENDBRANCH  17  18
BRANCH  21  22
ATOM     22  O   UNL     1      51.200  15.388  19.559  0.00  0.00    -0.314 OA
ATOM     23  C   UNL     1      50.733  14.075  19.240  0.00  0.00    +0.263 C 
ENDBRANCH  21  22
TORSDOF 5
ENDMDL
MODEL 3
REMARK VINA RESULT:      -5.7      2.830      6.866
REMARK  Name = ZINC04098020
REMARK  11 active torsions:
REMARK  status: ('A' for Active; 'I' for Inactive)
REMARK    1  A    between atoms: C1_1  and  C2_2
REMARK    2  A    between atoms: C4_4  and  O4_30
REMARK    3  A    between atoms: C7_7  and  C8_8
REMARK    4  A    between atoms: C9_9  and  O2_23
REMARK    5  A    between atoms: C11_11  and  O1_21
REMARK    6  A    between atoms: C15_15  and  C18_20
REMARK    7  A    between atoms: C16_17  and  C17_19
REMARK    8  A    between atoms: O1_21  and  C19_22
REMARK    9  A    between atoms: C23_27  and  O3_28
REMARK   10  A    between atoms: O3_28  and  C24_29
REMARK   11  A    between atoms: O4_30  and  C25_31
REMARK                            x       y       z     vdW  Elec       q    Type
REMARK                         _______ _______ _______ _____ _____    ______ ____
ROOT
ATOM     16  C   UNL     1      48.654  18.998  20.357  0.00  0.00    -0.070 A 
ATOM     17  C   UNL     1      48.496  17.857  21.150  0.00  0.00    +0.192 A 
ATOM     20  C   UNL     1      49.308  16.758  20.937  0.00  0.00    -0.082 A 
ATOM     21  C   UNL     1      50.273  16.793  19.945  0.00  0.00    +0.176 A 
ATOM     24  C   UNL     1      50.436  17.928  19.153  0.00  0.00    -0.174 A 
ATOM     25  C   UNL     1      51.508  17.915  18.095  0.00  0.00    +0.244 C 
ATOM     26  N   UNL     1      51.263  18.971  17.100  0.00  0.00    -0.511 N 
ATOM     27  H   UNL     1      50.410  18.751  16.573  0.00  0.00    +0.433 HD
ATOM     28  H   UNL     1      52.060  19.023  16.455  0.00  0.00    +0.435 HD
ATOM     29  C   UNL     1      51.098  20.267  17.780  0.00  0.00    +0.171 C 
ATOM     30  C   UNL     1      51.121  21.394  16.745  0.00  0.00    +0.094 C 
ATOM     31  C   UNL     1      49.754  20.266  18.509  0.00  0.00    +0.136 C 
ATOM     32  C   UNL     1      52.872  18.129  18.756  0.00  0.00    +0.096 C 
ATOM     33  C   UNL     1      49.626  19.024  19.350  0.00  0.00    -0.023 A 
ENDROOT
BRANCH  16  15
ATOM      1  C   UNL     1      49.573  21.135  22.044  0.00  0.00    +0.095 C 
ATOM      2  C   UNL     1      48.218  21.215  21.388  0.00  0.00    +0.011 A 
ATOM      3  C   UNL     1      47.415  22.327  21.603  0.00  0.00    -0.111 A 
ATOM      4  C   UNL     1      46.172  22.428  21.016  0.00  0.00    +0.191 A 
ATOM      7  C   UNL     1      45.704  21.391  20.184  0.00  0.00    -0.106 A 
ATOM      8  C   UNL     1      46.516  20.255  19.962  0.00  0.00    +0.046 A 
ATOM      9  C   UNL     1      46.050  19.223  19.135  0.00  0.00    -0.061 A 
ATOM     10  C   UNL     1      44.820  19.319  18.553  0.00  0.00    +0.083 A 
ATOM     11  C   UNL     1      44.012  20.430  18.769  0.00  0.00    -0.114 A 
ATOM     12  C   UNL     1      44.438  21.466  19.571  0.00  0.00    +0.182 A 
ATOM     15  C   UNL     1      47.789  20.179  20.577  0.00  0.00    -0.116 A 
BRANCH   4   5
ATOM      5  O   UNL     1      45.401  23.523  21.238  0.00  0.00    -0.287 OA
ATOM      6  C   UNL     1      45.986  24.796  20.952  0.00  0.00    +0.247 C 
ENDBRANCH   4   5
BRANCH  12  13
ATOM     13  O   UNL     1      43.643  22.548  19.773  0.00  0.00    -0.289 OA
ATOM     14  C   UNL     1      42.360  22.537  19.142  0.00  0.00    +0.247 C 
ENDBRANCH  12  13
ENDBRANCH  16  15
BRANCH  17  18
ATOM     18  O   UNL     1      47.548  17.830  22.124  0.00  0.00    -0.484 OA
ATOM     19  H   UNL     1      47.022  17.019  22.138  0.00  0.00    +0.403 HD
ENDBRANCH  17  18
BRANCH  21  22
ATOM     22  O   UNL     1      51.068  15.711  19.740  0.00  0.00    -0.314 OA
ATOM     23  C   UNL     1      51.763  15.192  20.876  0.00  0.00    +0.263 C 
ENDBRANCH  21  22
TORSDOF 5
ENDMDL
MODEL 4
REMARK VINA RESULT:      -5.6      1.002      2.713
REMARK  Name = ZINC04098020
REMARK  11 active torsions:
REMARK  status: ('A' for Active; 'I' for Inactive)
REMARK    1  A    between atoms: C1_1  and  C2_2
REMARK    2  A    between atoms: C4_4  and  O4_30
REMARK    3  A    between atoms: C7_7  and  C8_8
REMARK    4  A    between atoms: C9_9  and  O2_23
REMARK    5  A    between atoms: C11_11  and  O1_21
REMARK    6  A    between atoms: C15_15  and  C18_20
REMARK    7  A    between atoms: C16_17  and  C17_19
REMARK    8  A    between atoms: O1_21  and  C19_22
REMARK    9  A    between atoms: C23_27  and  O3_28
REMARK   10  A    between atoms: O3_28  and  C24_29
REMARK   11  A    between atoms: O4_30  and  C25_31
REMARK                            x       y       z     vdW  Elec       q    Type
REMARK                         _______ _______ _______ _____ _____    ______ ____
ROOT
ATOM     16  C   UNL     1      46.309  18.940  19.269  0.00  0.00    -0.070 A 
ATOM     17  C   UNL     1      45.514  20.035  18.916  0.00  0.00    +0.192 A 
ATOM     20  C   UNL     1      44.169  20.038  19.245  0.00  0.00    -0.082 A 
ATOM     21  C   UNL     1      43.621  18.962  19.921  0.00  0.00    +0.176 A 
ATOM     24  C   UNL     1      44.410  17.869  20.276  0.00  0.00    -0.174 A 
ATOM     25  C   UNL     1      43.763  16.731  21.020  0.00  0.00    +0.244 C 
ATOM     26  N   UNL     1      44.591  15.519  20.931  0.00  0.00    -0.511 N 
ATOM     27  H   UNL     1      44.605  15.187  19.959  0.00  0.00    +0.433 HD
ATOM     28  H   UNL     1      44.196  14.789  21.535  0.00  0.00    +0.435 HD
ATOM     29  C   UNL     1      45.967  15.823  21.364  0.00  0.00    +0.171 C 
ATOM     30  C   UNL     1      46.749  14.518  21.534  0.00  0.00    +0.094 C 
ATOM     31  C   UNL     1      46.634  16.686  20.293  0.00  0.00    +0.136 C 
ATOM     32  C   UNL     1      43.577  17.127  22.487  0.00  0.00    +0.096 C 
ATOM     33  C   UNL     1      45.746  17.852  19.945  0.00  0.00    -0.023 A 
ENDROOT
BRANCH  16  15
ATOM      1  C   UNL     1      47.185  17.551  16.911  0.00  0.00    +0.095 C 
ATOM      2  C   UNL     1      48.183  18.261  17.789  0.00  0.00    +0.011 A 
ATOM      3  C   UNL     1      49.531  18.240  17.452  0.00  0.00    -0.111 A 
ATOM      4  C   UNL     1      50.467  18.881  18.235  0.00  0.00    +0.191 A 
ATOM      7  C   UNL     1      50.057  19.569  19.395  0.00  0.00    -0.106 A 
ATOM      8  C   UNL     1      48.686  19.593  19.745  0.00  0.00    +0.046 A 
ATOM      9  C   UNL     1      48.279  20.277  20.899  0.00  0.00    -0.061 A 
ATOM     10  C   UNL     1      49.203  20.911  21.676  0.00  0.00    +0.083 A 
ATOM     11  C   UNL     1      50.553  20.890  21.345  0.00  0.00    -0.114 A 
ATOM     12  C   UNL     1      50.991  20.233  20.216  0.00  0.00    +0.182 A 
ATOM     15  C   UNL     1      47.748  18.927  18.921  0.00  0.00    -0.116 A 
BRANCH   4   5
ATOM      5  O   UNL     1      51.780  18.851  17.890  0.00  0.00    -0.287 OA
ATOM      6  C   UNL     1      52.112  19.279  16.568  0.00  0.00    +0.247 C 
ENDBRANCH   4   5
BRANCH  12  13
ATOM     13  O   UNL     1      52.311  20.221  19.898  0.00  0.00    -0.289 OA
ATOM     14  C   UNL     1      52.902  21.472  19.540  0.00  0.00    +0.247 C 
ENDBRANCH  12  13
ENDBRANCH  16  15
BRANCH  17  18
ATOM     18  O   UNL     1      46.059  21.089  18.254  0.00  0.00    -0.484 OA
ATOM     19  H   UNL     1      46.854  20.869  17.751  0.00  0.00    +0.403 HD
ENDBRANCH  17  18
BRANCH  21  22
ATOM     22  O   UNL     1      42.301  18.970  20.241  0.00  0.00    -0.314 OA
ATOM     23  C   UNL     1      41.400  19.496  19.265  0.00  0.00    +0.263 C 
ENDBRANCH  21  22
TORSDOF 5
ENDMDL
MODEL 5
REMARK VINA RESULT:      -5.5      3.545      5.562
REMARK  Name = ZINC04098020
REMARK  11 active torsions:
REMARK  status: ('A' for Active; 'I' for Inactive)
REMARK    1  A    between atoms: C1_1  and  C2_2
REMARK    2  A    between atoms: C4_4  and  O4_30
REMARK    3  A    between atoms: C7_7  and  C8_8
REMARK    4  A    between atoms: C9_9  and  O2_23
REMARK    5  A    between atoms: C11_11  and  O1_21
REMARK    6  A    between atoms: C15_15  and  C18_20
REMARK    7  A    between atoms: C16_17  and  C17_19
REMARK    8  A    between atoms: O1_21  and  C19_22
REMARK    9  A    between atoms: C23_27  and  O3_28
REMARK   10  A    between atoms: O3_28  and  C24_29
REMARK   11  A    between atoms: O4_30  and  C25_31
REMARK                            x       y       z     vdW  Elec       q    Type
REMARK                         _______ _______ _______ _____ _____    ______ ____
ROOT
ATOM     16  C   UNL     1      48.145  15.974  17.923  0.00  0.00    -0.070 A 
ATOM     17  C   UNL     1      47.152  15.905  16.941  0.00  0.00    +0.192 A 
ATOM     20  C   UNL     1      46.882  14.696  16.325  0.00  0.00    -0.082 A 
ATOM     21  C   UNL     1      47.593  13.564  16.685  0.00  0.00    +0.176 A 
ATOM     24  C   UNL     1      48.582  13.627  17.664  0.00  0.00    -0.174 A 
ATOM     25  C   UNL     1      49.316  12.362  18.023  0.00  0.00    +0.244 C 
ATOM     26  N   UNL     1      50.573  12.675  18.721  0.00  0.00    -0.511 N 
ATOM     27  H   UNL     1      51.215  13.143  18.071  0.00  0.00    +0.433 HD
ATOM     28  H   UNL     1      51.002  11.806  19.058  0.00  0.00    +0.435 HD
ATOM     29  C   UNL     1      50.300  13.564  19.864  0.00  0.00    +0.171 C 
ATOM     30  C   UNL     1      51.549  13.664  20.743  0.00  0.00    +0.094 C 
ATOM     31  C   UNL     1      49.936  14.948  19.328  0.00  0.00    +0.136 C 
ATOM     32  C   UNL     1      48.425  11.498  18.920  0.00  0.00    +0.096 C 
ATOM     33  C   UNL     1      48.865  14.827  18.276  0.00  0.00    -0.023 A 
ENDROOT
BRANCH  16  15
ATOM      1  C   UNL     1      46.645  16.751  20.248  0.00  0.00    +0.095 C 
ATOM      2  C   UNL     1      47.726  17.651  19.706  0.00  0.00    +0.011 A 
ATOM      3  C   UNL     1      47.994  18.859  20.337  0.00  0.00    -0.111 A 
ATOM      4  C   UNL     1      48.977  19.702  19.866  0.00  0.00    +0.191 A 
ATOM      7  C   UNL     1      49.725  19.339  18.727  0.00  0.00    -0.106 A 
ATOM      8  C   UNL     1      49.457  18.110  18.079  0.00  0.00    +0.046 A 
ATOM      9  C   UNL     1      50.200  17.750  16.947  0.00  0.00    -0.061 A 
ATOM     10  C   UNL     1      51.173  18.582  16.477  0.00  0.00    +0.083 A 
ATOM     11  C   UNL     1      51.442  19.794  17.104  0.00  0.00    -0.114 A 
ATOM     12  C   UNL     1      50.736  20.180  18.222  0.00  0.00    +0.182 A 
ATOM     15  C   UNL     1      48.442  17.264  18.587  0.00  0.00    -0.116 A 
BRANCH   4   5
ATOM      5  O   UNL     1      49.225  20.879  20.496  0.00  0.00    -0.287 OA
ATOM      6  C   UNL     1      49.317  20.844  21.921  0.00  0.00    +0.247 C 
ENDBRANCH   4   5
BRANCH  12  13
ATOM     13  O   UNL     1      51.008  21.364  18.829  0.00  0.00    -0.289 OA
ATOM     14  C   UNL     1      52.282  21.488  19.465  0.00  0.00    +0.247 C 
ENDBRANCH  12  13
ENDBRANCH  16  15
BRANCH  17  18
ATOM     18  O   UNL     1      46.458  17.020  16.594  0.00  0.00    -0.484 OA
ATOM     19  H   UNL     1      46.942  17.622  16.012  0.00  0.00    +0.403 HD
ENDBRANCH  17  18
BRANCH  21  22
ATOM     22  O   UNL     1      47.324  12.379  16.077  0.00  0.00    -0.314 OA
ATOM     23  C   UNL     1      47.717  12.247  14.709  0.00  0.00    +0.263 C 
ENDBRANCH  21  22
TORSDOF 5
ENDMDL
MODEL 6
REMARK VINA RESULT:      -5.4      4.901      8.532
REMARK  Name = ZINC04098020
REMARK  11 active torsions:
REMARK  status: ('A' for Active; 'I' for Inactive)
REMARK    1  A    between atoms: C1_1  and  C2_2
REMARK    2  A    between atoms: C4_4  and  O4_30
REMARK    3  A    between atoms: C7_7  and  C8_8
REMARK    4  A    between atoms: C9_9  and  O2_23
REMARK    5  A    between atoms: C11_11  and  O1_21
REMARK    6  A    between atoms: C15_15  and  C18_20
REMARK    7  A    between atoms: C16_17  and  C17_19
REMARK    8  A    between atoms: O1_21  and  C19_22
REMARK    9  A    between atoms: C23_27  and  O3_28
REMARK   10  A    between atoms: O3_28  and  C24_29
REMARK   11  A    between atoms: O4_30  and  C25_31
REMARK                            x       y       z     vdW  Elec       q    Type
REMARK                         _______ _______ _______ _____ _____    ______ ____
ROOT
ATOM     16  C   UNL     1      48.778  13.388  16.678  0.00  0.00    -0.070 A 
ATOM     17  C   UNL     1      48.510  13.200  15.319  0.00  0.00    +0.192 A 
ATOM     20  C   UNL     1      49.446  12.568  14.519  0.00  0.00    -0.082 A 
ATOM     21  C   UNL     1      50.637  12.124  15.067  0.00  0.00    +0.176 A 
ATOM     24  C   UNL     1      50.907  12.307  16.422  0.00  0.00    -0.174 A 
ATOM     25  C   UNL     1      52.214  11.795  16.967  0.00  0.00    +0.244 C 
ATOM     26  N   UNL     1      52.522  12.433  18.255  0.00  0.00    -0.511 N 
ATOM     27  H   UNL     1      52.706  13.432  18.104  0.00  0.00    +0.433 HD
ATOM     28  H   UNL     1      53.352  11.991  18.666  0.00  0.00    +0.435 HD
ATOM     29  C   UNL     1      51.380  12.279  19.173  0.00  0.00    +0.171 C 
ATOM     30  C   UNL     1      51.799  12.693  20.585  0.00  0.00    +0.094 C 
ATOM     31  C   UNL     1      50.242  13.179  18.690  0.00  0.00    +0.136 C 
ATOM     32  C   UNL     1      52.125  10.277  17.147  0.00  0.00    +0.096 C 
ATOM     33  C   UNL     1      49.987  12.943  17.224  0.00  0.00    -0.023 A 
ENDROOT
BRANCH  16  15
ATOM      1  C   UNL     1      46.678  11.851  17.897  0.00  0.00    +0.095 C 
ATOM      2  C   UNL     1      46.766  13.336  18.134  0.00  0.00    +0.011 A 
ATOM      3  C   UNL     1      45.827  13.959  18.945  0.00  0.00    -0.111 A 
ATOM      4  C   UNL     1      45.883  15.316  19.182  0.00  0.00    +0.191 A 
ATOM      7  C   UNL     1      46.906  16.088  18.594  0.00  0.00    -0.106 A 
ATOM      8  C   UNL     1      47.866  15.460  17.766  0.00  0.00    +0.046 A 
ATOM      9  C   UNL     1      48.883  16.228  17.181  0.00  0.00    -0.061 A 
ATOM     10  C   UNL     1      48.940  17.570  17.413  0.00  0.00    +0.083 A 
ATOM     11  C   UNL     1      47.999  18.198  18.221  0.00  0.00    -0.114 A 
ATOM     12  C   UNL     1      46.989  17.477  18.817  0.00  0.00    +0.182 A 
ATOM     15  C   UNL     1      47.783  14.064  17.543  0.00  0.00    -0.116 A 
BRANCH   4   5
ATOM      5  O   UNL     1      44.956  15.908  19.978  0.00  0.00    -0.287 OA
ATOM      6  C   UNL     1      44.848  15.423  21.318  0.00  0.00    +0.247 C 
ENDBRANCH   4   5
BRANCH  12  13
ATOM     13  O   UNL     1      46.077  18.098  19.608  0.00  0.00    -0.289 OA
ATOM     14  C   UNL     1      45.344  19.179  19.027  0.00  0.00    +0.247 C 
ENDBRANCH  12  13
ENDBRANCH  16  15
BRANCH  17  18
ATOM     18  O   UNL     1      47.338  13.637  14.788  0.00  0.00    -0.484 OA
ATOM     19  H   UNL     1      47.218  13.407  13.857  0.00  0.00    +0.403 HD
ENDBRANCH  17  18
BRANCH  21  22
ATOM     22  O   UNL     1      51.551  11.504  14.277  0.00  0.00    -0.314 OA
ATOM     23  C   UNL     1      51.098  10.381  13.518  0.00  0.00    +0.263 C 
ENDBRANCH  21  22
TORSDOF 5
ENDMDL
MODEL 7
REMARK VINA RESULT:      -5.3      4.592      8.594
REMARK  Name = ZINC04098020
REMARK  11 active torsions:
REMARK  status: ('A' for Active; 'I' for Inactive)
REMARK    1  A    between atoms: C1_1  and  C2_2
REMARK    2  A    between atoms: C4_4  and  O4_30
REMARK    3  A    between atoms: C7_7  and  C8_8
REMARK    4  A    between atoms: C9_9  and  O2_23
REMARK    5  A    between atoms: C11_11  and  O1_21
REMARK    6  A    between atoms: C15_15  and  C18_20
REMARK    7  A    between atoms: C16_17  and  C17_19
REMARK    8  A    between atoms: O1_21  and  C19_22
REMARK    9  A    between atoms: C23_27  and  O3_28
REMARK   10  A    between atoms: O3_28  and  C24_29
REMARK   11  A    between atoms: O4_30  and  C25_31
REMARK                            x       y       z     vdW  Elec       q    Type
REMARK                         _______ _______ _______ _____ _____    ______ ____
ROOT
ATOM     16  C   UNL     1      49.227  13.729  17.564  0.00  0.00    -0.070 A 
ATOM     17  C   UNL     1      50.494  14.315  17.642  0.00  0.00    +0.192 A 
ATOM     20  C   UNL     1      51.429  14.055  16.656  0.00  0.00    -0.082 A 
ATOM     21  C   UNL     1      51.105  13.222  15.599  0.00  0.00    +0.176 A 
ATOM     24  C   UNL     1      49.843  12.637  15.516  0.00  0.00    -0.174 A 
ATOM     25  C   UNL     1      49.542  11.748  14.339  0.00  0.00    +0.244 C 
ATOM     26  N   UNL     1      48.376  10.896  14.620  0.00  0.00    -0.511 N 
ATOM     27  H   UNL     1      48.614  10.229  15.365  0.00  0.00    +0.433 HD
ATOM     28  H   UNL     1      48.116  10.382  13.771  0.00  0.00    +0.435 HD
ATOM     29  C   UNL     1      47.243  11.731  15.055  0.00  0.00    +0.171 C 
ATOM     30  C   UNL     1      45.966  10.888  15.080  0.00  0.00    +0.094 C 
ATOM     31  C   UNL     1      47.538  12.259  16.459  0.00  0.00    +0.136 C 
ATOM     32  C   UNL     1      49.267  12.615  13.108  0.00  0.00    +0.096 C 
ATOM     33  C   UNL     1      48.909  12.881  16.497  0.00  0.00    -0.023 A 
ENDROOT
BRANCH  16  15
ATOM      1  C   UNL     1      49.018  11.959  19.819  0.00  0.00    +0.095 C 
ATOM      2  C   UNL     1      48.108  13.155  19.706  0.00  0.00    +0.011 A 
ATOM      3  C   UNL     1      47.167  13.397  20.698  0.00  0.00    -0.111 A 
ATOM      4  C   UNL     1      46.321  14.483  20.623  0.00  0.00    +0.191 A 
ATOM      7  C   UNL     1      46.409  15.364  19.525  0.00  0.00    -0.106 A 
ATOM      8  C   UNL     1      47.364  15.123  18.511  0.00  0.00    +0.046 A 
ATOM      9  C   UNL     1      47.450  15.998  17.419  0.00  0.00    -0.061 A 
ATOM     10  C   UNL     1      46.614  17.073  17.341  0.00  0.00    +0.083 A 
ATOM     11  C   UNL     1      45.668  17.317  18.331  0.00  0.00    -0.114 A 
ATOM     12  C   UNL     1      45.557  16.482  19.420  0.00  0.00    +0.182 A 
ATOM     15  C   UNL     1      48.220  14.000  18.616  0.00  0.00    -0.116 A 
BRANCH   4   5
ATOM      5  O   UNL     1      45.407  14.705  21.602  0.00  0.00    -0.287 OA
ATOM      6  C   UNL     1      45.076  13.597  22.442  0.00  0.00    +0.247 C 
ENDBRANCH   4   5
BRANCH  12  13
ATOM     13  O   UNL     1      44.633  16.731  20.383  0.00  0.00    -0.289 OA
ATOM     14  C   UNL     1      44.066  18.043  20.414  0.00  0.00    +0.247 C 
ENDBRANCH  12  13
ENDBRANCH  16  15
BRANCH  17  18
ATOM     18  O   UNL     1      50.805  15.133  18.682  0.00  0.00    -0.484 OA
ATOM     19  H   UNL     1      51.330  14.709  19.373  0.00  0.00    +0.403 HD
ENDBRANCH  17  18
BRANCH  21  22
ATOM     22  O   UNL     1      52.027  12.971  14.633  0.00  0.00    -0.314 OA
ATOM     23  C   UNL     1      52.471  14.084  13.854  0.00  0.00    +0.263 C 
ENDBRANCH  21  22
TORSDOF 5
ENDMDL
MODEL 8
REMARK VINA RESULT:      -5.2      3.174      5.135
REMARK  Name = ZINC04098020
REMARK  11 active torsions:
REMARK  status: ('A' for Active; 'I' for Inactive)
REMARK    1  A    between atoms: C1_1  and  C2_2
REMARK    2  A    between atoms: C4_4  and  O4_30
REMARK    3  A    between atoms: C7_7  and  C8_8
REMARK    4  A    between atoms: C9_9  and  O2_23
REMARK    5  A    between atoms: C11_11  and  O1_21
REMARK    6  A    between atoms: C15_15  and  C18_20
REMARK    7  A    between atoms: C16_17  and  C17_19
REMARK    8  A    between atoms: O1_21  and  C19_22
REMARK    9  A    between atoms: C23_27  and  O3_28
REMARK   10  A    between atoms: O3_28  and  C24_29
REMARK   11  A    between atoms: O4_30  and  C25_31
REMARK                            x       y       z     vdW  Elec       q    Type
REMARK                         _______ _______ _______ _____ _____    ______ ____
ROOT
ATOM     16  C   UNL     1      46.587  17.030  19.400  0.00  0.00    -0.070 A 
ATOM     17  C   UNL     1      45.319  16.559  19.755  0.00  0.00    +0.192 A 
ATOM     20  C   UNL     1      44.374  17.441  20.247  0.00  0.00    -0.082 A 
ATOM     21  C   UNL     1      44.686  18.783  20.383  0.00  0.00    +0.176 A 
ATOM     24  C   UNL     1      45.948  19.258  20.029  0.00  0.00    -0.174 A 
ATOM     25  C   UNL     1      46.229  20.729  20.188  0.00  0.00    +0.244 C 
ATOM     26  N   UNL     1      47.679  20.980  20.192  0.00  0.00    -0.511 N 
ATOM     27  H   UNL     1      48.093  20.568  21.037  0.00  0.00    +0.433 HD
ATOM     28  H   UNL     1      47.850  21.991  20.185  0.00  0.00    +0.435 HD
ATOM     29  C   UNL     1      48.292  20.370  18.999  0.00  0.00    +0.171 C 
ATOM     30  C   UNL     1      49.735  20.861  18.859  0.00  0.00    +0.094 C 
ATOM     31  C   UNL     1      48.280  18.851  19.169  0.00  0.00    +0.136 C 
ATOM     32  C   UNL     1      45.572  21.496  19.038  0.00  0.00    +0.096 C 
ATOM     33  C   UNL     1      46.898  18.387  19.548  0.00  0.00    -0.023 A 
ENDROOT
BRANCH  16  15
ATOM      1  C   UNL     1      46.730  16.533  16.574  0.00  0.00    +0.095 C 
ATOM      2  C   UNL     1      47.684  15.844  17.515  0.00  0.00    +0.011 A 
ATOM      3  C   UNL     1      48.634  14.965  17.009  0.00  0.00    -0.111 A 
ATOM      4  C   UNL     1      49.520  14.321  17.845  0.00  0.00    +0.191 A 
ATOM      7  C   UNL     1      49.467  14.553  19.235  0.00  0.00    -0.106 A 
ATOM      8  C   UNL     1      48.502  15.445  19.757  0.00  0.00    +0.046 A 
ATOM      9  C   UNL     1      48.448  15.674  21.139  0.00  0.00    -0.061 A 
ATOM     10  C   UNL     1      49.323  15.037  21.969  0.00  0.00    +0.083 A 
ATOM     11  C   UNL     1      50.273  14.155  21.466  0.00  0.00    -0.114 A 
ATOM     12  C   UNL     1      50.359  13.908  20.114  0.00  0.00    +0.182 A 
ATOM     15  C   UNL     1      47.605  16.093  18.874  0.00  0.00    -0.116 A 
BRANCH   4   5
ATOM      5  O   UNL     1      50.442  13.467  17.332  0.00  0.00    -0.287 OA
ATOM      6  C   UNL     1      50.841  13.681  15.977  0.00  0.00    +0.247 C 
ENDBRANCH   4   5
BRANCH  12  13
ATOM     13  O   UNL     1      51.293  13.048  19.633  0.00  0.00    -0.289 OA
ATOM     14  C   UNL     1      51.466  11.817  20.339  0.00  0.00    +0.247 C 
ENDBRANCH  12  13
ENDBRANCH  16  15
BRANCH  17  18
ATOM     18  O   UNL     1      45.019  15.241  19.617  0.00  0.00    -0.484 OA
ATOM     19  H   UNL     1      45.745  14.705  19.270  0.00  0.00    +0.403 HD
ENDBRANCH  17  18
BRANCH  21  22
ATOM     22  O   UNL     1      43.755  19.645  20.867  0.00  0.00    -0.314 OA
ATOM     23  C   UNL     1      42.475  19.641  20.231  0.00  0.00    +0.263 C 
ENDBRANCH  21  22
TORSDOF 5
ENDMDL
MODEL 9
REMARK VINA RESULT:      -5.2      2.736      5.330
REMARK  Name = ZINC04098020
REMARK  11 active torsions:
REMARK  status: ('A' for Active; 'I' for Inactive)
REMARK    1  A    between atoms: C1_1  and  C2_2
REMARK    2  A    between atoms: C4_4  and  O4_30
REMARK    3  A    between atoms: C7_7  and  C8_8
REMARK    4  A    between atoms: C9_9  and  O2_23
REMARK    5  A    between atoms: C11_11  and  O1_21
REMARK    6  A    between atoms: C15_15  and  C18_20
REMARK    7  A    between atoms: C16_17  and  C17_19
REMARK    8  A    between atoms: O1_21  and  C19_22
REMARK    9  A    between atoms: C23_27  and  O3_28
REMARK   10  A    between atoms: O3_28  and  C24_29
REMARK   11  A    between atoms: O4_30  and  C25_31
REMARK                            x       y       z     vdW  Elec       q    Type
REMARK                         _______ _______ _______ _____ _____    ______ ____
ROOT
ATOM     16  C   UNL     1      47.876  16.772  18.844  0.00  0.00    -0.070 A 
ATOM     17  C   UNL     1      48.496  16.638  17.598  0.00  0.00    +0.192 A 
ATOM     20  C   UNL     1      48.458  15.419  16.943  0.00  0.00    -0.082 A 
ATOM     21  C   UNL     1      47.806  14.344  17.522  0.00  0.00    +0.176 A 
ATOM     24  C   UNL     1      47.185  14.474  18.763  0.00  0.00    -0.174 A 
ATOM     25  C   UNL     1      46.481  13.274  19.341  0.00  0.00    +0.244 C 
ATOM     26  N   UNL     1      46.273  13.446  20.787  0.00  0.00    -0.511 N 
ATOM     27  H   UNL     1      47.181  13.438  21.265  0.00  0.00    +0.433 HD
ATOM     28  H   UNL     1      45.693  12.676  21.142  0.00  0.00    +0.435 HD
ATOM     29  C   UNL     1      45.595  14.729  21.043  0.00  0.00    +0.171 C 
ATOM     30  C   UNL     1      45.133  14.780  22.501  0.00  0.00    +0.094 C 
ATOM     31  C   UNL     1      46.584  15.863  20.777  0.00  0.00    +0.136 C 
ATOM     32  C   UNL     1      45.133  13.093  18.638  0.00  0.00    +0.096 C 
ATOM     33  C   UNL     1      47.226  15.679  19.427  0.00  0.00    -0.023 A 
ENDROOT
BRANCH  16  15
ATOM      1  C   UNL     1      50.085  17.381  20.579  0.00  0.00    +0.095 C 
ATOM      2  C   UNL     1      48.970  18.377  20.391  0.00  0.00    +0.011 A 
ATOM      3  C   UNL     1      49.015  19.593  21.063  0.00  0.00    -0.111 A 
ATOM      4  C   UNL     1      48.011  20.524  20.911  0.00  0.00    +0.191 A 
ATOM      7  C   UNL     1      46.919  20.245  20.063  0.00  0.00    -0.106 A 
ATOM      8  C   UNL     1      46.866  19.009  19.377  0.00  0.00    +0.046 A 
ATOM      9  C   UNL     1      45.780  18.731  18.535  0.00  0.00    -0.061 A 
ATOM     10  C   UNL     1      44.784  19.650  18.383  0.00  0.00    +0.083 A 
ATOM     11  C   UNL     1      44.824  20.867  19.056  0.00  0.00    -0.114 A 
ATOM     12  C   UNL     1      45.876  21.177  19.888  0.00  0.00    +0.182 A 
ATOM     15  C   UNL     1      47.913  18.072  19.552  0.00  0.00    -0.116 A 
BRANCH   4   5
ATOM      5  O   UNL     1      48.071  21.706  21.575  0.00  0.00    -0.287 OA
ATOM      6  C   UNL     1      49.146  21.874  22.502  0.00  0.00    +0.247 C 
ENDBRANCH   4   5
BRANCH  12  13
ATOM     13  O   UNL     1      45.908  22.369  20.538  0.00  0.00    -0.289 OA
ATOM     14  C   UNL     1      44.717  22.768  21.219  0.00  0.00    +0.247 C 
ENDBRANCH  12  13
ENDBRANCH  16  15
BRANCH  17  18
ATOM     18  O   UNL     1      49.133  17.697  17.034  0.00  0.00    -0.484 OA
ATOM     19  H   UNL     1      48.785  17.951  16.168  0.00  0.00    +0.403 HD
ENDBRANCH  17  18
BRANCH  21  22
ATOM     22  O   UNL     1      47.771  13.150  16.875  0.00  0.00    -0.314 OA
ATOM     23  C   UNL     1      48.254  13.126  15.531  0.00  0.00    +0.263 C 
ENDBRANCH  21  22
TORSDOF 5
ENDMDL
