MODEL 1
REMARK VINA RESULT:      -7.1      0.000      0.000
REMARK  Name = ZINC95485960
REMARK  10 active torsions:
REMARK  status: ('A' for Active; 'I' for Inactive)
REMARK    1  A    between atoms: C1_1  and  C2_2
REMARK    2  A    between atoms: C2_2  and  C4_4
REMARK    3  A    between atoms: C7_8  and  C31_37
REMARK    4  A    between atoms: C8_9  and  C30_36
REMARK    5  A    between atoms: C13_16  and  C29_35
REMARK    6  A    between atoms: C16_19  and  O1_34
REMARK    7  A    between atoms: C17_21  and  C27_32
REMARK    8  A    between atoms: C17_21  and  C28_33
REMARK    9  A    between atoms: C21_26  and  C26_31
REMARK   10  A    between atoms: C22_27  and  C25_30
REMARK                            x       y       z     vdW  Elec       q    Type
REMARK                         _______ _______ _______ _____ _____    ______ ____
ROOT
ATOM      3  C   UNL     1      44.452  21.128  21.034  0.00  0.00    +0.019 C 
ATOM      4  C   UNL     1      44.328  20.689  22.505  0.00  0.00    +0.011 C 
ATOM      5  C   UNL     1      44.354  19.148  22.498  0.00  0.00    +0.004 C 
ATOM      6  C   UNL     1      43.915  18.786  21.066  0.00  0.00    -0.117 C 
ATOM     10  C   UNL     1      44.288  17.362  20.729  0.00  0.00    +0.024 C 
ATOM     11  C   UNL     1      45.809  17.202  20.717  0.00  0.00    +0.001 C 
ATOM     12  C   UNL     1      46.382  18.083  19.602  0.00  0.00    -0.030 C 
ATOM     13  C   UNL     1      45.845  17.577  18.259  0.00  0.00    +0.015 C 
ATOM     14  C   UNL     1      47.918  17.917  19.581  0.00  0.00    -0.029 C 
ATOM     15  C   UNL     1      48.160  16.458  19.142  0.00  0.00    +0.012 C 
ATOM     16  C   UNL     1      48.449  18.093  20.999  0.00  0.00    +0.014 C 
ATOM     17  C   UNL     1      49.957  17.919  21.047  0.00  0.00    +0.003 C 
ATOM     18  C   UNL     1      50.705  18.850  20.101  0.00  0.00    +0.004 C 
ATOM     19  C   UNL     1      51.155  20.117  20.794  0.00  0.00    -0.033 C 
ATOM     20  C   UNL     1      52.319  19.750  21.749  0.00  0.00    +0.018 C 
ATOM     21  C   UNL     1      50.058  20.749  21.653  0.00  0.00    +0.030 C 
ATOM     22  C   UNL     1      51.704  21.170  19.833  0.00  0.00    +0.165 C 
ATOM     25  C   UNL     1      50.726  21.383  18.681  0.00  0.00    -0.019 C 
ATOM     26  C   UNL     1      50.621  20.098  17.880  0.00  0.00    +0.018 C 
ATOM     27  C   UNL     1      50.121  18.913  18.719  0.00  0.00    -0.024 C 
ATOM     28  C   UNL     1      50.677  17.681  17.940  0.00  0.00    +0.001 C 
ATOM     29  C   UNL     1      48.594  18.873  18.624  0.00  0.00    +0.008 C 
ATOM     30  C   UNL     1      48.075  20.308  18.743  0.00  0.00    +0.001 C 
ATOM     31  C   UNL     1      46.544  20.340  18.656  0.00  0.00    -0.001 C 
ATOM     32  C   UNL     1      46.026  19.542  19.858  0.00  0.00    +0.021 C 
ATOM     33  C   UNL     1      44.579  19.849  20.168  0.00  0.00    +0.003 C 
ATOM     34  C   UNL     1      43.741  20.027  18.883  0.00  0.00    +0.020 C 
ENDROOT
BRANCH   3   2
ATOM      1  C   UNL     1      46.801  21.969  21.773  0.00  0.00    +0.067 C 
ATOM      2  C   UNL     1      45.580  22.105  20.902  0.00  0.00    -0.084 C 
ATOM     35  C   UNL     1      45.504  23.078  20.029  0.00  0.00    -0.039 C 
ENDBRANCH   3   2
BRANCH   6   7
ATOM      7  C   UNL     1      42.417  18.930  20.964  0.00  0.00    +0.507 C 
ATOM      8  O   UNL     1      41.744  19.041  21.976  0.00  0.00    -0.701 OA
ATOM      9  O   UNL     1      41.877  18.934  19.871  0.00  0.00    -0.698 OA
ENDBRANCH   6   7
BRANCH  22  23
ATOM     23  O   UNL     1      52.968  20.742  19.323  0.00  0.00    -0.561 OA
ATOM     24  H   UNL     1      53.708  20.892  19.928  0.00  0.00    +0.370 HD
ENDBRANCH  22  23
TORSDOF 3
ENDMDL
MODEL 2
REMARK VINA RESULT:      -6.8      1.671      6.916
REMARK  Name = ZINC95485960
REMARK  10 active torsions:
REMARK  status: ('A' for Active; 'I' for Inactive)
REMARK    1  A    between atoms: C1_1  and  C2_2
REMARK    2  A    between atoms: C2_2  and  C4_4
REMARK    3  A    between atoms: C7_8  and  C31_37
REMARK    4  A    between atoms: C8_9  and  C30_36
REMARK    5  A    between atoms: C13_16  and  C29_35
REMARK    6  A    between atoms: C16_19  and  O1_34
REMARK    7  A    between atoms: C17_21  and  C27_32
REMARK    8  A    between atoms: C17_21  and  C28_33
REMARK    9  A    between atoms: C21_26  and  C26_31
REMARK   10  A    between atoms: C22_27  and  C25_30
REMARK                            x       y       z     vdW  Elec       q    Type
REMARK                         _______ _______ _______ _____ _____    ______ ____
ROOT
ATOM      3  C   UNL     1      48.680  16.149  18.251  0.00  0.00    +0.019 C 
ATOM      4  C   UNL     1      49.037  15.296  19.482  0.00  0.00    +0.011 C 
ATOM      5  C   UNL     1      49.752  16.240  20.468  0.00  0.00    +0.004 C 
ATOM      6  C   UNL     1      50.274  17.376  19.567  0.00  0.00    -0.117 C 
ATOM     10  C   UNL     1      50.619  18.599  20.382  0.00  0.00    +0.024 C 
ATOM     11  C   UNL     1      49.362  19.172  21.035  0.00  0.00    +0.001 C 
ATOM     12  C   UNL     1      48.407  19.637  19.929  0.00  0.00    -0.030 C 
ATOM     13  C   UNL     1      49.086  20.764  19.143  0.00  0.00    +0.015 C 
ATOM     14  C   UNL     1      47.138  20.225  20.585  0.00  0.00    -0.029 C 
ATOM     15  C   UNL     1      47.614  21.504  21.305  0.00  0.00    +0.012 C 
ATOM     16  C   UNL     1      46.626  19.240  21.629  0.00  0.00    +0.014 C 
ATOM     17  C   UNL     1      45.387  19.775  22.327  0.00  0.00    +0.003 C 
ATOM     18  C   UNL     1      44.259  20.138  21.368  0.00  0.00    +0.004 C 
ATOM     19  C   UNL     1      43.276  19.002  21.197  0.00  0.00    -0.033 C 
ATOM     20  C   UNL     1      42.455  18.880  22.505  0.00  0.00    +0.018 C 
ATOM     21  C   UNL     1      43.959  17.651  20.973  0.00  0.00    +0.030 C 
ATOM     22  C   UNL     1      42.265  19.240  20.077  0.00  0.00    +0.165 C 
ATOM     25  C   UNL     1      42.991  19.657  18.801  0.00  0.00    -0.019 C 
ATOM     26  C   UNL     1      43.678  20.990  19.037  0.00  0.00    +0.018 C 
ATOM     27  C   UNL     1      44.706  20.935  20.177  0.00  0.00    -0.024 C 
ATOM     28  C   UNL     1      44.788  22.423  20.637  0.00  0.00    +0.001 C 
ATOM     29  C   UNL     1      46.062  20.559  19.576  0.00  0.00    +0.008 C 
ATOM     30  C   UNL     1      45.834  19.445  18.552  0.00  0.00    +0.001 C 
ATOM     31  C   UNL     1      47.160  19.017  17.910  0.00  0.00    -0.001 C 
ATOM     32  C   UNL     1      48.028  18.457  19.043  0.00  0.00    +0.021 C 
ATOM     33  C   UNL     1      49.159  17.598  18.525  0.00  0.00    +0.003 C 
ATOM     34  C   UNL     1      49.775  18.176  17.233  0.00  0.00    +0.020 C 
ENDROOT
BRANCH   3   2
ATOM      1  C   UNL     1      46.243  15.753  19.074  0.00  0.00    +0.067 C 
ATOM      2  C   UNL     1      47.219  16.003  17.954  0.00  0.00    -0.084 C 
ATOM     35  C   UNL     1      46.789  16.094  16.720  0.00  0.00    -0.039 C 
ENDBRANCH   3   2
BRANCH   6   7
ATOM      7  C   UNL     1      51.517  16.902  18.855  0.00  0.00    +0.507 C 
ATOM      8  O   UNL     1      51.704  15.709  18.684  0.00  0.00    -0.701 OA
ATOM      9  O   UNL     1      52.334  17.711  18.451  0.00  0.00    -0.698 OA
ENDBRANCH   6   7
BRANCH  22  23
ATOM     23  O   UNL     1      41.348  20.263  20.469  0.00  0.00    -0.561 OA
ATOM     24  H   UNL     1      40.500  19.929  20.794  0.00  0.00    +0.370 HD
ENDBRANCH  22  23
TORSDOF 3
ENDMDL
MODEL 3
REMARK VINA RESULT:      -6.3      1.564      4.048
REMARK  Name = ZINC95485960
REMARK  10 active torsions:
REMARK  status: ('A' for Active; 'I' for Inactive)
REMARK    1  A    between atoms: C1_1  and  C2_2
REMARK    2  A    between atoms: C2_2  and  C4_4
REMARK    3  A    between atoms: C7_8  and  C31_37
REMARK    4  A    between atoms: C8_9  and  C30_36
REMARK    5  A    between atoms: C13_16  and  C29_35
REMARK    6  A    between atoms: C16_19  and  O1_34
REMARK    7  A    between atoms: C17_21  and  C27_32
REMARK    8  A    between atoms: C17_21  and  C28_33
REMARK    9  A    between atoms: C21_26  and  C26_31
REMARK   10  A    between atoms: C22_27  and  C25_30
REMARK                            x       y       z     vdW  Elec       q    Type
REMARK                         _______ _______ _______ _____ _____    ______ ____
ROOT
ATOM      3  C   UNL     1      44.823  17.937  19.459  0.00  0.00    +0.019 C 
ATOM      4  C   UNL     1      44.367  18.902  18.349  0.00  0.00    +0.011 C 
ATOM      5  C   UNL     1      44.748  20.317  18.825  0.00  0.00    +0.004 C 
ATOM      6  C   UNL     1      44.855  20.167  20.355  0.00  0.00    -0.117 C 
ATOM     10  C   UNL     1      45.629  21.313  20.960  0.00  0.00    +0.024 C 
ATOM     11  C   UNL     1      47.076  21.292  20.468  0.00  0.00    +0.001 C 
ATOM     12  C   UNL     1      47.741  20.004  20.965  0.00  0.00    -0.030 C 
ATOM     13  C   UNL     1      47.764  20.029  22.497  0.00  0.00    +0.015 C 
ATOM     14  C   UNL     1      49.207  19.983  20.478  0.00  0.00    -0.029 C 
ATOM     15  C   UNL     1      49.898  21.139  21.231  0.00  0.00    +0.012 C 
ATOM     16  C   UNL     1      49.230  20.290  18.985  0.00  0.00    +0.014 C 
ATOM     17  C   UNL     1      50.653  20.306  18.450  0.00  0.00    +0.003 C 
ATOM     18  C   UNL     1      51.416  19.015  18.720  0.00  0.00    +0.004 C 
ATOM     19  C   UNL     1      51.333  18.056  17.554  0.00  0.00    -0.033 C 
ATOM     20  C   UNL     1      52.207  18.623  16.407  0.00  0.00    +0.018 C 
ATOM     21  C   UNL     1      49.914  17.911  17.000  0.00  0.00    +0.030 C 
ATOM     22  C   UNL     1      51.888  16.668  17.870  0.00  0.00    +0.165 C 
ATOM     25  C   UNL     1      51.280  16.149  19.170  0.00  0.00    -0.019 C 
ATOM     26  C   UNL     1      51.719  17.047  20.312  0.00  0.00    +0.018 C 
ATOM     27  C   UNL     1      51.276  18.506  20.126  0.00  0.00    -0.024 C 
ATOM     28  C   UNL     1      52.308  19.292  20.992  0.00  0.00    +0.001 C 
ATOM     29  C   UNL     1      49.901  18.672  20.775  0.00  0.00    +0.008 C 
ATOM     30  C   UNL     1      49.055  17.450  20.413  0.00  0.00    +0.001 C 
ATOM     31  C   UNL     1      47.656  17.553  21.034  0.00  0.00    -0.001 C 
ATOM     32  C   UNL     1      46.999  18.792  20.415  0.00  0.00    +0.021 C 
ATOM     33  C   UNL     1      45.495  18.780  20.572  0.00  0.00    +0.003 C 
ATOM     34  C   UNL     1      45.065  18.229  21.949  0.00  0.00    +0.020 C 
ENDROOT
BRANCH   3   2
ATOM      1  C   UNL     1      46.512  17.158  17.638  0.00  0.00    +0.067 C 
ATOM      2  C   UNL     1      45.683  16.865  18.861  0.00  0.00    -0.084 C 
ATOM     35  C   UNL     1      45.714  15.672  19.402  0.00  0.00    -0.039 C 
ENDBRANCH   3   2
BRANCH   6   7
ATOM      7  C   UNL     1      43.466  20.157  20.944  0.00  0.00    +0.507 C 
ATOM      8  O   UNL     1      42.494  20.274  20.215  0.00  0.00    -0.701 OA
ATOM      9  O   UNL     1      43.313  20.035  22.147  0.00  0.00    -0.698 OA
ENDBRANCH   6   7
BRANCH  22  23
ATOM     23  O   UNL     1      53.310  16.737  17.993  0.00  0.00    -0.561 OA
ATOM     24  H   UNL     1      53.765  16.975  17.173  0.00  0.00    +0.370 HD
ENDBRANCH  22  23
TORSDOF 3
ENDMDL
MODEL 4
REMARK VINA RESULT:      -6.3      2.219      6.872
REMARK  Name = ZINC95485960
REMARK  10 active torsions:
REMARK  status: ('A' for Active; 'I' for Inactive)
REMARK    1  A    between atoms: C1_1  and  C2_2
REMARK    2  A    between atoms: C2_2  and  C4_4
REMARK    3  A    between atoms: C7_8  and  C31_37
REMARK    4  A    between atoms: C8_9  and  C30_36
REMARK    5  A    between atoms: C13_16  and  C29_35
REMARK    6  A    between atoms: C16_19  and  O1_34
REMARK    7  A    between atoms: C17_21  and  C27_32
REMARK    8  A    between atoms: C17_21  and  C28_33
REMARK    9  A    between atoms: C21_26  and  C26_31
REMARK   10  A    between atoms: C22_27  and  C25_30
REMARK                            x       y       z     vdW  Elec       q    Type
REMARK                         _______ _______ _______ _____ _____    ______ ____
ROOT
ATOM      3  C   UNL     1      48.394  14.855  18.240  0.00  0.00    +0.019 C 
ATOM      4  C   UNL     1      48.498  13.948  19.481  0.00  0.00    +0.011 C 
ATOM      5  C   UNL     1      49.396  14.694  20.486  0.00  0.00    +0.004 C 
ATOM      6  C   UNL     1      50.204  15.662  19.600  0.00  0.00    -0.117 C 
ATOM     10  C   UNL     1      50.816  16.768  20.425  0.00  0.00    +0.024 C 
ATOM     11  C   UNL     1      49.720  17.637  21.043  0.00  0.00    +0.001 C 
ATOM     12  C   UNL     1      48.939  18.313  19.912  0.00  0.00    -0.030 C 
ATOM     13  C   UNL     1      49.894  19.235  19.146  0.00  0.00    +0.015 C 
ATOM     14  C   UNL     1      47.836  19.199  20.533  0.00  0.00    -0.029 C 
ATOM     15  C   UNL     1      48.591  20.327  21.267  0.00  0.00    +0.012 C 
ATOM     16  C   UNL     1      47.069  18.376  21.562  0.00  0.00    +0.014 C 
ATOM     17  C   UNL     1      45.981  19.202  22.226  0.00  0.00    +0.003 C 
ATOM     18  C   UNL     1      45.003  19.824  21.236  0.00  0.00    +0.004 C 
ATOM     19  C   UNL     1      43.777  18.962  21.036  0.00  0.00    -0.033 C 
ATOM     20  C   UNL     1      42.916  19.053  22.322  0.00  0.00    +0.018 C 
ATOM     21  C   UNL     1      44.113  17.484  20.831  0.00  0.00    +0.030 C 
ATOM     22  C   UNL     1      42.885  19.434  19.889  0.00  0.00    +0.165 C 
ATOM     25  C   UNL     1      43.725  19.652  18.634  0.00  0.00    -0.019 C 
ATOM     26  C   UNL     1      44.711  20.778  18.890  0.00  0.00    +0.018 C 
ATOM     27  C   UNL     1      45.663  20.480  20.058  0.00  0.00    -0.024 C 
ATOM     28  C   UNL     1      46.095  21.906  20.521  0.00  0.00    +0.001 C 
ATOM     29  C   UNL     1      46.902  19.780  19.495  0.00  0.00    +0.008 C 
ATOM     30  C   UNL     1      46.435  18.749  18.464  0.00  0.00    +0.001 C 
ATOM     31  C   UNL     1      47.633  18.006  17.858  0.00  0.00    -0.001 C 
ATOM     32  C   UNL     1      48.306  17.257  19.015  0.00  0.00    +0.021 C 
ATOM     33  C   UNL     1      49.206  16.144  18.528  0.00  0.00    +0.003 C 
ATOM     34  C   UNL     1      49.980  16.545  17.254  0.00  0.00    +0.020 C 
ENDROOT
BRANCH   3   2
ATOM      1  C   UNL     1      45.913  15.065  18.995  0.00  0.00    +0.067 C 
ATOM      2  C   UNL     1      46.951  15.069  17.903  0.00  0.00    -0.084 C 
ATOM     35  C   UNL     1      46.590  15.261  16.658  0.00  0.00    -0.039 C 
ENDBRANCH   3   2
BRANCH   6   7
ATOM      7  C   UNL     1      51.312  14.894  18.923  0.00  0.00    +0.507 C 
ATOM      8  O   UNL     1      51.261  13.677  18.861  0.00  0.00    -0.701 OA
ATOM      9  O   UNL     1      52.259  15.489  18.438  0.00  0.00    -0.698 OA
ENDBRANCH   6   7
BRANCH  22  23
ATOM     23  O   UNL     1      42.236  20.653  20.256  0.00  0.00    -0.561 OA
ATOM     24  H   UNL     1      41.429  20.836  19.754  0.00  0.00    +0.370 HD
ENDBRANCH  22  23
TORSDOF 3
ENDMDL
MODEL 5
REMARK VINA RESULT:      -6.1      2.807      4.824
REMARK  Name = ZINC95485960
REMARK  10 active torsions:
REMARK  status: ('A' for Active; 'I' for Inactive)
REMARK    1  A    between atoms: C1_1  and  C2_2
REMARK    2  A    between atoms: C2_2  and  C4_4
REMARK    3  A    between atoms: C7_8  and  C31_37
REMARK    4  A    between atoms: C8_9  and  C30_36
REMARK    5  A    between atoms: C13_16  and  C29_35
REMARK    6  A    between atoms: C16_19  and  O1_34
REMARK    7  A    between atoms: C17_21  and  C27_32
REMARK    8  A    between atoms: C17_21  and  C28_33
REMARK    9  A    between atoms: C21_26  and  C26_31
REMARK   10  A    between atoms: C22_27  and  C25_30
REMARK                            x       y       z     vdW  Elec       q    Type
REMARK                         _______ _______ _______ _____ _____    ______ ____
ROOT
ATOM      3  C   UNL     1      48.117  21.149  20.253  0.00  0.00    +0.019 C 
ATOM      4  C   UNL     1      48.378  21.529  21.722  0.00  0.00    +0.011 C 
ATOM      5  C   UNL     1      47.064  21.252  22.479  0.00  0.00    +0.004 C 
ATOM      6  C   UNL     1      45.994  21.291  21.371  0.00  0.00    -0.117 C 
ATOM     10  C   UNL     1      44.718  20.625  21.827  0.00  0.00    +0.024 C 
ATOM     11  C   UNL     1      44.958  19.137  22.078  0.00  0.00    +0.001 C 
ATOM     12  C   UNL     1      45.348  18.476  20.751  0.00  0.00    -0.030 C 
ATOM     13  C   UNL     1      44.171  18.606  19.779  0.00  0.00    +0.015 C 
ATOM     14  C   UNL     1      45.584  16.970  20.999  0.00  0.00    -0.029 C 
ATOM     15  C   UNL     1      44.198  16.401  21.368  0.00  0.00    +0.012 C 
ATOM     16  C   UNL     1      46.512  16.810  22.198  0.00  0.00    +0.014 C 
ATOM     17  C   UNL     1      46.764  15.343  22.505  0.00  0.00    +0.003 C 
ATOM     18  C   UNL     1      47.318  14.562  21.320  0.00  0.00    +0.004 C 
ATOM     19  C   UNL     1      48.828  14.492  21.347  0.00  0.00    -0.033 C 
ATOM     20  C   UNL     1      49.241  13.531  22.490  0.00  0.00    +0.018 C 
ATOM     21  C   UNL     1      49.483  15.843  21.645  0.00  0.00    +0.030 C 
ATOM     22  C   UNL     1      49.430  13.918  20.066  0.00  0.00    +0.165 C 
ATOM     25  C   UNL     1      48.844  14.632  18.851  0.00  0.00    -0.019 C 
ATOM     26  C   UNL     1      47.355  14.343  18.781  0.00  0.00    +0.018 C 
ATOM     27  C   UNL     1      46.598  14.820  20.029  0.00  0.00    -0.024 C 
ATOM     28  C   UNL     1      45.331  13.910  20.031  0.00  0.00    +0.001 C 
ATOM     29  C   UNL     1      46.136  16.259  19.784  0.00  0.00    +0.008 C 
ATOM     30  C   UNL     1      47.286  17.018  19.116  0.00  0.00    +0.001 C 
ATOM     31  C   UNL     1      46.889  18.474  18.842  0.00  0.00    -0.001 C 
ATOM     32  C   UNL     1      46.622  19.113  20.210  0.00  0.00    +0.021 C 
ATOM     33  C   UNL     1      46.662  20.623  20.152  0.00  0.00    +0.003 C 
ATOM     34  C   UNL     1      46.020  21.166  18.857  0.00  0.00    +0.020 C 
ENDROOT
BRANCH   3   2
ATOM      1  C   UNL     1      49.773  19.207  20.761  0.00  0.00    +0.067 C 
ATOM      2  C   UNL     1      49.175  20.194  19.793  0.00  0.00    -0.084 C 
ATOM     35  C   UNL     1      49.581  20.217  18.547  0.00  0.00    -0.039 C 
ENDBRANCH   3   2
BRANCH   6   7
ATOM      7  C   UNL     1      45.694  22.731  21.032  0.00  0.00    +0.507 C 
ATOM      8  O   UNL     1      44.690  23.012  20.399  0.00  0.00    -0.701 OA
ATOM      9  O   UNL     1      46.455  23.613  21.390  0.00  0.00    -0.698 OA
ENDBRANCH   6   7
BRANCH  22  23
ATOM     23  O   UNL     1      49.151  12.520  19.988  0.00  0.00    -0.561 OA
ATOM     24  H   UNL     1      49.303  12.041  20.816  0.00  0.00    +0.370 HD
ENDBRANCH  22  23
TORSDOF 3
ENDMDL
MODEL 6
REMARK VINA RESULT:      -5.9      2.142      4.512
REMARK  Name = ZINC95485960
REMARK  10 active torsions:
REMARK  status: ('A' for Active; 'I' for Inactive)
REMARK    1  A    between atoms: C1_1  and  C2_2
REMARK    2  A    between atoms: C2_2  and  C4_4
REMARK    3  A    between atoms: C7_8  and  C31_37
REMARK    4  A    between atoms: C8_9  and  C30_36
REMARK    5  A    between atoms: C13_16  and  C29_35
REMARK    6  A    between atoms: C16_19  and  O1_34
REMARK    7  A    between atoms: C17_21  and  C27_32
REMARK    8  A    between atoms: C17_21  and  C28_33
REMARK    9  A    between atoms: C21_26  and  C26_31
REMARK   10  A    between atoms: C22_27  and  C25_30
REMARK                            x       y       z     vdW  Elec       q    Type
REMARK                         _______ _______ _______ _____ _____    ______ ____
ROOT
ATOM      3  C   UNL     1      45.167  17.968  21.134  0.00  0.00    +0.019 C 
ATOM      4  C   UNL     1      44.288  17.965  19.869  0.00  0.00    +0.011 C 
ATOM      5  C   UNL     1      44.748  19.167  19.022  0.00  0.00    +0.004 C 
ATOM      6  C   UNL     1      45.418  20.099  20.050  0.00  0.00    -0.117 C 
ATOM     10  C   UNL     1      46.303  21.112  19.366  0.00  0.00    +0.024 C 
ATOM     11  C   UNL     1      47.468  20.411  18.666  0.00  0.00    +0.001 C 
ATOM     12  C   UNL     1      48.330  19.721  19.728  0.00  0.00    -0.030 C 
ATOM     13  C   UNL     1      48.914  20.794  20.653  0.00  0.00    +0.015 C 
ATOM     14  C   UNL     1      49.513  19.018  19.025  0.00  0.00    -0.029 C 
ATOM     15  C   UNL     1      50.375  20.161  18.450  0.00  0.00    +0.012 C 
ATOM     16  C   UNL     1      48.971  18.187  17.868  0.00  0.00    +0.014 C 
ATOM     17  C   UNL     1      50.094  17.487  17.121  0.00  0.00    +0.003 C 
ATOM     18  C   UNL     1      50.964  16.613  18.016  0.00  0.00    +0.004 C 
ATOM     19  C   UNL     1      50.504  15.173  18.018  0.00  0.00    -0.033 C 
ATOM     20  C   UNL     1      50.867  14.555  16.644  0.00  0.00    +0.018 C 
ATOM     21  C   UNL     1      48.990  15.030  18.183  0.00  0.00    +0.030 C 
ATOM     22  C   UNL     1      51.204  14.315  19.071  0.00  0.00    +0.165 C 
ATOM     25  C   UNL     1      51.143  15.009  20.430  0.00  0.00    -0.019 C 
ATOM     26  C   UNL     1      51.927  16.306  20.356  0.00  0.00    +0.018 C 
ATOM     27  C   UNL     1      51.376  17.275  19.299  0.00  0.00    -0.024 C 
ATOM     28  C   UNL     1      52.615  18.163  18.969  0.00  0.00    +0.001 C 
ATOM     29  C   UNL     1      50.330  18.167  19.971  0.00  0.00    +0.008 C 
ATOM     30  C   UNL     1      49.470  17.286  20.881  0.00  0.00    +0.001 C 
ATOM     31  C   UNL     1      48.395  18.122  21.587  0.00  0.00    -0.001 C 
ATOM     32  C   UNL     1      47.497  18.693  20.484  0.00  0.00    +0.021 C 
ATOM     33  C   UNL     1      46.159  19.153  21.017  0.00  0.00    +0.003 C 
ATOM     34  C   UNL     1      46.293  19.835  22.395  0.00  0.00    +0.020 C 
ENDROOT
BRANCH   3   2
ATOM      1  C   UNL     1      46.114  15.778  20.095  0.00  0.00    +0.067 C 
ATOM      2  C   UNL     1      45.797  16.620  21.303  0.00  0.00    -0.084 C 
ATOM     35  C   UNL     1      46.073  16.172  22.503  0.00  0.00    -0.039 C 
ENDBRANCH   3   2
BRANCH   6   7
ATOM      7  C   UNL     1      44.345  20.832  20.816  0.00  0.00    +0.507 C 
ATOM      8  O   UNL     1      43.207  20.392  20.844  0.00  0.00    -0.701 OA
ATOM      9  O   UNL     1      44.613  21.865  21.405  0.00  0.00    -0.698 OA
ENDBRANCH   6   7
BRANCH  22  23
ATOM     23  O   UNL     1      52.566  14.107  18.694  0.00  0.00    -0.561 OA
ATOM     24  H   UNL     1      53.154  13.910  19.436  0.00  0.00    +0.370 HD
ENDBRANCH  22  23
TORSDOF 3
ENDMDL
MODEL 7
REMARK VINA RESULT:      -5.8      3.332      5.255
REMARK  Name = ZINC95485960
REMARK  10 active torsions:
REMARK  status: ('A' for Active; 'I' for Inactive)
REMARK    1  A    between atoms: C1_1  and  C2_2
REMARK    2  A    between atoms: C2_2  and  C4_4
REMARK    3  A    between atoms: C7_8  and  C31_37
REMARK    4  A    between atoms: C8_9  and  C30_36
REMARK    5  A    between atoms: C13_16  and  C29_35
REMARK    6  A    between atoms: C16_19  and  O1_34
REMARK    7  A    between atoms: C17_21  and  C27_32
REMARK    8  A    between atoms: C17_21  and  C28_33
REMARK    9  A    between atoms: C21_26  and  C26_31
REMARK   10  A    between atoms: C22_27  and  C25_30
REMARK                            x       y       z     vdW  Elec       q    Type
REMARK                         _______ _______ _______ _____ _____    ______ ____
ROOT
ATOM      3  C   UNL     1      47.250  14.303  20.389  0.00  0.00    +0.019 C 
ATOM      4  C   UNL     1      48.371  13.257  20.538  0.00  0.00    +0.011 C 
ATOM      5  C   UNL     1      49.184  13.307  19.229  0.00  0.00    +0.004 C 
ATOM      6  C   UNL     1      48.197  13.914  18.214  0.00  0.00    -0.117 C 
ATOM     10  C   UNL     1      48.924  14.441  17.000  0.00  0.00    +0.024 C 
ATOM     11  C   UNL     1      49.835  15.603  17.392  0.00  0.00    +0.001 C 
ATOM     12  C   UNL     1      48.964  16.750  17.914  0.00  0.00    -0.030 C 
ATOM     13  C   UNL     1      48.056  17.228  16.776  0.00  0.00    +0.015 C 
ATOM     14  C   UNL     1      49.882  17.931  18.303  0.00  0.00    -0.029 C 
ATOM     15  C   UNL     1      50.488  18.425  16.973  0.00  0.00    +0.012 C 
ATOM     16  C   UNL     1      51.007  17.405  19.187  0.00  0.00    +0.014 C 
ATOM     17  C   UNL     1      51.959  18.521  19.586  0.00  0.00    +0.003 C 
ATOM     18  C   UNL     1      51.267  19.689  20.277  0.00  0.00    +0.004 C 
ATOM     19  C   UNL     1      51.307  19.557  21.783  0.00  0.00    -0.033 C 
ATOM     20  C   UNL     1      52.762  19.823  22.247  0.00  0.00    +0.018 C 
ATOM     21  C   UNL     1      50.935  18.155  22.269  0.00  0.00    +0.030 C 
ATOM     22  C   UNL     1      50.433  20.582  22.504  0.00  0.00    +0.165 C 
ATOM     25  C   UNL     1      49.032  20.588  21.899  0.00  0.00    -0.019 C 
ATOM     26  C   UNL     1      49.121  21.053  20.456  0.00  0.00    +0.018 C 
ATOM     27  C   UNL     1      50.012  20.146  19.593  0.00  0.00    -0.024 C 
ATOM     28  C   UNL     1      50.451  21.096  18.437  0.00  0.00    +0.001 C 
ATOM     29  C   UNL     1      49.131  19.052  18.987  0.00  0.00    +0.008 C 
ATOM     30  C   UNL     1      48.175  18.557  20.075  0.00  0.00    +0.001 C 
ATOM     31  C   UNL     1      47.259  17.452  19.532  0.00  0.00    -0.001 C 
ATOM     32  C   UNL     1      48.175  16.289  19.133  0.00  0.00    +0.021 C 
ATOM     33  C   UNL     1      47.421  14.985  19.007  0.00  0.00    +0.003 C 
ATOM     34  C   UNL     1      46.029  15.184  18.370  0.00  0.00    +0.020 C 
ENDROOT
BRANCH   3   2
ATOM      1  C   UNL     1      46.002  15.876  22.044  0.00  0.00    +0.067 C 
ATOM      2  C   UNL     1      47.276  15.227  21.567  0.00  0.00    -0.084 C 
ATOM     35  C   UNL     1      48.405  15.472  22.183  0.00  0.00    -0.039 C 
ENDBRANCH   3   2
BRANCH   6   7
ATOM      7  C   UNL     1      47.231  12.842  17.772  0.00  0.00    +0.507 C 
ATOM      8  O   UNL     1      46.533  13.019  16.787  0.00  0.00    -0.701 OA
ATOM      9  O   UNL     1      47.146  11.801  18.400  0.00  0.00    -0.698 OA
ENDBRANCH   6   7
BRANCH  22  23
ATOM     23  O   UNL     1      51.019  21.880  22.385  0.00  0.00    -0.561 OA
ATOM     24  H   UNL     1      51.785  21.914  21.796  0.00  0.00    +0.370 HD
ENDBRANCH  22  23
TORSDOF 3
ENDMDL
MODEL 8
REMARK VINA RESULT:      -5.8      4.250      7.336
REMARK  Name = ZINC95485960
REMARK  10 active torsions:
REMARK  status: ('A' for Active; 'I' for Inactive)
REMARK    1  A    between atoms: C1_1  and  C2_2
REMARK    2  A    between atoms: C2_2  and  C4_4
REMARK    3  A    between atoms: C7_8  and  C31_37
REMARK    4  A    between atoms: C8_9  and  C30_36
REMARK    5  A    between atoms: C13_16  and  C29_35
REMARK    6  A    between atoms: C16_19  and  O1_34
REMARK    7  A    between atoms: C17_21  and  C27_32
REMARK    8  A    between atoms: C17_21  and  C28_33
REMARK    9  A    between atoms: C21_26  and  C26_31
REMARK   10  A    between atoms: C22_27  and  C25_30
REMARK                            x       y       z     vdW  Elec       q    Type
REMARK                         _______ _______ _______ _____ _____    ______ ____
ROOT
ATOM      3  C   UNL     1      49.857  12.057  16.246  0.00  0.00    +0.019 C 
ATOM      4  C   UNL     1      49.285  12.386  14.854  0.00  0.00    +0.011 C 
ATOM      5  C   UNL     1      47.858  12.917  15.089  0.00  0.00    +0.004 C 
ATOM      6  C   UNL     1      47.481  12.343  16.468  0.00  0.00    -0.117 C 
ATOM     10  C   UNL     1      46.312  13.089  17.065  0.00  0.00    +0.024 C 
ATOM     11  C   UNL     1      46.699  14.541  17.346  0.00  0.00    +0.001 C 
ATOM     12  C   UNL     1      47.811  14.554  18.399  0.00  0.00    -0.030 C 
ATOM     13  C   UNL     1      47.259  13.954  19.697  0.00  0.00    +0.015 C 
ATOM     14  C   UNL     1      48.199  16.021  18.692  0.00  0.00    -0.029 C 
ATOM     15  C   UNL     1      46.958  16.636  19.372  0.00  0.00    +0.012 C 
ATOM     16  C   UNL     1      48.436  16.738  17.368  0.00  0.00    +0.014 C 
ATOM     17  C   UNL     1      48.800  18.196  17.591  0.00  0.00    +0.003 C 
ATOM     18  C   UNL     1      50.008  18.387  18.501  0.00  0.00    +0.004 C 
ATOM     19  C   UNL     1      51.292  18.523  17.713  0.00  0.00    -0.033 C 
ATOM     20  C   UNL     1      51.282  19.910  17.022  0.00  0.00    +0.018 C 
ATOM     21  C   UNL     1      51.426  17.476  16.605  0.00  0.00    +0.030 C 
ATOM     22  C   UNL     1      52.544  18.487  18.586  0.00  0.00    +0.165 C 
ATOM     25  C   UNL     1      52.492  17.282  19.521  0.00  0.00    -0.019 C 
ATOM     26  C   UNL     1      51.321  17.448  20.473  0.00  0.00    +0.018 C 
ATOM     27  C   UNL     1      49.972  17.548  19.745  0.00  0.00    -0.024 C 
ATOM     28  C   UNL     1      49.082  18.310  20.775  0.00  0.00    +0.001 C 
ATOM     29  C   UNL     1      49.406  16.135  19.597  0.00  0.00    +0.008 C 
ATOM     30  C   UNL     1      50.551  15.205  19.188  0.00  0.00    +0.001 C 
ATOM     31  C   UNL     1      50.050  13.766  19.021  0.00  0.00    -0.001 C 
ATOM     32  C   UNL     1      49.026  13.795  17.879  0.00  0.00    +0.021 C 
ATOM     33  C   UNL     1      48.778  12.422  17.298  0.00  0.00    +0.003 C 
ATOM     34  C   UNL     1      48.753  11.331  18.390  0.00  0.00    +0.020 C 
ENDROOT
BRANCH   3   2
ATOM      1  C   UNL     1      52.231  12.149  17.308  0.00  0.00    +0.067 C 
ATOM      2  C   UNL     1      51.175  12.748  16.416  0.00  0.00    -0.084 C 
ATOM     35  C   UNL     1      51.411  13.873  15.787  0.00  0.00    -0.039 C 
ENDBRANCH   3   2
BRANCH   6   7
ATOM      7  C   UNL     1      47.096  10.893  16.305  0.00  0.00    +0.507 C 
ATOM      8  O   UNL     1      46.610  10.282  17.241  0.00  0.00    -0.701 OA
ATOM      9  O   UNL     1      47.274  10.332  15.237  0.00  0.00    -0.698 OA
ENDBRANCH   6   7
BRANCH  22  23
ATOM     23  O   UNL     1      52.631  19.691  19.351  0.00  0.00    -0.561 OA
ATOM     24  H   UNL     1      51.950  19.773  20.034  0.00  0.00    +0.370 HD
ENDBRANCH  22  23
TORSDOF 3
ENDMDL
MODEL 9
REMARK VINA RESULT:      -5.7      2.932      5.431
REMARK  Name = ZINC95485960
REMARK  10 active torsions:
REMARK  status: ('A' for Active; 'I' for Inactive)
REMARK    1  A    between atoms: C1_1  and  C2_2
REMARK    2  A    between atoms: C2_2  and  C4_4
REMARK    3  A    between atoms: C7_8  and  C31_37
REMARK    4  A    between atoms: C8_9  and  C30_36
REMARK    5  A    between atoms: C13_16  and  C29_35
REMARK    6  A    between atoms: C16_19  and  O1_34
REMARK    7  A    between atoms: C17_21  and  C27_32
REMARK    8  A    between atoms: C17_21  and  C28_33
REMARK    9  A    between atoms: C21_26  and  C26_31
REMARK   10  A    between atoms: C22_27  and  C25_30
REMARK                            x       y       z     vdW  Elec       q    Type
REMARK                         _______ _______ _______ _____ _____    ______ ____
ROOT
ATOM      3  C   UNL     1      45.115  19.543  20.715  0.00  0.00    +0.019 C 
ATOM      4  C   UNL     1      44.799  20.279  19.399  0.00  0.00    +0.011 C 
ATOM      5  C   UNL     1      46.128  20.893  18.919  0.00  0.00    +0.004 C 
ATOM      6  C   UNL     1      46.970  20.985  20.206  0.00  0.00    -0.117 C 
ATOM     10  C   UNL     1      48.435  21.152  19.884  0.00  0.00    +0.024 C 
ATOM     11  C   UNL     1      48.965  19.911  19.166  0.00  0.00    +0.001 C 
ATOM     12  C   UNL     1      48.858  18.714  20.117  0.00  0.00    -0.030 C 
ATOM     13  C   UNL     1      49.758  18.976  21.330  0.00  0.00    +0.015 C 
ATOM     14  C   UNL     1      49.400  17.459  19.398  0.00  0.00    -0.029 C 
ATOM     15  C   UNL     1      50.908  17.723  19.210  0.00  0.00    +0.012 C 
ATOM     16  C   UNL     1      48.747  17.363  18.024  0.00  0.00    +0.014 C 
ATOM     17  C   UNL     1      49.258  16.155  17.256  0.00  0.00    +0.003 C 
ATOM     18  C   UNL     1      49.077  14.840  18.004  0.00  0.00    +0.004 C 
ATOM     19  C   UNL     1      47.795  14.140  17.611  0.00  0.00    -0.033 C 
ATOM     20  C   UNL     1      47.976  13.584  16.176  0.00  0.00    +0.018 C 
ATOM     21  C   UNL     1      46.589  15.081  17.574  0.00  0.00    +0.030 C 
ATOM     22  C   UNL     1      47.465  12.940  18.497  0.00  0.00    +0.165 C 
ATOM     25  C   UNL     1      47.551  13.341  19.967  0.00  0.00    -0.019 C 
ATOM     26  C   UNL     1      48.985  13.719  20.291  0.00  0.00    +0.018 C 
ATOM     27  C   UNL     1      49.495  14.895  19.445  0.00  0.00    -0.024 C 
ATOM     28  C   UNL     1      51.041  14.691  19.471  0.00  0.00    +0.001 C 
ATOM     29  C   UNL     1      49.183  16.192  20.194  0.00  0.00    +0.008 C 
ATOM     30  C   UNL     1      47.769  16.079  20.769  0.00  0.00    +0.001 C 
ATOM     31  C   UNL     1      47.391  17.352  21.536  0.00  0.00    -0.001 C 
ATOM     32  C   UNL     1      47.402  18.493  20.511  0.00  0.00    +0.021 C 
ATOM     33  C   UNL     1      46.632  19.701  20.992  0.00  0.00    +0.003 C 
ATOM     34  C   UNL     1      46.843  19.955  22.500  0.00  0.00    +0.020 C 
ENDROOT
BRANCH   3   2
ATOM      1  C   UNL     1      44.030  17.459  21.832  0.00  0.00    +0.067 C 
ATOM      2  C   UNL     1      44.625  18.131  20.623  0.00  0.00    -0.084 C 
ATOM     35  C   UNL     1      44.713  17.480  19.490  0.00  0.00    -0.039 C 
ENDBRANCH   3   2
BRANCH   6   7
ATOM      7  C   UNL     1      46.511  22.179  21.006  0.00  0.00    +0.507 C 
ATOM      8  O   UNL     1      45.411  22.663  20.801  0.00  0.00    -0.701 OA
ATOM      9  O   UNL     1      47.240  22.661  21.856  0.00  0.00    -0.698 OA
ENDBRANCH   6   7
BRANCH  22  23
ATOM     23  O   UNL     1      48.382  11.879  18.229  0.00  0.00    -0.561 OA
ATOM     24  H   UNL     1      48.425  11.621  17.298  0.00  0.00    +0.370 HD
ENDBRANCH  22  23
TORSDOF 3
ENDMDL
