MODEL 1
REMARK VINA RESULT:      -6.0      0.000      0.000
REMARK  Name = ZINC95486023
REMARK  10 active torsions:
REMARK  status: ('A' for Active; 'I' for Inactive)
REMARK    1  A    between atoms: C1_1  and  C2_2
REMARK    2  A    between atoms: C6_6  and  C24_30
REMARK    3  A    between atoms: C7_7  and  C13_15
REMARK    4  A    between atoms: C8_8  and  O2_14
REMARK    5  A    between atoms: C10_10  and  O1_12
REMARK    6  A    between atoms: O1_12  and  C12_13
REMARK    7  A    between atoms: C14_16  and  O4_29
REMARK    8  A    between atoms: C18_20  and  O3_21
REMARK    9  A    between atoms: O3_21  and  C19_22
REMARK   10  A    between atoms: C21_25  and  C23_28
REMARK                            x       y       z     vdW  Elec       q    Type
REMARK                         _______ _______ _______ _____ _____    ______ ____
ROOT
ATOM      1  C   UNL     1      40.611  18.615  21.534  0.00  0.00    +0.099 C 
ATOM      2  C   UNL     1      42.012  18.875  21.044  0.00  0.00    -0.020 A 
ATOM      3  C   UNL     1      43.011  18.017  21.387  0.00  0.00    -0.025 A 
ATOM      4  C   UNL     1      44.322  18.249  20.935  0.00  0.00    +0.016 A 
ATOM      5  C   UNL     1      45.371  17.375  21.275  0.00  0.00    +0.018 A 
ATOM      6  C   UNL     1      46.631  17.616  20.830  0.00  0.00    -0.039 A 
ATOM      7  C   UNL     1      47.745  16.672  21.203  0.00  0.00    +0.095 C 
ATOM      8  C   UNL     1      46.910  18.733  20.027  0.00  0.00    -0.103 A 
ATOM     25  C   UNL     1      45.899  19.615  19.672  0.00  0.00    +0.175 A 
ATOM     28  C   UNL     1      44.588  19.380  20.125  0.00  0.00    -0.108 A 
ATOM     29  C   UNL     1      43.533  20.252  19.786  0.00  0.00    +0.159 A 
ATOM     32  C   UNL     1      42.262  19.986  20.244  0.00  0.00    -0.090 A 
ENDROOT
BRANCH   8   9
ATOM      9  C   UNL     1      48.295  18.971  19.554  0.00  0.00    -0.083 A 
ATOM     10  C   UNL     1      49.173  19.745  20.320  0.00  0.00    +0.232 A 
ATOM     13  C   UNL     1      50.474  19.966  19.886  0.00  0.00    +0.004 A 
ATOM     14  C   UNL     1      50.905  19.426  18.697  0.00  0.00    +0.007 A 
ATOM     15  C   UNL     1      50.035  18.659  17.913  0.00  0.00    -0.216 A 
ATOM     16  C   UNL     1      50.521  18.128  16.631  0.00  0.00    +0.590 C 
ATOM     17  N   UNL     1      51.589  18.614  16.092  0.00  0.00    -0.536 N 
ATOM     18  H   UNL     1      51.911  18.230  15.261  0.00  0.00    +0.443 HD
ATOM     19  C   UNL     1      52.331  19.720  16.690  0.00  0.00    +0.227 C 
ATOM     20  C   UNL     1      51.695  21.042  16.255  0.00  0.00    +0.078 C 
ATOM     21  C   UNL     1      52.317  19.638  18.215  0.00  0.00    +0.136 C 
ATOM     22  C   UNL     1      48.728  18.418  18.348  0.00  0.00    +0.217 A 
BRANCH  10  11
ATOM     11  O   UNL     1      48.752  20.284  21.493  0.00  0.00    -0.475 OA
ATOM     12  H   UNL     1      48.463  19.631  22.145  0.00  0.00    +0.412 HD
ENDBRANCH  10  11
BRANCH  22  23
ATOM     23  O   UNL     1      47.887  17.660  17.601  0.00  0.00    -0.324 OA
ATOM     24  C   UNL     1      48.093  16.246  17.624  0.00  0.00    +0.254 C 
ENDBRANCH  22  23
ENDBRANCH   8   9
BRANCH  25  26
ATOM     26  O   UNL     1      46.173  20.695  18.896  0.00  0.00    -0.471 OA
ATOM     27  H   UNL     1      46.960  21.186  19.168  0.00  0.00    +0.380 HD
ENDBRANCH  25  26
BRANCH  29  30
ATOM     30  O   UNL     1      43.768  21.342  19.010  0.00  0.00    -0.299 OA
ATOM     31  C   UNL     1      43.371  22.610  19.535  0.00  0.00    +0.245 C 
ENDBRANCH  29  30
TORSDOF 5
ENDMDL
MODEL 2
REMARK VINA RESULT:      -6.0      2.827      7.668
REMARK  Name = ZINC95486023
REMARK  10 active torsions:
REMARK  status: ('A' for Active; 'I' for Inactive)
REMARK    1  A    between atoms: C1_1  and  C2_2
REMARK    2  A    between atoms: C6_6  and  C24_30
REMARK    3  A    between atoms: C7_7  and  C13_15
REMARK    4  A    between atoms: C8_8  and  O2_14
REMARK    5  A    between atoms: C10_10  and  O1_12
REMARK    6  A    between atoms: O1_12  and  C12_13
REMARK    7  A    between atoms: C14_16  and  O4_29
REMARK    8  A    between atoms: C18_20  and  O3_21
REMARK    9  A    between atoms: O3_21  and  C19_22
REMARK   10  A    between atoms: C21_25  and  C23_28
REMARK                            x       y       z     vdW  Elec       q    Type
REMARK                         _______ _______ _______ _____ _____    ______ ____
ROOT
ATOM      1  C   UNL     1      52.701  20.276  20.029  0.00  0.00    +0.099 C 
ATOM      2  C   UNL     1      51.203  20.168  19.902  0.00  0.00    -0.020 A 
ATOM      3  C   UNL     1      50.408  20.805  20.805  0.00  0.00    -0.025 A 
ATOM      4  C   UNL     1      49.010  20.712  20.697  0.00  0.00    +0.016 A 
ATOM      5  C   UNL     1      48.167  21.363  21.617  0.00  0.00    +0.018 A 
ATOM      6  C   UNL     1      46.818  21.261  21.496  0.00  0.00    -0.039 A 
ATOM      7  C   UNL     1      45.928  21.963  22.489  0.00  0.00    +0.095 C 
ATOM      8  C   UNL     1      46.242  20.512  20.460  0.00  0.00    -0.103 A 
ATOM     25  C   UNL     1      47.043  19.857  19.535  0.00  0.00    +0.175 A 
ATOM     28  C   UNL     1      48.443  19.952  19.644  0.00  0.00    -0.108 A 
ATOM     29  C   UNL     1      49.291  19.303  18.725  0.00  0.00    +0.159 A 
ATOM     32  C   UNL     1      50.656  19.423  18.862  0.00  0.00    -0.090 A 
ENDROOT
BRANCH   8   9
ATOM      9  C   UNL     1      44.766  20.418  20.352  0.00  0.00    -0.083 A 
ATOM     10  C   UNL     1      44.084  19.367  20.973  0.00  0.00    +0.232 A 
ATOM     13  C   UNL     1      42.700  19.279  20.882  0.00  0.00    +0.004 A 
ATOM     14  C   UNL     1      41.994  20.224  20.176  0.00  0.00    +0.007 A 
ATOM     15  C   UNL     1      42.663  21.276  19.539  0.00  0.00    -0.216 A 
ATOM     16  C   UNL     1      41.877  22.248  18.764  0.00  0.00    +0.590 C 
ATOM     17  N   UNL     1      40.667  21.968  18.412  0.00  0.00    -0.536 N 
ATOM     18  H   UNL     1      40.154  22.634  17.927  0.00  0.00    +0.443 HD
ATOM     19  C   UNL     1      40.043  20.684  18.716  0.00  0.00    +0.227 C 
ATOM     20  C   UNL     1      40.430  19.670  17.638  0.00  0.00    +0.078 C 
ATOM     21  C   UNL     1      40.491  20.158  20.078  0.00  0.00    +0.136 C 
ATOM     22  C   UNL     1      44.053  21.383  19.637  0.00  0.00    +0.217 A 
BRANCH  10  11
ATOM     11  O   UNL     1      44.776  18.428  21.668  0.00  0.00    -0.475 OA
ATOM     12  H   UNL     1      44.230  17.898  22.265  0.00  0.00    +0.412 HD
ENDBRANCH  10  11
BRANCH  22  23
ATOM     23  O   UNL     1      44.705  22.411  19.037  0.00  0.00    -0.324 OA
ATOM     24  C   UNL     1      44.641  23.685  19.681  0.00  0.00    +0.254 C 
ENDBRANCH  22  23
ENDBRANCH   8   9
BRANCH  25  26
ATOM     26  O   UNL     1      46.482  19.132  18.533  0.00  0.00    -0.471 OA
ATOM     27  H   UNL     1      46.440  18.183  18.711  0.00  0.00    +0.380 HD
ENDBRANCH  25  26
BRANCH  29  30
ATOM     30  O   UNL     1      48.767  18.569  17.709  0.00  0.00    -0.299 OA
ATOM     31  C   UNL     1      49.520  17.438  17.269  0.00  0.00    +0.245 C 
ENDBRANCH  29  30
TORSDOF 5
ENDMDL
MODEL 3
REMARK VINA RESULT:      -5.9      3.010      5.120
REMARK  Name = ZINC95486023
REMARK  10 active torsions:
REMARK  status: ('A' for Active; 'I' for Inactive)
REMARK    1  A    between atoms: C1_1  and  C2_2
REMARK    2  A    between atoms: C6_6  and  C24_30
REMARK    3  A    between atoms: C7_7  and  C13_15
REMARK    4  A    between atoms: C8_8  and  O2_14
REMARK    5  A    between atoms: C10_10  and  O1_12
REMARK    6  A    between atoms: O1_12  and  C12_13
REMARK    7  A    between atoms: C14_16  and  O4_29
REMARK    8  A    between atoms: C18_20  and  O3_21
REMARK    9  A    between atoms: O3_21  and  C19_22
REMARK   10  A    between atoms: C21_25  and  C23_28
REMARK                            x       y       z     vdW  Elec       q    Type
REMARK                         _______ _______ _______ _____ _____    ______ ____
ROOT
ATOM      1  C   UNL     1      45.770  24.889  21.034  0.00  0.00    +0.099 C 
ATOM      2  C   UNL     1      45.589  23.433  20.688  0.00  0.00    -0.020 A 
ATOM      3  C   UNL     1      46.570  22.543  21.004  0.00  0.00    -0.025 A 
ATOM      4  C   UNL     1      46.413  21.183  20.687  0.00  0.00    +0.016 A 
ATOM      5  C   UNL     1      47.412  20.245  21.004  0.00  0.00    +0.018 A 
ATOM      6  C   UNL     1      47.242  18.935  20.690  0.00  0.00    -0.039 A 
ATOM      7  C   UNL     1      48.322  17.942  21.035  0.00  0.00    +0.095 C 
ATOM      8  C   UNL     1      46.076  18.494  20.047  0.00  0.00    -0.103 A 
ATOM     25  C   UNL     1      45.069  19.391  19.720  0.00  0.00    +0.175 A 
ATOM     28  C   UNL     1      45.228  20.753  20.039  0.00  0.00    -0.108 A 
ATOM     29  C   UNL     1      44.230  21.696  19.724  0.00  0.00    +0.159 A 
ATOM     32  C   UNL     1      44.420  23.019  20.057  0.00  0.00    -0.090 A 
ENDROOT
BRANCH   8   9
ATOM      9  C   UNL     1      45.916  17.057  19.716  0.00  0.00    -0.083 A 
ATOM     10  C   UNL     1      45.336  16.185  20.642  0.00  0.00    +0.232 A 
ATOM     13  C   UNL     1      45.177  14.839  20.334  0.00  0.00    +0.004 A 
ATOM     14  C   UNL     1      45.595  14.357  19.116  0.00  0.00    +0.007 A 
ATOM     15  C   UNL     1      46.189  15.215  18.182  0.00  0.00    -0.216 A 
ATOM     16  C   UNL     1      46.654  14.655  16.905  0.00  0.00    +0.590 C 
ATOM     17  N   UNL     1      46.810  13.380  16.774  0.00  0.00    -0.536 N 
ATOM     18  H   UNL     1      47.089  13.028  15.914  0.00  0.00    +0.443 HD
ATOM     19  C   UNL     1      46.581  12.450  17.875  0.00  0.00    +0.227 C 
ATOM     20  C   UNL     1      47.847  12.363  18.730  0.00  0.00    +0.078 C 
ATOM     21  C   UNL     1      45.417  12.905  18.753  0.00  0.00    +0.136 C 
ATOM     22  C   UNL     1      46.339  16.573  18.477  0.00  0.00    +0.217 A 
BRANCH  10  11
ATOM     11  O   UNL     1      44.925  16.654  21.848  0.00  0.00    -0.475 OA
ATOM     12  H   UNL     1      45.204  16.111  22.598  0.00  0.00    +0.412 HD
ENDBRANCH  10  11
BRANCH  22  23
ATOM     23  O   UNL     1      46.897  17.413  17.568  0.00  0.00    -0.324 OA
ATOM     24  C   UNL     1      48.321  17.387  17.449  0.00  0.00    +0.254 C 
ENDBRANCH  22  23
ENDBRANCH   8   9
BRANCH  25  26
ATOM     26  O   UNL     1      43.941  18.961  19.098  0.00  0.00    -0.471 OA
ATOM     27  H   UNL     1      43.805  19.344  18.221  0.00  0.00    +0.380 HD
ENDBRANCH  25  26
BRANCH  29  30
ATOM     30  O   UNL     1      43.088  21.303  19.103  0.00  0.00    -0.299 OA
ATOM     31  C   UNL     1      42.012  22.243  19.069  0.00  0.00    +0.245 C 
ENDBRANCH  29  30
TORSDOF 5
ENDMDL
MODEL 4
REMARK VINA RESULT:      -5.6      4.052      8.404
REMARK  Name = ZINC95486023
REMARK  10 active torsions:
REMARK  status: ('A' for Active; 'I' for Inactive)
REMARK    1  A    between atoms: C1_1  and  C2_2
REMARK    2  A    between atoms: C6_6  and  C24_30
REMARK    3  A    between atoms: C7_7  and  C13_15
REMARK    4  A    between atoms: C8_8  and  O2_14
REMARK    5  A    between atoms: C10_10  and  O1_12
REMARK    6  A    between atoms: O1_12  and  C12_13
REMARK    7  A    between atoms: C14_16  and  O4_29
REMARK    8  A    between atoms: C18_20  and  O3_21
REMARK    9  A    between atoms: O3_21  and  C19_22
REMARK   10  A    between atoms: C21_25  and  C23_28
REMARK                            x       y       z     vdW  Elec       q    Type
REMARK                         _______ _______ _______ _____ _____    ______ ____
ROOT
ATOM      1  C   UNL     1      51.446  10.597  14.102  0.00  0.00    +0.099 C 
ATOM      2  C   UNL     1      50.416  11.475  14.766  0.00  0.00    -0.020 A 
ATOM      3  C   UNL     1      50.822  12.557  15.485  0.00  0.00    -0.025 A 
ATOM      4  C   UNL     1      49.871  13.383  16.108  0.00  0.00    +0.016 A 
ATOM      5  C   UNL     1      50.268  14.508  16.855  0.00  0.00    +0.018 A 
ATOM      6  C   UNL     1      49.334  15.294  17.450  0.00  0.00    -0.039 A 
ATOM      7  C   UNL     1      49.773  16.496  18.248  0.00  0.00    +0.095 C 
ATOM      8  C   UNL     1      47.966  15.003  17.334  0.00  0.00    -0.103 A 
ATOM     25  C   UNL     1      47.540  13.902  16.605  0.00  0.00    +0.175 A 
ATOM     28  C   UNL     1      48.494  13.077  15.981  0.00  0.00    -0.108 A 
ATOM     29  C   UNL     1      48.102  11.949  15.231  0.00  0.00    +0.159 A 
ATOM     32  C   UNL     1      49.065  11.168  14.631  0.00  0.00    -0.090 A 
ENDROOT
BRANCH   8   9
ATOM      9  C   UNL     1      46.969  15.879  17.995  0.00  0.00    -0.083 A 
ATOM     10  C   UNL     1      46.548  17.057  17.369  0.00  0.00    +0.232 A 
ATOM     13  C   UNL     1      45.607  17.878  17.981  0.00  0.00    +0.004 A 
ATOM     14  C   UNL     1      45.088  17.537  19.207  0.00  0.00    +0.007 A 
ATOM     15  C   UNL     1      45.507  16.366  19.852  0.00  0.00    -0.216 A 
ATOM     16  C   UNL     1      44.955  16.053  21.178  0.00  0.00    +0.590 C 
ATOM     17  N   UNL     1      44.362  16.971  21.865  0.00  0.00    -0.536 N 
ATOM     18  H   UNL     1      43.977  16.737  22.725  0.00  0.00    +0.443 HD
ATOM     19  C   UNL     1      44.248  18.347  21.394  0.00  0.00    +0.227 C 
ATOM     20  C   UNL     1      45.522  19.110  21.763  0.00  0.00    +0.078 C 
ATOM     21  C   UNL     1      44.054  18.402  19.881  0.00  0.00    +0.136 C 
ATOM     22  C   UNL     1      46.442  15.526  19.238  0.00  0.00    +0.217 A 
BRANCH  10  11
ATOM     11  O   UNL     1      47.060  17.401  16.160  0.00  0.00    -0.475 OA
ATOM     12  H   UNL     1      46.445  17.281  15.423  0.00  0.00    +0.412 HD
ENDBRANCH  10  11
BRANCH  22  23
ATOM     23  O   UNL     1      46.838  14.382  19.850  0.00  0.00    -0.324 OA
ATOM     24  C   UNL     1      47.919  14.483  20.780  0.00  0.00    +0.254 C 
ENDBRANCH  22  23
ENDBRANCH   8   9
BRANCH  25  26
ATOM     26  O   UNL     1      46.215  13.623  16.495  0.00  0.00    -0.471 OA
ATOM     27  H   UNL     1      45.825  13.898  15.655  0.00  0.00    +0.380 HD
ENDBRANCH  25  26
BRANCH  29  30
ATOM     30  O   UNL     1      46.787  11.639  15.097  0.00  0.00    -0.299 OA
ATOM     31  C   UNL     1      46.392  10.317  15.466  0.00  0.00    +0.245 C 
ENDBRANCH  29  30
TORSDOF 5
ENDMDL
MODEL 5
REMARK VINA RESULT:      -5.6      2.804      7.243
REMARK  Name = ZINC95486023
REMARK  10 active torsions:
REMARK  status: ('A' for Active; 'I' for Inactive)
REMARK    1  A    between atoms: C1_1  and  C2_2
REMARK    2  A    between atoms: C6_6  and  C24_30
REMARK    3  A    between atoms: C7_7  and  C13_15
REMARK    4  A    between atoms: C8_8  and  O2_14
REMARK    5  A    between atoms: C10_10  and  O1_12
REMARK    6  A    between atoms: O1_12  and  C12_13
REMARK    7  A    between atoms: C14_16  and  O4_29
REMARK    8  A    between atoms: C18_20  and  O3_21
REMARK    9  A    between atoms: O3_21  and  C19_22
REMARK   10  A    between atoms: C21_25  and  C23_28
REMARK                            x       y       z     vdW  Elec       q    Type
REMARK                         _______ _______ _______ _____ _____    ______ ____
ROOT
ATOM      1  C   UNL     1      53.979  15.900  19.437  0.00  0.00    +0.099 C 
ATOM      2  C   UNL     1      52.728  16.736  19.356  0.00  0.00    -0.020 A 
ATOM      3  C   UNL     1      51.570  16.262  19.892  0.00  0.00    -0.025 A 
ATOM      4  C   UNL     1      50.397  17.033  19.823  0.00  0.00    +0.016 A 
ATOM      5  C   UNL     1      49.189  16.565  20.371  0.00  0.00    +0.018 A 
ATOM      6  C   UNL     1      48.066  17.324  20.294  0.00  0.00    -0.039 A 
ATOM      7  C   UNL     1      46.778  16.809  20.885  0.00  0.00    +0.095 C 
ATOM      8  C   UNL     1      48.087  18.582  19.672  0.00  0.00    -0.103 A 
ATOM     25  C   UNL     1      49.261  19.075  19.121  0.00  0.00    +0.175 A 
ATOM     28  C   UNL     1      50.435  18.302  19.192  0.00  0.00    -0.108 A 
ATOM     29  C   UNL     1      51.648  18.767  18.645  0.00  0.00    +0.159 A 
ATOM     32  C   UNL     1      52.777  17.983  18.739  0.00  0.00    -0.090 A 
ENDROOT
BRANCH   8   9
ATOM      9  C   UNL     1      46.846  19.390  19.603  0.00  0.00    -0.083 A 
ATOM     10  C   UNL     1      45.978  19.249  18.515  0.00  0.00    +0.232 A 
ATOM     13  C   UNL     1      44.809  19.998  18.449  0.00  0.00    +0.004 A 
ATOM     14  C   UNL     1      44.502  20.886  19.452  0.00  0.00    +0.007 A 
ATOM     15  C   UNL     1      45.366  21.047  20.542  0.00  0.00    -0.216 A 
ATOM     16  C   UNL     1      45.020  22.032  21.578  0.00  0.00    +0.590 C 
ATOM     17  N   UNL     1      44.134  22.940  21.338  0.00  0.00    -0.536 N 
ATOM     18  H   UNL     1      43.898  23.562  22.045  0.00  0.00    +0.443 HD
ATOM     19  C   UNL     1      43.475  23.064  20.042  0.00  0.00    +0.227 C 
ATOM     20  C   UNL     1      44.358  23.895  19.109  0.00  0.00    +0.078 C 
ATOM     21  C   UNL     1      43.231  21.696  19.410  0.00  0.00    +0.136 C 
ATOM     22  C   UNL     1      46.536  20.287  20.626  0.00  0.00    +0.217 A 
BRANCH  10  11
ATOM     11  O   UNL     1      46.278  18.376  17.519  0.00  0.00    -0.475 OA
ATOM     12  H   UNL     1      46.369  17.460  17.812  0.00  0.00    +0.412 HD
ENDBRANCH  10  11
BRANCH  22  23
ATOM     23  O   UNL     1      47.368  20.427  21.689  0.00  0.00    -0.324 OA
ATOM     24  C   UNL     1      48.287  21.520  21.656  0.00  0.00    +0.254 C 
ENDBRANCH  22  23
ENDBRANCH   8   9
BRANCH  25  26
ATOM     26  O   UNL     1      49.278  20.292  18.519  0.00  0.00    -0.471 OA
ATOM     27  H   UNL     1      48.424  20.565  18.159  0.00  0.00    +0.380 HD
ENDBRANCH  25  26
BRANCH  29  30
ATOM     30  O   UNL     1      51.705  19.979  18.037  0.00  0.00    -0.299 OA
ATOM     31  C   UNL     1      52.156  20.005  16.682  0.00  0.00    +0.245 C 
ENDBRANCH  29  30
TORSDOF 5
ENDMDL
MODEL 6
REMARK VINA RESULT:      -5.5      1.461      1.740
REMARK  Name = ZINC95486023
REMARK  10 active torsions:
REMARK  status: ('A' for Active; 'I' for Inactive)
REMARK    1  A    between atoms: C1_1  and  C2_2
REMARK    2  A    between atoms: C6_6  and  C24_30
REMARK    3  A    between atoms: C7_7  and  C13_15
REMARK    4  A    between atoms: C8_8  and  O2_14
REMARK    5  A    between atoms: C10_10  and  O1_12
REMARK    6  A    between atoms: O1_12  and  C12_13
REMARK    7  A    between atoms: C14_16  and  O4_29
REMARK    8  A    between atoms: C18_20  and  O3_21
REMARK    9  A    between atoms: O3_21  and  C19_22
REMARK   10  A    between atoms: C21_25  and  C23_28
REMARK                            x       y       z     vdW  Elec       q    Type
REMARK                         _______ _______ _______ _____ _____    ______ ____
ROOT
ATOM      1  C   UNL     1      40.298  20.729  19.512  0.00  0.00    +0.099 C 
ATOM      2  C   UNL     1      41.785  20.484  19.521  0.00  0.00    -0.020 A 
ATOM      3  C   UNL     1      42.256  19.232  19.775  0.00  0.00    -0.025 A 
ATOM      4  C   UNL     1      43.640  18.992  19.786  0.00  0.00    +0.016 A 
ATOM      5  C   UNL     1      44.150  17.705  20.044  0.00  0.00    +0.018 A 
ATOM      6  C   UNL     1      45.492  17.493  20.050  0.00  0.00    -0.039 A 
ATOM      7  C   UNL     1      46.023  16.110  20.329  0.00  0.00    +0.095 C 
ATOM      8  C   UNL     1      46.389  18.542  19.801  0.00  0.00    -0.103 A 
ATOM     25  C   UNL     1      45.921  19.822  19.543  0.00  0.00    +0.175 A 
ATOM     28  C   UNL     1      44.534  20.061  19.531  0.00  0.00    -0.108 A 
ATOM     29  C   UNL     1      44.018  21.347  19.272  0.00  0.00    +0.159 A 
ATOM     32  C   UNL     1      42.655  21.540  19.265  0.00  0.00    -0.090 A 
ENDROOT
BRANCH   8   9
ATOM      9  C   UNL     1      47.848  18.281  19.814  0.00  0.00    -0.083 A 
ATOM     10  C   UNL     1      48.564  18.362  21.013  0.00  0.00    +0.232 A 
ATOM     13  C   UNL     1      49.931  18.111  21.032  0.00  0.00    +0.004 A 
ATOM     14  C   UNL     1      50.588  17.784  19.870  0.00  0.00    +0.007 A 
ATOM     15  C   UNL     1      49.888  17.709  18.659  0.00  0.00    -0.216 A 
ATOM     16  C   UNL     1      50.632  17.390  17.432  0.00  0.00    +0.590 C 
ATOM     17  N   UNL     1      51.919  17.496  17.408  0.00  0.00    -0.536 N 
ATOM     18  H   UNL     1      52.394  17.252  16.598  0.00  0.00    +0.443 HD
ATOM     19  C   UNL     1      52.684  17.968  18.558  0.00  0.00    +0.227 C 
ATOM     20  C   UNL     1      52.711  19.498  18.547  0.00  0.00    +0.078 C 
ATOM     21  C   UNL     1      52.066  17.490  19.870  0.00  0.00    +0.136 C 
ATOM     22  C   UNL     1      48.511  17.945  18.632  0.00  0.00    +0.217 A 
BRANCH  10  11
ATOM     11  O   UNL     1      47.921  18.689  22.163  0.00  0.00    -0.475 OA
ATOM     12  H   UNL     1      47.669  17.928  22.703  0.00  0.00    +0.412 HD
ENDBRANCH  10  11
BRANCH  22  23
ATOM     23  O   UNL     1      47.824  17.856  17.464  0.00  0.00    -0.324 OA
ATOM     24  C   UNL     1      47.439  16.548  17.036  0.00  0.00    +0.254 C 
ENDBRANCH  22  23
ENDBRANCH   8   9
BRANCH  25  26
ATOM     26  O   UNL     1      46.793  20.836  19.302  0.00  0.00    -0.471 OA
ATOM     27  H   UNL     1      47.366  21.048  20.051  0.00  0.00    +0.380 HD
ENDBRANCH  25  26
BRANCH  29  30
ATOM     30  O   UNL     1      44.858  22.385  19.026  0.00  0.00    -0.299 OA
ATOM     31  C   UNL     1      44.642  23.585  19.770  0.00  0.00    +0.245 C 
ENDBRANCH  29  30
TORSDOF 5
ENDMDL
MODEL 7
REMARK VINA RESULT:      -5.5      3.364      4.956
REMARK  Name = ZINC95486023
REMARK  10 active torsions:
REMARK  status: ('A' for Active; 'I' for Inactive)
REMARK    1  A    between atoms: C1_1  and  C2_2
REMARK    2  A    between atoms: C6_6  and  C24_30
REMARK    3  A    between atoms: C7_7  and  C13_15
REMARK    4  A    between atoms: C8_8  and  O2_14
REMARK    5  A    between atoms: C10_10  and  O1_12
REMARK    6  A    between atoms: O1_12  and  C12_13
REMARK    7  A    between atoms: C14_16  and  O4_29
REMARK    8  A    between atoms: C18_20  and  O3_21
REMARK    9  A    between atoms: O3_21  and  C19_22
REMARK   10  A    between atoms: C21_25  and  C23_28
REMARK                            x       y       z     vdW  Elec       q    Type
REMARK                         _______ _______ _______ _____ _____    ______ ____
ROOT
ATOM      1  C   UNL     1      42.683  18.857  22.505  0.00  0.00    +0.099 C 
ATOM      2  C   UNL     1      43.547  18.221  21.447  0.00  0.00    -0.020 A 
ATOM      3  C   UNL     1      44.007  16.953  21.632  0.00  0.00    -0.025 A 
ATOM      4  C   UNL     1      44.814  16.349  20.652  0.00  0.00    +0.016 A 
ATOM      5  C   UNL     1      45.299  15.039  20.820  0.00  0.00    +0.018 A 
ATOM      6  C   UNL     1      46.078  14.473  19.862  0.00  0.00    -0.039 A 
ATOM      7  C   UNL     1      46.592  13.069  20.056  0.00  0.00    +0.095 C 
ATOM      8  C   UNL     1      46.410  15.176  18.694  0.00  0.00    -0.103 A 
ATOM     25  C   UNL     1      45.948  16.469  18.496  0.00  0.00    +0.175 A 
ATOM     28  C   UNL     1      45.140  17.072  19.478  0.00  0.00    -0.108 A 
ATOM     29  C   UNL     1      44.650  18.383  19.314  0.00  0.00    +0.159 A 
ATOM     32  C   UNL     1      43.858  18.937  20.295  0.00  0.00    -0.090 A 
ENDROOT
BRANCH   8   9
ATOM      9  C   UNL     1      47.261  14.533  17.665  0.00  0.00    -0.083 A 
ATOM     10  C   UNL     1      46.703  13.618  16.765  0.00  0.00    +0.232 A 
ATOM     13  C   UNL     1      47.494  13.018  15.793  0.00  0.00    +0.004 A 
ATOM     14  C   UNL     1      48.834  13.318  15.714  0.00  0.00    +0.007 A 
ATOM     15  C   UNL     1      49.410  14.222  16.613  0.00  0.00    -0.216 A 
ATOM     16  C   UNL     1      50.853  14.491  16.519  0.00  0.00    +0.590 C 
ATOM     17  N   UNL     1      51.618  13.690  15.855  0.00  0.00    -0.536 N 
ATOM     18  H   UNL     1      52.562  13.901  15.778  0.00  0.00    +0.443 HD
ATOM     19  C   UNL     1      51.113  12.480  15.214  0.00  0.00    +0.227 C 
ATOM     20  C   UNL     1      51.077  11.347  16.242  0.00  0.00    +0.078 C 
ATOM     21  C   UNL     1      49.708  12.693  14.656  0.00  0.00    +0.136 C 
ATOM     22  C   UNL     1      48.620  14.843  17.585  0.00  0.00    +0.217 A 
BRANCH  10  11
ATOM     11  O   UNL     1      45.381  13.315  16.842  0.00  0.00    -0.475 OA
ATOM     12  H   UNL     1      45.186  12.374  16.734  0.00  0.00    +0.412 HD
ENDBRANCH  10  11
BRANCH  22  23
ATOM     23  O   UNL     1      49.170  15.734  18.448  0.00  0.00    -0.324 OA
ATOM     24  C   UNL     1      49.823  15.202  19.603  0.00  0.00    +0.254 C 
ENDBRANCH  22  23
ENDBRANCH   8   9
BRANCH  25  26
ATOM     26  O   UNL     1      46.272  17.148  17.364  0.00  0.00    -0.471 OA
ATOM     27  H   UNL     1      46.747  17.974  17.524  0.00  0.00    +0.380 HD
ENDBRANCH  25  26
BRANCH  29  30
ATOM     30  O   UNL     1      44.951  19.092  18.195  0.00  0.00    -0.299 OA
ATOM     31  C   UNL     1      45.572  20.366  18.382  0.00  0.00    +0.245 C 
ENDBRANCH  29  30
TORSDOF 5
ENDMDL
MODEL 8
REMARK VINA RESULT:      -5.5      4.164      5.861
REMARK  Name = ZINC95486023
REMARK  10 active torsions:
REMARK  status: ('A' for Active; 'I' for Inactive)
REMARK    1  A    between atoms: C1_1  and  C2_2
REMARK    2  A    between atoms: C6_6  and  C24_30
REMARK    3  A    between atoms: C7_7  and  C13_15
REMARK    4  A    between atoms: C8_8  and  O2_14
REMARK    5  A    between atoms: C10_10  and  O1_12
REMARK    6  A    between atoms: O1_12  and  C12_13
REMARK    7  A    between atoms: C14_16  and  O4_29
REMARK    8  A    between atoms: C18_20  and  O3_21
REMARK    9  A    between atoms: O3_21  and  C19_22
REMARK   10  A    between atoms: C21_25  and  C23_28
REMARK                            x       y       z     vdW  Elec       q    Type
REMARK                         _______ _______ _______ _____ _____    ______ ____
ROOT
ATOM      1  C   UNL     1      43.489  17.024  22.148  0.00  0.00    +0.099 C 
ATOM      2  C   UNL     1      44.499  16.515  21.152  0.00  0.00    -0.020 A 
ATOM      3  C   UNL     1      45.184  15.369  21.420  0.00  0.00    -0.025 A 
ATOM      4  C   UNL     1      46.128  14.884  20.499  0.00  0.00    +0.016 A 
ATOM      5  C   UNL     1      46.847  13.701  20.753  0.00  0.00    +0.018 A 
ATOM      6  C   UNL     1      47.756  13.249  19.850  0.00  0.00    -0.039 A 
ATOM      7  C   UNL     1      48.519  11.981  20.136  0.00  0.00    +0.095 C 
ATOM      8  C   UNL     1      47.994  13.946  18.656  0.00  0.00    -0.103 A 
ATOM     25  C   UNL     1      47.303  15.115  18.373  0.00  0.00    +0.175 A 
ATOM     28  C   UNL     1      46.357  15.598  19.296  0.00  0.00    -0.108 A 
ATOM     29  C   UNL     1      45.634  16.782  19.047  0.00  0.00    +0.159 A 
ATOM     32  C   UNL     1      44.713  17.221  19.972  0.00  0.00    -0.090 A 
ENDROOT
BRANCH   8   9
ATOM      9  C   UNL     1      48.992  13.428  17.689  0.00  0.00    -0.083 A 
ATOM     10  C   UNL     1      50.338  13.790  17.810  0.00  0.00    +0.232 A 
ATOM     13  C   UNL     1      51.278  13.302  16.911  0.00  0.00    +0.004 A 
ATOM     14  C   UNL     1      50.888  12.463  15.893  0.00  0.00    +0.007 A 
ATOM     15  C   UNL     1      49.544  12.100  15.751  0.00  0.00    -0.216 A 
ATOM     16  C   UNL     1      49.161  11.229  14.631  0.00  0.00    +0.590 C 
ATOM     17  N   UNL     1      49.964  11.068  13.632  0.00  0.00    -0.536 N 
ATOM     18  H   UNL     1      49.706  10.465  12.917  0.00  0.00    +0.443 HD
ATOM     19  C   UNL     1      51.245  11.759  13.543  0.00  0.00    +0.227 C 
ATOM     20  C   UNL     1      51.024  13.149  12.943  0.00  0.00    +0.078 C 
ATOM     21  C   UNL     1      51.894  11.907  14.917  0.00  0.00    +0.136 C 
ATOM     22  C   UNL     1      48.592  12.574  16.660  0.00  0.00    +0.217 A 
BRANCH  10  11
ATOM     11  O   UNL     1      50.727  14.621  18.810  0.00  0.00    -0.475 OA
ATOM     12  H   UNL     1      50.013  14.881  19.407  0.00  0.00    +0.412 HD
ENDBRANCH  10  11
BRANCH  22  23
ATOM     23  O   UNL     1      47.290  12.211  16.538  0.00  0.00    -0.324 OA
ATOM     24  C   UNL     1      46.921  10.931  17.055  0.00  0.00    +0.254 C 
ENDBRANCH  22  23
ENDBRANCH   8   9
BRANCH  25  26
ATOM     26  O   UNL     1      47.536  15.788  17.216  0.00  0.00    -0.471 OA
ATOM     27  H   UNL     1      47.931  16.661  17.342  0.00  0.00    +0.380 HD
ENDBRANCH  25  26
BRANCH  29  30
ATOM     30  O   UNL     1      45.839  17.481  17.900  0.00  0.00    -0.299 OA
ATOM     31  C   UNL     1      45.869  18.905  18.005  0.00  0.00    +0.245 C 
ENDBRANCH  29  30
TORSDOF 5
ENDMDL
MODEL 9
REMARK VINA RESULT:      -5.4      3.106      7.437
REMARK  Name = ZINC95486023
REMARK  10 active torsions:
REMARK  status: ('A' for Active; 'I' for Inactive)
REMARK    1  A    between atoms: C1_1  and  C2_2
REMARK    2  A    between atoms: C6_6  and  C24_30
REMARK    3  A    between atoms: C7_7  and  C13_15
REMARK    4  A    between atoms: C8_8  and  O2_14
REMARK    5  A    between atoms: C10_10  and  O1_12
REMARK    6  A    between atoms: O1_12  and  C12_13
REMARK    7  A    between atoms: C14_16  and  O4_29
REMARK    8  A    between atoms: C18_20  and  O3_21
REMARK    9  A    between atoms: O3_21  and  C19_22
REMARK   10  A    between atoms: C21_25  and  C23_28
REMARK                            x       y       z     vdW  Elec       q    Type
REMARK                         _______ _______ _______ _____ _____    ______ ____
ROOT
ATOM      1  C   UNL     1      52.081  15.282  18.711  0.00  0.00    +0.099 C 
ATOM      2  C   UNL     1      50.665  15.791  18.782  0.00  0.00    -0.020 A 
ATOM      3  C   UNL     1      50.270  16.525  19.859  0.00  0.00    -0.025 A 
ATOM      4  C   UNL     1      48.952  17.006  19.936  0.00  0.00    +0.016 A 
ATOM      5  C   UNL     1      48.523  17.768  21.039  0.00  0.00    +0.018 A 
ATOM      6  C   UNL     1      47.244  18.224  21.095  0.00  0.00    -0.039 A 
ATOM      7  C   UNL     1      46.798  19.038  22.283  0.00  0.00    +0.095 C 
ATOM      8  C   UNL     1      46.334  17.948  20.064  0.00  0.00    -0.103 A 
ATOM     25  C   UNL     1      46.724  17.200  18.962  0.00  0.00    +0.175 A 
ATOM     28  C   UNL     1      48.045  16.720  18.886  0.00  0.00    -0.108 A 
ATOM     29  C   UNL     1      48.481  15.957  17.784  0.00  0.00    +0.159 A 
ATOM     32  C   UNL     1      49.782  15.509  17.743  0.00  0.00    -0.090 A 
ENDROOT
BRANCH   8   9
ATOM      9  C   UNL     1      44.945  18.459  20.152  0.00  0.00    -0.083 A 
ATOM     10  C   UNL     1      43.954  17.691  20.772  0.00  0.00    +0.232 A 
ATOM     13  C   UNL     1      42.653  18.168  20.865  0.00  0.00    +0.004 A 
ATOM     14  C   UNL     1      42.331  19.399  20.342  0.00  0.00    +0.007 A 
ATOM     15  C   UNL     1      43.308  20.175  19.708  0.00  0.00    -0.216 A 
ATOM     16  C   UNL     1      42.918  21.470  19.130  0.00  0.00    +0.590 C 
ATOM     17  N   UNL     1      41.672  21.738  18.925  0.00  0.00    -0.536 N 
ATOM     18  H   UNL     1      41.432  22.609  18.572  0.00  0.00    +0.443 HD
ATOM     19  C   UNL     1      40.611  20.777  19.206  0.00  0.00    +0.227 C 
ATOM     20  C   UNL     1      40.450  19.842  18.005  0.00  0.00    +0.078 C 
ATOM     21  C   UNL     1      40.929  19.944  20.446  0.00  0.00    +0.136 C 
ATOM     22  C   UNL     1      44.624  19.710  19.623  0.00  0.00    +0.217 A 
BRANCH  10  11
ATOM     11  O   UNL     1      44.265  16.474  21.287  0.00  0.00    -0.475 OA
ATOM     12  H   UNL     1      43.583  15.802  21.150  0.00  0.00    +0.412 HD
ENDBRANCH  10  11
BRANCH  22  23
ATOM     23  O   UNL     1      45.580  20.467  19.026  0.00  0.00    -0.324 OA
ATOM     24  C   UNL     1      46.142  21.531  19.796  0.00  0.00    +0.254 C 
ENDBRANCH  22  23
ENDBRANCH   8   9
BRANCH  25  26
ATOM     26  O   UNL     1      45.840  16.934  17.966  0.00  0.00    -0.471 OA
ATOM     27  H   UNL     1      45.998  16.094  17.515  0.00  0.00    +0.380 HD
ENDBRANCH  25  26
BRANCH  29  30
ATOM     30  O   UNL     1      47.626  15.672  16.768  0.00  0.00    -0.299 OA
ATOM     31  C   UNL     1      47.368  14.292  16.506  0.00  0.00    +0.245 C 
ENDBRANCH  29  30
TORSDOF 5
ENDMDL
