MODEL 1
REMARK VINA RESULT:      -6.9      0.000      0.000
REMARK  Name = ZINC89455853
REMARK  21 active torsions:
REMARK  status: ('A' for Active; 'I' for Inactive)
REMARK    1  A    between atoms: C1_1  and  C2_2
REMARK    2  A    between atoms: C2_2  and  C37_44
REMARK    3  A    between atoms: C3_3  and  C4_4
REMARK    4  A    between atoms: C4_4  and  C5_5
REMARK    5  A    between atoms: C7_8  and  C32_39
REMARK    6  A    between atoms: C9_10  and  C25_28
REMARK    7  A    between atoms: C11_13  and  C20_23
REMARK    8  A    between atoms: C13_16  and  C14_17
REMARK    9  A    between atoms: C13_16  and  C15_18
REMARK   10  A    between atoms: C15_18  and  C16_19
REMARK   11  A    between atoms: C17_20  and  C18_21
REMARK   12  A    between atoms: C17_20  and  C19_22
REMARK   13  A    between atoms: C20_23  and  C21_24
REMARK   14  A    between atoms: C22_25  and  C23_26
REMARK   15  A    between atoms: C22_25  and  C24_27
REMARK   16  A    between atoms: C25_28  and  C26_30
REMARK   17  A    between atoms: C29_33  and  O5_37
REMARK   18  A    between atoms: C30_34  and  O4_36
REMARK   19  A    between atoms: C32_39  and  C33_40
REMARK   20  A    between atoms: C34_41  and  C35_42
REMARK   21  A    between atoms: C34_41  and  C36_43
REMARK                            x       y       z     vdW  Elec       q    Type
REMARK                         _______ _______ _______ _____ _____    ______ ____
ROOT
ATOM      6  C   UNL     1      48.356  17.713  18.692  0.00  0.00    +0.004 C 
ATOM      7  C   UNL     1      47.917  19.170  18.703  0.00  0.00    +0.072 C 
ATOM      8  C   UNL     1      47.922  19.714  20.138  0.00  0.00    -0.143 C 
ATOM     14  C   UNL     1      46.533  20.252  20.445  0.00  0.00    +0.390 C 
ATOM     15  O   UNL     1      46.364  21.385  20.809  0.00  0.00    -0.394 OA
ATOM     16  C   UNL     1      45.375  19.291  20.277  0.00  0.00    -0.077 C 
ATOM     29  C   UNL     1      45.713  17.961  20.905  0.00  0.00    +0.391 C 
ATOM     30  C   UNL     1      47.110  17.389  20.846  0.00  0.00    -0.124 C 
ATOM     36  O   UNL     1      44.836  17.336  21.478  0.00  0.00    -0.393 OA
ATOM     37  C   UNL     1      48.110  18.520  21.064  0.00  0.00    +0.386 C 
ATOM     38  O   UNL     1      48.981  18.473  21.897  0.00  0.00    -0.388 OA
ATOM     39  C   UNL     1      47.391  16.808  19.459  0.00  0.00    -0.026 C 
ATOM     45  C   UNL     1      46.093  16.635  18.671  0.00  0.00    +0.042 C 
ENDROOT
BRANCH  16  17
ATOM     17  C   UNL     1      44.157  19.864  20.966  0.00  0.00    +0.418 C 
ATOM     28  O   UNL     1      44.114  19.917  22.177  0.00  0.00    -0.407 OA
BRANCH  17  18
ATOM     18  C   UNL     1      43.026  20.357  20.170  0.00  0.00    -0.153 A 
ATOM     19  C   UNL     1      41.906  19.541  19.961  0.00  0.00    +0.065 A 
ATOM     20  C   UNL     1      40.847  20.006  19.215  0.00  0.00    +0.006 A 
ATOM     21  C   UNL     1      40.884  21.281  18.666  0.00  0.00    +0.119 A 
ATOM     24  C   UNL     1      41.996  22.099  18.868  0.00  0.00    +0.074 A 
ATOM     27  C   UNL     1      43.061  21.644  19.620  0.00  0.00    +0.081 A 
BRANCH  21  22
ATOM     22  O   UNL     1      39.837  21.732  17.930  0.00  0.00    -0.484 OA
ATOM     23  H   UNL     1      39.634  21.185  17.159  0.00  0.00    +0.395 HD
ENDBRANCH  21  22
BRANCH  24  25
ATOM     25  O   UNL     1      42.029  23.347  18.329  0.00  0.00    -0.482 OA
ATOM     26  H   UNL     1      41.544  24.009  18.839  0.00  0.00    +0.391 HD
ENDBRANCH  24  25
ENDBRANCH  17  18
ENDBRANCH  16  17
BRANCH   6   5
ATOM      5  C   UNL     1      48.448  17.227  17.244  0.00  0.00    +0.069 C 
BRANCH   5   4
ATOM      1  C   UNL     1      51.034  16.108  17.250  0.00  0.00    +0.069 C 
ATOM      2  C   UNL     1      50.782  17.419  16.549  0.00  0.00    -0.134 C 
ATOM      3  C   UNL     1      51.913  18.131  15.854  0.00  0.00    +0.068 C 
ATOM      4  C   UNL     1      49.579  17.939  16.546  0.00  0.00    -0.054 C 
ENDBRANCH   5   4
ENDBRANCH   6   5
BRANCH   8   9
ATOM      9  C   UNL     1      49.000  20.776  20.342  0.00  0.00    +0.117 C 
BRANCH   9  10
ATOM     10  C   UNL     1      49.655  21.087  19.021  0.00  0.00    -0.070 C 
ATOM     11  C   UNL     1      50.954  20.985  18.893  0.00  0.00    -0.105 C 
ATOM     12  C   UNL     1      51.595  21.161  17.541  0.00  0.00    +0.070 C 
ATOM     13  C   UNL     1      51.809  20.694  20.100  0.00  0.00    +0.074 C 
ENDBRANCH   9  10
ENDBRANCH   8   9
BRANCH  30  31
ATOM     31  C   UNL     1      47.293  16.311  21.930  0.00  0.00    +0.119 C 
BRANCH  31  32
ATOM     32  C   UNL     1      46.004  15.551  22.106  0.00  0.00    -0.080 C 
ATOM     33  C   UNL     1      46.030  14.265  22.351  0.00  0.00    -0.101 C 
ATOM     34  C   UNL     1      44.741  13.496  22.482  0.00  0.00    +0.070 C 
ATOM     35  C   UNL     1      47.349  13.554  22.505  0.00  0.00    +0.076 C 
ENDBRANCH  31  32
ENDBRANCH  30  31
BRANCH  39  40
ATOM     40  C   UNL     1      48.040  15.427  19.628  0.00  0.00    +0.076 C 
BRANCH  40  41
ATOM     41  C   UNL     1      47.248  14.402  18.858  0.00  0.00    -0.041 C 
ATOM     42  C   UNL     1      47.837  13.321  18.409  0.00  0.00    -0.131 C 
ATOM     43  C   UNL     1      47.048  12.301  17.630  0.00  0.00    +0.073 C 
ATOM     44  C   UNL     1      49.304  13.098  18.672  0.00  0.00    +0.072 C 
ENDBRANCH  40  41
ENDBRANCH  39  40
TORSDOF 12
ENDMDL
MODEL 2
REMARK VINA RESULT:      -6.7      1.341      1.660
REMARK  Name = ZINC89455853
REMARK  21 active torsions:
REMARK  status: ('A' for Active; 'I' for Inactive)
REMARK    1  A    between atoms: C1_1  and  C2_2
REMARK    2  A    between atoms: C2_2  and  C37_44
REMARK    3  A    between atoms: C3_3  and  C4_4
REMARK    4  A    between atoms: C4_4  and  C5_5
REMARK    5  A    between atoms: C7_8  and  C32_39
REMARK    6  A    between atoms: C9_10  and  C25_28
REMARK    7  A    between atoms: C11_13  and  C20_23
REMARK    8  A    between atoms: C13_16  and  C14_17
REMARK    9  A    between atoms: C13_16  and  C15_18
REMARK   10  A    between atoms: C15_18  and  C16_19
REMARK   11  A    between atoms: C17_20  and  C18_21
REMARK   12  A    between atoms: C17_20  and  C19_22
REMARK   13  A    between atoms: C20_23  and  C21_24
REMARK   14  A    between atoms: C22_25  and  C23_26
REMARK   15  A    between atoms: C22_25  and  C24_27
REMARK   16  A    between atoms: C25_28  and  C26_30
REMARK   17  A    between atoms: C29_33  and  O5_37
REMARK   18  A    between atoms: C30_34  and  O4_36
REMARK   19  A    between atoms: C32_39  and  C33_40
REMARK   20  A    between atoms: C34_41  and  C35_42
REMARK   21  A    between atoms: C34_41  and  C36_43
REMARK                            x       y       z     vdW  Elec       q    Type
REMARK                         _______ _______ _______ _____ _____    ______ ____
ROOT
ATOM      6  C   UNL     1      49.380  18.267  19.170  0.00  0.00    +0.004 C 
ATOM      7  C   UNL     1      49.022  19.645  19.709  0.00  0.00    +0.072 C 
ATOM      8  C   UNL     1      48.705  19.562  21.208  0.00  0.00    -0.143 C 
ATOM     14  C   UNL     1      47.310  20.127  21.429  0.00  0.00    +0.390 C 
ATOM     15  O   UNL     1      47.113  21.032  22.196  0.00  0.00    -0.394 OA
ATOM     16  C   UNL     1      46.183  19.494  20.641  0.00  0.00    -0.077 C 
ATOM     29  C   UNL     1      46.294  17.990  20.701  0.00  0.00    +0.391 C 
ATOM     30  C   UNL     1      47.633  17.293  20.687  0.00  0.00    -0.124 C 
ATOM     36  O   UNL     1      45.274  17.323  20.767  0.00  0.00    -0.393 OA
ATOM     37  C   UNL     1      48.604  18.084  21.559  0.00  0.00    +0.386 C 
ATOM     38  O   UNL     1      49.243  17.581  22.450  0.00  0.00    -0.388 OA
ATOM     39  C   UNL     1      48.215  17.282  19.272  0.00  0.00    -0.026 C 
ATOM     45  C   UNL     1      47.140  17.630  18.242  0.00  0.00    +0.042 C 
ENDROOT
BRANCH  16  17
ATOM     17  C   UNL     1      44.863  19.914  21.249  0.00  0.00    +0.418 C 
ATOM     28  O   UNL     1      44.618  19.652  22.407  0.00  0.00    -0.407 OA
BRANCH  17  18
ATOM     18  C   UNL     1      43.878  20.640  20.436  0.00  0.00    -0.153 A 
ATOM     19  C   UNL     1      42.752  19.973  19.937  0.00  0.00    +0.065 A 
ATOM     20  C   UNL     1      41.830  20.656  19.176  0.00  0.00    +0.006 A 
ATOM     21  C   UNL     1      42.013  22.005  18.901  0.00  0.00    +0.119 A 
ATOM     24  C   UNL     1      43.132  22.676  19.394  0.00  0.00    +0.074 A 
ATOM     27  C   UNL     1      44.059  22.001  20.162  0.00  0.00    +0.081 A 
BRANCH  21  22
ATOM     22  O   UNL     1      41.101  22.672  18.149  0.00  0.00    -0.484 OA
ATOM     23  H   UNL     1      40.235  22.242  18.107  0.00  0.00    +0.395 HD
ENDBRANCH  21  22
BRANCH  24  25
ATOM     25  O   UNL     1      43.308  23.997  19.122  0.00  0.00    -0.482 OA
ATOM     26  H   UNL     1      44.185  24.332  19.350  0.00  0.00    +0.391 HD
ENDBRANCH  24  25
ENDBRANCH  17  18
ENDBRANCH  16  17
BRANCH   6   5
ATOM      5  C   UNL     1      49.798  18.394  17.704  0.00  0.00    +0.069 C 
BRANCH   5   4
ATOM      1  C   UNL     1      51.846  18.597  15.780  0.00  0.00    +0.069 C 
ATOM      2  C   UNL     1      51.462  19.801  16.601  0.00  0.00    -0.134 C 
ATOM      3  C   UNL     1      52.174  21.112  16.394  0.00  0.00    +0.068 C 
ATOM      4  C   UNL     1      50.509  19.706  17.496  0.00  0.00    -0.054 C 
ENDBRANCH   5   4
ENDBRANCH   6   5
BRANCH   8   9
ATOM      9  C   UNL     1      49.751  20.283  22.054  0.00  0.00    +0.117 C 
BRANCH   9  10
ATOM     10  C   UNL     1      50.645  21.100  21.157  0.00  0.00    -0.070 C 
ATOM     11  C   UNL     1      51.900  20.761  20.997  0.00  0.00    -0.105 C 
ATOM     12  C   UNL     1      52.757  21.491  19.996  0.00  0.00    +0.070 C 
ATOM     13  C   UNL     1      52.487  19.638  21.815  0.00  0.00    +0.074 C 
ENDBRANCH   9  10
ENDBRANCH   8   9
BRANCH  30  31
ATOM     31  C   UNL     1      47.495  15.857  21.224  0.00  0.00    +0.119 C 
BRANCH  31  32
ATOM     32  C   UNL     1      46.281  15.207  20.614  0.00  0.00    -0.080 C 
ATOM     33  C   UNL     1      46.210  13.901  20.530  0.00  0.00    -0.101 C 
ATOM     34  C   UNL     1      45.017  13.252  19.878  0.00  0.00    +0.070 C 
ATOM     35  C   UNL     1      47.321  13.049  21.086  0.00  0.00    +0.076 C 
ENDBRANCH  31  32
ENDBRANCH  30  31
BRANCH  39  40
ATOM     40  C   UNL     1      48.735  15.870  18.967  0.00  0.00    +0.076 C 
BRANCH  40  41
ATOM     41  C   UNL     1      48.085  15.356  17.709  0.00  0.00    -0.041 C 
ATOM     42  C   UNL     1      48.358  14.150  17.276  0.00  0.00    -0.131 C 
ATOM     43  C   UNL     1      47.716  13.639  16.012  0.00  0.00    +0.073 C 
ATOM     44  C   UNL     1      49.316  13.274  18.042  0.00  0.00    +0.072 C 
ENDBRANCH  40  41
ENDBRANCH  39  40
TORSDOF 12
ENDMDL
MODEL 3
REMARK VINA RESULT:      -6.6      4.020      8.640
REMARK  Name = ZINC89455853
REMARK  21 active torsions:
REMARK  status: ('A' for Active; 'I' for Inactive)
REMARK    1  A    between atoms: C1_1  and  C2_2
REMARK    2  A    between atoms: C2_2  and  C37_44
REMARK    3  A    between atoms: C3_3  and  C4_4
REMARK    4  A    between atoms: C4_4  and  C5_5
REMARK    5  A    between atoms: C7_8  and  C32_39
REMARK    6  A    between atoms: C9_10  and  C25_28
REMARK    7  A    between atoms: C11_13  and  C20_23
REMARK    8  A    between atoms: C13_16  and  C14_17
REMARK    9  A    between atoms: C13_16  and  C15_18
REMARK   10  A    between atoms: C15_18  and  C16_19
REMARK   11  A    between atoms: C17_20  and  C18_21
REMARK   12  A    between atoms: C17_20  and  C19_22
REMARK   13  A    between atoms: C20_23  and  C21_24
REMARK   14  A    between atoms: C22_25  and  C23_26
REMARK   15  A    between atoms: C22_25  and  C24_27
REMARK   16  A    between atoms: C25_28  and  C26_30
REMARK   17  A    between atoms: C29_33  and  O5_37
REMARK   18  A    between atoms: C30_34  and  O4_36
REMARK   19  A    between atoms: C32_39  and  C33_40
REMARK   20  A    between atoms: C34_41  and  C35_42
REMARK   21  A    between atoms: C34_41  and  C36_43
REMARK                            x       y       z     vdW  Elec       q    Type
REMARK                         _______ _______ _______ _____ _____    ______ ____
ROOT
ATOM      6  C   UNL     1      47.774  16.959  18.519  0.00  0.00    +0.004 C 
ATOM      7  C   UNL     1      47.181  15.592  18.204  0.00  0.00    +0.072 C 
ATOM      8  C   UNL     1      47.626  14.566  19.254  0.00  0.00    -0.143 C 
ATOM     14  C   UNL     1      48.308  13.415  18.533  0.00  0.00    +0.390 C 
ATOM     15  O   UNL     1      47.934  12.279  18.666  0.00  0.00    -0.394 OA
ATOM     16  C   UNL     1      49.484  13.764  17.644  0.00  0.00    -0.077 C 
ATOM     29  C   UNL     1      50.404  14.722  18.360  0.00  0.00    +0.391 C 
ATOM     30  C   UNL     1      49.871  15.803  19.271  0.00  0.00    -0.124 C 
ATOM     36  O   UNL     1      51.609  14.616  18.202  0.00  0.00    -0.393 OA
ATOM     37  C   UNL     1      48.716  15.228  20.086  0.00  0.00    +0.386 C 
ATOM     38  O   UNL     1      48.667  15.294  21.290  0.00  0.00    -0.388 OA
ATOM     39  C   UNL     1      49.301  16.961  18.449  0.00  0.00    -0.026 C 
ATOM     45  C   UNL     1      49.762  16.871  16.995  0.00  0.00    +0.042 C 
ENDROOT
BRANCH  16  17
ATOM     17  C   UNL     1      50.247  12.500  17.319  0.00  0.00    +0.418 C 
ATOM     28  O   UNL     1      50.637  11.780  18.213  0.00  0.00    -0.407 OA
BRANCH  17  18
ATOM     18  C   UNL     1      50.516  12.144  15.919  0.00  0.00    -0.153 A 
ATOM     19  C   UNL     1      50.193  10.866  15.446  0.00  0.00    +0.065 A 
ATOM     20  C   UNL     1      50.446  10.536  14.133  0.00  0.00    +0.006 A 
ATOM     21  C   UNL     1      51.022  11.465  13.277  0.00  0.00    +0.119 A 
ATOM     24  C   UNL     1      51.347  12.739  13.741  0.00  0.00    +0.074 A 
ATOM     27  C   UNL     1      51.092  13.082  15.054  0.00  0.00    +0.081 A 
BRANCH  21  22
ATOM     22  O   UNL     1      51.269  11.131  11.985  0.00  0.00    -0.484 OA
ATOM     23  H   UNL     1      50.828  11.701  11.340  0.00  0.00    +0.395 HD
ENDBRANCH  21  22
BRANCH  24  25
ATOM     25  O   UNL     1      51.911  13.646  12.899  0.00  0.00    -0.482 OA
ATOM     26  H   UNL     1      52.877  13.618  12.881  0.00  0.00    +0.391 HD
ENDBRANCH  24  25
ENDBRANCH  17  18
ENDBRANCH  16  17
BRANCH   6   5
ATOM      5  C   UNL     1      47.228  17.985  17.523  0.00  0.00    +0.069 C 
BRANCH   5   4
ATOM      1  C   UNL     1      46.745  20.473  18.753  0.00  0.00    +0.069 C 
ATOM      2  C   UNL     1      45.601  19.528  18.489  0.00  0.00    -0.134 C 
ATOM      3  C   UNL     1      44.199  19.913  18.884  0.00  0.00    +0.068 C 
ATOM      4  C   UNL     1      45.826  18.371  17.917  0.00  0.00    -0.054 C 
ENDBRANCH   5   4
ENDBRANCH   6   5
BRANCH   8   9
ATOM      9  C   UNL     1      46.459  14.086  20.113  0.00  0.00    +0.117 C 
BRANCH   9  10
ATOM     10  C   UNL     1      45.356  15.112  20.081  0.00  0.00    -0.070 C 
ATOM     11  C   UNL     1      44.994  15.722  21.182  0.00  0.00    -0.105 C 
ATOM     12  C   UNL     1      43.991  16.845  21.127  0.00  0.00    +0.070 C 
ATOM     13  C   UNL     1      45.582  15.300  22.504  0.00  0.00    +0.074 C 
ENDBRANCH   9  10
ENDBRANCH   8   9
BRANCH  30  31
ATOM     31  C   UNL     1      50.980  16.304  20.213  0.00  0.00    +0.119 C 
BRANCH  31  32
ATOM     32  C   UNL     1      51.416  15.182  21.119  0.00  0.00    -0.080 C 
ATOM     33  C   UNL     1      52.682  15.043  21.426  0.00  0.00    -0.101 C 
ATOM     34  C   UNL     1      53.125  13.894  22.294  0.00  0.00    +0.070 C 
ATOM     35  C   UNL     1      53.694  16.034  20.914  0.00  0.00    +0.076 C 
ENDBRANCH  31  32
ENDBRANCH  30  31
BRANCH  39  40
ATOM     40  C   UNL     1      49.819  18.281  19.038  0.00  0.00    +0.076 C 
BRANCH  40  41
ATOM     41  C   UNL     1      50.493  19.084  17.956  0.00  0.00    -0.041 C 
ATOM     42  C   UNL     1      50.743  20.356  18.143  0.00  0.00    -0.131 C 
ATOM     43  C   UNL     1      51.407  21.162  17.057  0.00  0.00    +0.073 C 
ATOM     44  C   UNL     1      50.366  21.014  19.446  0.00  0.00    +0.072 C 
ENDBRANCH  40  41
ENDBRANCH  39  40
TORSDOF 12
ENDMDL
MODEL 4
REMARK VINA RESULT:      -6.4      3.215      7.506
REMARK  Name = ZINC89455853
REMARK  21 active torsions:
REMARK  status: ('A' for Active; 'I' for Inactive)
REMARK    1  A    between atoms: C1_1  and  C2_2
REMARK    2  A    between atoms: C2_2  and  C37_44
REMARK    3  A    between atoms: C3_3  and  C4_4
REMARK    4  A    between atoms: C4_4  and  C5_5
REMARK    5  A    between atoms: C7_8  and  C32_39
REMARK    6  A    between atoms: C9_10  and  C25_28
REMARK    7  A    between atoms: C11_13  and  C20_23
REMARK    8  A    between atoms: C13_16  and  C14_17
REMARK    9  A    between atoms: C13_16  and  C15_18
REMARK   10  A    between atoms: C15_18  and  C16_19
REMARK   11  A    between atoms: C17_20  and  C18_21
REMARK   12  A    between atoms: C17_20  and  C19_22
REMARK   13  A    between atoms: C20_23  and  C21_24
REMARK   14  A    between atoms: C22_25  and  C23_26
REMARK   15  A    between atoms: C22_25  and  C24_27
REMARK   16  A    between atoms: C25_28  and  C26_30
REMARK   17  A    between atoms: C29_33  and  O5_37
REMARK   18  A    between atoms: C30_34  and  O4_36
REMARK   19  A    between atoms: C32_39  and  C33_40
REMARK   20  A    between atoms: C34_41  and  C35_42
REMARK   21  A    between atoms: C34_41  and  C36_43
REMARK                            x       y       z     vdW  Elec       q    Type
REMARK                         _______ _______ _______ _____ _____    ______ ____
ROOT
ATOM      6  C   UNL     1      47.623  18.379  19.440  0.00  0.00    +0.004 C 
ATOM      7  C   UNL     1      46.567  17.325  19.743  0.00  0.00    +0.072 C 
ATOM      8  C   UNL     1      47.064  16.378  20.843  0.00  0.00    -0.143 C 
ATOM     14  C   UNL     1      47.005  14.956  20.307  0.00  0.00    +0.390 C 
ATOM     15  O   UNL     1      46.390  14.094  20.876  0.00  0.00    -0.394 OA
ATOM     16  C   UNL     1      47.762  14.677  19.025  0.00  0.00    -0.077 C 
ATOM     29  C   UNL     1      49.139  15.292  19.096  0.00  0.00    +0.391 C 
ATOM     30  C   UNL     1      49.381  16.619  19.776  0.00  0.00    -0.124 C 
ATOM     36  O   UNL     1      50.080  14.698  18.595  0.00  0.00    -0.393 OA
ATOM     37  C   UNL     1      48.543  16.675  21.049  0.00  0.00    +0.386 C 
ATOM     38  O   UNL     1      49.010  16.936  22.130  0.00  0.00    -0.388 OA
ATOM     39  C   UNL     1      48.910  17.770  18.884  0.00  0.00    -0.026 C 
ATOM     45  C   UNL     1      48.688  17.287  17.450  0.00  0.00    +0.042 C 
ENDROOT
BRANCH  16  17
ATOM     17  C   UNL     1      47.901  13.182  18.852  0.00  0.00    +0.418 C 
ATOM     28  O   UNL     1      48.536  12.534  19.657  0.00  0.00    -0.407 OA
BRANCH  17  18
ATOM     18  C   UNL     1      47.265  12.513  17.710  0.00  0.00    -0.153 A 
ATOM     19  C   UNL     1      45.869  12.440  17.627  0.00  0.00    +0.065 A 
ATOM     20  C   UNL     1      45.276  11.812  16.554  0.00  0.00    +0.006 A 
ATOM     21  C   UNL     1      46.058  11.250  15.553  0.00  0.00    +0.119 A 
ATOM     24  C   UNL     1      47.449  11.319  15.629  0.00  0.00    +0.074 A 
ATOM     27  C   UNL     1      48.053  11.950  16.698  0.00  0.00    +0.081 A 
BRANCH  21  22
ATOM     22  O   UNL     1      45.467  10.632  14.499  0.00  0.00    -0.484 OA
ATOM     23  H   UNL     1      45.487   9.667  14.547  0.00  0.00    +0.395 HD
ENDBRANCH  21  22
BRANCH  24  25
ATOM     25  O   UNL     1      48.211  10.767  14.647  0.00  0.00    -0.482 OA
ATOM     26  H   UNL     1      48.110   9.809  14.562  0.00  0.00    +0.391 HD
ENDBRANCH  24  25
ENDBRANCH  17  18
ENDBRANCH  16  17
BRANCH   6   5
ATOM      5  C   UNL     1      47.063  19.374  18.421  0.00  0.00    +0.069 C 
BRANCH   5   4
ATOM      1  C   UNL     1      45.454  21.502  19.326  0.00  0.00    +0.069 C 
ATOM      2  C   UNL     1      44.813  20.245  18.798  0.00  0.00    -0.134 C 
ATOM      3  C   UNL     1      43.311  20.126  18.756  0.00  0.00    +0.068 C 
ATOM      4  C   UNL     1      45.560  19.255  18.377  0.00  0.00    -0.054 C 
ENDBRANCH   5   4
ENDBRANCH   6   5
BRANCH   8   9
ATOM      9  C   UNL     1      46.261  16.532  22.133  0.00  0.00    +0.117 C 
BRANCH   9  10
ATOM     10  C   UNL     1      45.563  17.867  22.134  0.00  0.00    -0.070 C 
ATOM     11  C   UNL     1      44.260  17.926  22.254  0.00  0.00    -0.105 C 
ATOM     12  C   UNL     1      43.575  19.260  22.395  0.00  0.00    +0.070 C 
ATOM     13  C   UNL     1      43.445  16.658  22.249  0.00  0.00    +0.074 C 
ENDBRANCH   9  10
ENDBRANCH   8   9
BRANCH  30  31
ATOM     31  C   UNL     1      50.872  16.780  20.122  0.00  0.00    +0.119 C 
BRANCH  31  32
ATOM     32  C   UNL     1      51.325  15.606  20.950  0.00  0.00    -0.080 C 
ATOM     33  C   UNL     1      52.421  15.692  21.664  0.00  0.00    -0.101 C 
ATOM     34  C   UNL     1      52.900  14.503  22.456  0.00  0.00    +0.070 C 
ATOM     35  C   UNL     1      53.200  16.981  21.694  0.00  0.00    +0.076 C 
ENDBRANCH  31  32
ENDBRANCH  30  31
BRANCH  39  40
ATOM     40  C   UNL     1      49.999  18.852  18.864  0.00  0.00    +0.076 C 
BRANCH  40  41
ATOM     41  C   UNL     1      50.622  18.914  17.494  0.00  0.00    -0.041 C 
ATOM     42  C   UNL     1      51.278  19.984  17.120  0.00  0.00    -0.131 C 
ATOM     43  C   UNL     1      51.892  20.051  15.746  0.00  0.00    +0.073 C 
ATOM     44  C   UNL     1      51.419  21.150  18.065  0.00  0.00    +0.072 C 
ENDBRANCH  40  41
ENDBRANCH  39  40
TORSDOF 12
ENDMDL
MODEL 5
REMARK VINA RESULT:      -6.1      4.129      7.700
REMARK  Name = ZINC89455853
REMARK  21 active torsions:
REMARK  status: ('A' for Active; 'I' for Inactive)
REMARK    1  A    between atoms: C1_1  and  C2_2
REMARK    2  A    between atoms: C2_2  and  C37_44
REMARK    3  A    between atoms: C3_3  and  C4_4
REMARK    4  A    between atoms: C4_4  and  C5_5
REMARK    5  A    between atoms: C7_8  and  C32_39
REMARK    6  A    between atoms: C9_10  and  C25_28
REMARK    7  A    between atoms: C11_13  and  C20_23
REMARK    8  A    between atoms: C13_16  and  C14_17
REMARK    9  A    between atoms: C13_16  and  C15_18
REMARK   10  A    between atoms: C15_18  and  C16_19
REMARK   11  A    between atoms: C17_20  and  C18_21
REMARK   12  A    between atoms: C17_20  and  C19_22
REMARK   13  A    between atoms: C20_23  and  C21_24
REMARK   14  A    between atoms: C22_25  and  C23_26
REMARK   15  A    between atoms: C22_25  and  C24_27
REMARK   16  A    between atoms: C25_28  and  C26_30
REMARK   17  A    between atoms: C29_33  and  O5_37
REMARK   18  A    between atoms: C30_34  and  O4_36
REMARK   19  A    between atoms: C32_39  and  C33_40
REMARK   20  A    between atoms: C34_41  and  C35_42
REMARK   21  A    between atoms: C34_41  and  C36_43
REMARK                            x       y       z     vdW  Elec       q    Type
REMARK                         _______ _______ _______ _____ _____    ______ ____
ROOT
ATOM      6  C   UNL     1      49.902  17.050  19.801  0.00  0.00    +0.004 C 
ATOM      7  C   UNL     1      51.095  17.030  18.856  0.00  0.00    +0.072 C 
ATOM      8  C   UNL     1      50.619  16.887  17.404  0.00  0.00    -0.143 C 
ATOM     14  C   UNL     1      51.292  15.663  16.802  0.00  0.00    +0.390 C 
ATOM     15  O   UNL     1      51.947  15.737  15.796  0.00  0.00    -0.394 OA
ATOM     16  C   UNL     1      51.094  14.348  17.527  0.00  0.00    -0.077 C 
ATOM     29  C   UNL     1      49.641  14.178  17.896  0.00  0.00    +0.391 C 
ATOM     30  C   UNL     1      48.790  15.349  18.328  0.00  0.00    -0.124 C 
ATOM     36  O   UNL     1      49.141  13.066  17.840  0.00  0.00    -0.393 OA
ATOM     37  C   UNL     1      49.135  16.551  17.455  0.00  0.00    +0.386 C 
ATOM     38  O   UNL     1      48.302  17.187  16.857  0.00  0.00    -0.388 OA
ATOM     39  C   UNL     1      49.114  15.741  19.771  0.00  0.00    -0.026 C 
ATOM     45  C   UNL     1      49.905  14.634  20.468  0.00  0.00    +0.042 C 
ENDROOT
BRANCH  16  17
ATOM     17  C   UNL     1      51.504  13.217  16.611  0.00  0.00    +0.418 C 
ATOM     28  O   UNL     1      52.253  12.352  17.013  0.00  0.00    -0.407 OA
BRANCH  17  18
ATOM     18  C   UNL     1      50.995  13.165  15.234  0.00  0.00    -0.153 A 
ATOM     19  C   UNL     1      49.648  12.866  14.995  0.00  0.00    +0.065 A 
ATOM     20  C   UNL     1      49.174  12.819  13.703  0.00  0.00    +0.006 A 
ATOM     21  C   UNL     1      50.027  13.067  12.635  0.00  0.00    +0.119 A 
ATOM     24  C   UNL     1      51.370  13.365  12.866  0.00  0.00    +0.074 A 
ATOM     27  C   UNL     1      51.854  13.420  14.158  0.00  0.00    +0.081 A 
BRANCH  21  22
ATOM     22  O   UNL     1      49.553  13.017  11.365  0.00  0.00    -0.484 OA
ATOM     23  H   UNL     1      49.057  12.212  11.161  0.00  0.00    +0.395 HD
ENDBRANCH  21  22
BRANCH  24  25
ATOM     25  O   UNL     1      52.202  13.606  11.818  0.00  0.00    -0.482 OA
ATOM     26  H   UNL     1      52.847  12.903  11.657  0.00  0.00    +0.391 HD
ENDBRANCH  24  25
ENDBRANCH  17  18
ENDBRANCH  16  17
BRANCH   6   5
ATOM      5  C   UNL     1      50.395  17.303  21.227  0.00  0.00    +0.069 C 
BRANCH   5   4
ATOM      1  C   UNL     1      52.808  18.481  22.080  0.00  0.00    +0.069 C 
ATOM      2  C   UNL     1      51.583  19.335  21.878  0.00  0.00    -0.134 C 
ATOM      3  C   UNL     1      51.648  20.818  22.133  0.00  0.00    +0.068 C 
ATOM      4  C   UNL     1      50.461  18.787  21.481  0.00  0.00    -0.054 C 
ENDBRANCH   5   4
ENDBRANCH   6   5
BRANCH   8   9
ATOM      9  C   UNL     1      50.895  18.146  16.586  0.00  0.00    +0.117 C 
BRANCH   9  10
ATOM     10  C   UNL     1      52.000  18.936  17.239  0.00  0.00    -0.070 C 
ATOM     11  C   UNL     1      51.721  20.029  17.905  0.00  0.00    -0.105 C 
ATOM     12  C   UNL     1      52.804  20.741  18.673  0.00  0.00    +0.070 C 
ATOM     13  C   UNL     1      50.316  20.573  17.903  0.00  0.00    +0.074 C 
ENDBRANCH   9  10
ENDBRANCH   8   9
BRANCH  30  31
ATOM     31  C   UNL     1      47.296  15.007  18.184  0.00  0.00    +0.119 C 
BRANCH  31  32
ATOM     32  C   UNL     1      47.119  13.969  17.106  0.00  0.00    -0.080 C 
ATOM     33  C   UNL     1      46.232  13.017  17.253  0.00  0.00    -0.101 C 
ATOM     34  C   UNL     1      46.087  11.952  16.197  0.00  0.00    +0.070 C 
ATOM     35  C   UNL     1      45.355  12.987  18.478  0.00  0.00    +0.076 C 
ENDBRANCH  31  32
ENDBRANCH  30  31
BRANCH  39  40
ATOM     40  C   UNL     1      47.795  15.942  20.532  0.00  0.00    +0.076 C 
BRANCH  40  41
ATOM     41  C   UNL     1      47.492  14.711  21.346  0.00  0.00    -0.041 C 
ATOM     42  C   UNL     1      46.255  14.432  21.675  0.00  0.00    -0.131 C 
ATOM     43  C   UNL     1      45.952  13.207  22.499  0.00  0.00    +0.073 C 
ATOM     44  C   UNL     1      45.134  15.336  21.230  0.00  0.00    +0.072 C 
ENDBRANCH  40  41
ENDBRANCH  39  40
TORSDOF 12
ENDMDL
MODEL 6
REMARK VINA RESULT:      -5.9      2.495      4.217
REMARK  Name = ZINC89455853
REMARK  21 active torsions:
REMARK  status: ('A' for Active; 'I' for Inactive)
REMARK    1  A    between atoms: C1_1  and  C2_2
REMARK    2  A    between atoms: C2_2  and  C37_44
REMARK    3  A    between atoms: C3_3  and  C4_4
REMARK    4  A    between atoms: C4_4  and  C5_5
REMARK    5  A    between atoms: C7_8  and  C32_39
REMARK    6  A    between atoms: C9_10  and  C25_28
REMARK    7  A    between atoms: C11_13  and  C20_23
REMARK    8  A    between atoms: C13_16  and  C14_17
REMARK    9  A    between atoms: C13_16  and  C15_18
REMARK   10  A    between atoms: C15_18  and  C16_19
REMARK   11  A    between atoms: C17_20  and  C18_21
REMARK   12  A    between atoms: C17_20  and  C19_22
REMARK   13  A    between atoms: C20_23  and  C21_24
REMARK   14  A    between atoms: C22_25  and  C23_26
REMARK   15  A    between atoms: C22_25  and  C24_27
REMARK   16  A    between atoms: C25_28  and  C26_30
REMARK   17  A    between atoms: C29_33  and  O5_37
REMARK   18  A    between atoms: C30_34  and  O4_36
REMARK   19  A    between atoms: C32_39  and  C33_40
REMARK   20  A    between atoms: C34_41  and  C35_42
REMARK   21  A    between atoms: C34_41  and  C36_43
REMARK                            x       y       z     vdW  Elec       q    Type
REMARK                         _______ _______ _______ _____ _____    ______ ____
ROOT
ATOM      6  C   UNL     1      50.242  15.473  18.830  0.00  0.00    +0.004 C 
ATOM      7  C   UNL     1      49.730  16.505  19.825  0.00  0.00    +0.072 C 
ATOM      8  C   UNL     1      49.009  15.808  20.987  0.00  0.00    -0.143 C 
ATOM     14  C   UNL     1      47.601  16.375  21.079  0.00  0.00    +0.390 C 
ATOM     15  O   UNL     1      47.186  16.866  22.095  0.00  0.00    -0.394 OA
ATOM     16  C   UNL     1      46.745  16.286  19.833  0.00  0.00    -0.077 C 
ATOM     29  C   UNL     1      46.856  14.907  19.230  0.00  0.00    +0.391 C 
ATOM     30  C   UNL     1      48.156  14.138  19.241  0.00  0.00    -0.124 C 
ATOM     36  O   UNL     1      45.867  14.400  18.725  0.00  0.00    -0.393 OA
ATOM     37  C   UNL     1      48.835  14.349  20.591  0.00  0.00    +0.386 C 
ATOM     38  O   UNL     1      49.209  13.436  21.286  0.00  0.00    -0.388 OA
ATOM     39  C   UNL     1      49.108  14.684  18.174  0.00  0.00    -0.026 C 
ATOM     45  C   UNL     1      48.357  15.569  17.180  0.00  0.00    +0.042 C 
ENDROOT
BRANCH  16  17
ATOM     17  C   UNL     1      45.304  16.544  20.208  0.00  0.00    +0.418 C 
ATOM     28  O   UNL     1      44.671  15.699  20.806  0.00  0.00    -0.407 OA
BRANCH  17  18
ATOM     18  C   UNL     1      44.668  17.818  19.848  0.00  0.00    -0.153 A 
ATOM     19  C   UNL     1      45.206  18.606  18.823  0.00  0.00    +0.065 A 
ATOM     20  C   UNL     1      44.608  19.800  18.487  0.00  0.00    +0.006 A 
ATOM     21  C   UNL     1      43.472  20.227  19.163  0.00  0.00    +0.119 A 
ATOM     24  C   UNL     1      42.930  19.448  20.185  0.00  0.00    +0.074 A 
ATOM     27  C   UNL     1      43.519  18.247  20.525  0.00  0.00    +0.081 A 
BRANCH  21  22
ATOM     22  O   UNL     1      42.888  21.405  18.827  0.00  0.00    -0.484 OA
ATOM     23  H   UNL     1      41.925  21.405  18.910  0.00  0.00    +0.395 HD
ENDBRANCH  21  22
BRANCH  24  25
ATOM     25  O   UNL     1      41.818  19.869  20.844  0.00  0.00    -0.482 OA
ATOM     26  H   UNL     1      41.015  19.381  20.614  0.00  0.00    +0.391 HD
ENDBRANCH  24  25
ENDBRANCH  17  18
ENDBRANCH  16  17
BRANCH   6   5
ATOM      5  C   UNL     1      51.049  16.182  17.740  0.00  0.00    +0.069 C 
BRANCH   5   4
ATOM      1  C   UNL     1      51.486  18.468  16.152  0.00  0.00    +0.069 C 
ATOM      2  C   UNL     1      51.938  18.451  17.590  0.00  0.00    -0.134 C 
ATOM      3  C   UNL     1      52.625  19.657  18.177  0.00  0.00    +0.068 C 
ATOM      4  C   UNL     1      51.735  17.389  18.329  0.00  0.00    -0.054 C 
ENDBRANCH   5   4
ENDBRANCH   6   5
BRANCH   8   9
ATOM      9  C   UNL     1      49.769  15.960  22.302  0.00  0.00    +0.117 C 
BRANCH   9  10
ATOM     10  C   UNL     1      50.990  16.816  22.081  0.00  0.00    -0.070 C 
ATOM     11  C   UNL     1      52.178  16.266  22.041  0.00  0.00    -0.105 C 
ATOM     12  C   UNL     1      53.382  17.098  21.682  0.00  0.00    +0.070 C 
ATOM     13  C   UNL     1      52.341  14.800  22.353  0.00  0.00    +0.074 C 
ENDBRANCH   9  10
ENDBRANCH   8   9
BRANCH  30  31
ATOM     31  C   UNL     1      47.894  12.639  19.014  0.00  0.00    +0.119 C 
BRANCH  31  32
ATOM     32  C   UNL     1      46.780  12.469  18.013  0.00  0.00    -0.080 C 
ATOM     33  C   UNL     1      46.711  11.380  17.289  0.00  0.00    -0.101 C 
ATOM     34  C   UNL     1      45.624  11.230  16.256  0.00  0.00    +0.070 C 
ATOM     35  C   UNL     1      47.716  10.277  17.490  0.00  0.00    +0.076 C 
ENDBRANCH  31  32
ENDBRANCH  30  31
BRANCH  39  40
ATOM     40  C   UNL     1      49.712  13.500  17.405  0.00  0.00    +0.076 C 
BRANCH  40  41
ATOM     41  C   UNL     1      49.331  13.599  15.951  0.00  0.00    -0.041 C 
ATOM     42  C   UNL     1      49.725  12.678  15.106  0.00  0.00    -0.131 C 
ATOM     43  C   UNL     1      49.353  12.782  13.650  0.00  0.00    +0.073 C 
ATOM     44  C   UNL     1      50.551  11.515  15.591  0.00  0.00    +0.072 C 
ENDBRANCH  40  41
ENDBRANCH  39  40
TORSDOF 12
ENDMDL
MODEL 7
REMARK VINA RESULT:      -5.8      2.001      3.311
REMARK  Name = ZINC89455853
REMARK  21 active torsions:
REMARK  status: ('A' for Active; 'I' for Inactive)
REMARK    1  A    between atoms: C1_1  and  C2_2
REMARK    2  A    between atoms: C2_2  and  C37_44
REMARK    3  A    between atoms: C3_3  and  C4_4
REMARK    4  A    between atoms: C4_4  and  C5_5
REMARK    5  A    between atoms: C7_8  and  C32_39
REMARK    6  A    between atoms: C9_10  and  C25_28
REMARK    7  A    between atoms: C11_13  and  C20_23
REMARK    8  A    between atoms: C13_16  and  C14_17
REMARK    9  A    between atoms: C13_16  and  C15_18
REMARK   10  A    between atoms: C15_18  and  C16_19
REMARK   11  A    between atoms: C17_20  and  C18_21
REMARK   12  A    between atoms: C17_20  and  C19_22
REMARK   13  A    between atoms: C20_23  and  C21_24
REMARK   14  A    between atoms: C22_25  and  C23_26
REMARK   15  A    between atoms: C22_25  and  C24_27
REMARK   16  A    between atoms: C25_28  and  C26_30
REMARK   17  A    between atoms: C29_33  and  O5_37
REMARK   18  A    between atoms: C30_34  and  O4_36
REMARK   19  A    between atoms: C32_39  and  C33_40
REMARK   20  A    between atoms: C34_41  and  C35_42
REMARK   21  A    between atoms: C34_41  and  C36_43
REMARK                            x       y       z     vdW  Elec       q    Type
REMARK                         _______ _______ _______ _____ _____    ______ ____
ROOT
ATOM      6  C   UNL     1      49.462  16.679  18.632  0.00  0.00    +0.004 C 
ATOM      7  C   UNL     1      48.930  17.724  19.602  0.00  0.00    +0.072 C 
ATOM      8  C   UNL     1      48.630  17.080  20.962  0.00  0.00    -0.143 C 
ATOM     14  C   UNL     1      47.175  17.357  21.306  0.00  0.00    +0.390 C 
ATOM     15  O   UNL     1      46.864  17.902  22.332  0.00  0.00    -0.394 OA
ATOM     16  C   UNL     1      46.136  16.909  20.299  0.00  0.00    -0.077 C 
ATOM     29  C   UNL     1      46.442  15.506  19.834  0.00  0.00    +0.391 C 
ATOM     30  C   UNL     1      47.861  15.027  19.636  0.00  0.00    -0.124 C 
ATOM     36  O   UNL     1      45.517  14.739  19.619  0.00  0.00    -0.393 OA
ATOM     37  C   UNL     1      48.723  15.573  20.770  0.00  0.00    +0.386 C 
ATOM     38  O   UNL     1      49.424  14.871  21.456  0.00  0.00    -0.388 OA
ATOM     39  C   UNL     1      48.435  15.587  18.332  0.00  0.00    -0.026 C 
ATOM     45  C   UNL     1      47.321  16.140  17.443  0.00  0.00    +0.042 C 
ENDROOT
BRANCH  16  17
ATOM     17  C   UNL     1      44.775  16.924  20.957  0.00  0.00    +0.418 C 
ATOM     28  O   UNL     1      44.482  16.067  21.764  0.00  0.00    -0.407 OA
BRANCH  17  18
ATOM     18  C   UNL     1      43.808  17.976  20.620  0.00  0.00    -0.153 A 
ATOM     19  C   UNL     1      44.050  18.831  19.537  0.00  0.00    +0.065 A 
ATOM     20  C   UNL     1      43.140  19.816  19.223  0.00  0.00    +0.006 A 
ATOM     21  C   UNL     1      41.983  19.966  19.977  0.00  0.00    +0.119 A 
ATOM     24  C   UNL     1      41.735  19.118  21.056  0.00  0.00    +0.074 A 
ATOM     27  C   UNL     1      42.639  18.124  21.376  0.00  0.00    +0.081 A 
BRANCH  21  22
ATOM     22  O   UNL     1      41.092  20.940  19.662  0.00  0.00    -0.484 OA
ATOM     23  H   UNL     1      41.063  21.667  20.299  0.00  0.00    +0.395 HD
ENDBRANCH  21  22
BRANCH  24  25
ATOM     25  O   UNL     1      40.602  19.268  21.792  0.00  0.00    -0.482 OA
ATOM     26  H   UNL     1      40.117  18.445  21.941  0.00  0.00    +0.391 HD
ENDBRANCH  24  25
ENDBRANCH  17  18
ENDBRANCH  16  17
BRANCH   6   5
ATOM      5  C   UNL     1      49.856  17.364  17.321  0.00  0.00    +0.069 C 
BRANCH   5   4
ATOM      1  C   UNL     1      51.897  18.612  15.833  0.00  0.00    +0.069 C 
ATOM      2  C   UNL     1      51.167  19.382  16.903  0.00  0.00    -0.134 C 
ATOM      3  C   UNL     1      51.529  20.818  17.177  0.00  0.00    +0.068 C 
ATOM      4  C   UNL     1      50.217  18.802  17.595  0.00  0.00    -0.054 C 
ENDBRANCH   5   4
ENDBRANCH   6   5
BRANCH   8   9
ATOM      9  C   UNL     1      49.575  17.580  22.051  0.00  0.00    +0.117 C 
BRANCH   9  10
ATOM     10  C   UNL     1      50.251  18.845  21.588  0.00  0.00    -0.070 C 
ATOM     11  C   UNL     1      51.525  18.836  21.286  0.00  0.00    -0.105 C 
ATOM     12  C   UNL     1      52.168  20.062  20.692  0.00  0.00    +0.070 C 
ATOM     13  C   UNL     1      52.349  17.598  21.533  0.00  0.00    +0.074 C 
ENDBRANCH   9  10
ENDBRANCH   8   9
BRANCH  30  31
ATOM     31  C   UNL     1      47.911  13.489  19.631  0.00  0.00    +0.119 C 
BRANCH  31  32
ATOM     32  C   UNL     1      49.270  13.029  20.093  0.00  0.00    -0.080 C 
ATOM     33  C   UNL     1      49.680  11.816  19.816  0.00  0.00    -0.101 C 
ATOM     34  C   UNL     1      51.019  11.341  20.318  0.00  0.00    +0.070 C 
ATOM     35  C   UNL     1      48.813  10.898  18.995  0.00  0.00    +0.076 C 
ENDBRANCH  31  32
ENDBRANCH  30  31
BRANCH  39  40
ATOM     40  C   UNL     1      49.133  14.448  17.576  0.00  0.00    +0.076 C 
BRANCH  40  41
ATOM     41  C   UNL     1      48.296  14.044  16.390  0.00  0.00    -0.041 C 
ATOM     42  C   UNL     1      48.722  13.112  15.574  0.00  0.00    -0.131 C 
ATOM     43  C   UNL     1      47.891  12.716  14.381  0.00  0.00    +0.073 C 
ATOM     44  C   UNL     1      50.045  12.436  15.827  0.00  0.00    +0.072 C 
ENDBRANCH  40  41
ENDBRANCH  39  40
TORSDOF 12
ENDMDL
MODEL 8
REMARK VINA RESULT:      -5.7      3.687      7.958
REMARK  Name = ZINC89455853
REMARK  21 active torsions:
REMARK  status: ('A' for Active; 'I' for Inactive)
REMARK    1  A    between atoms: C1_1  and  C2_2
REMARK    2  A    between atoms: C2_2  and  C37_44
REMARK    3  A    between atoms: C3_3  and  C4_4
REMARK    4  A    between atoms: C4_4  and  C5_5
REMARK    5  A    between atoms: C7_8  and  C32_39
REMARK    6  A    between atoms: C9_10  and  C25_28
REMARK    7  A    between atoms: C11_13  and  C20_23
REMARK    8  A    between atoms: C13_16  and  C14_17
REMARK    9  A    between atoms: C13_16  and  C15_18
REMARK   10  A    between atoms: C15_18  and  C16_19
REMARK   11  A    between atoms: C17_20  and  C18_21
REMARK   12  A    between atoms: C17_20  and  C19_22
REMARK   13  A    between atoms: C20_23  and  C21_24
REMARK   14  A    between atoms: C22_25  and  C23_26
REMARK   15  A    between atoms: C22_25  and  C24_27
REMARK   16  A    between atoms: C25_28  and  C26_30
REMARK   17  A    between atoms: C29_33  and  O5_37
REMARK   18  A    between atoms: C30_34  and  O4_36
REMARK   19  A    between atoms: C32_39  and  C33_40
REMARK   20  A    between atoms: C34_41  and  C35_42
REMARK   21  A    between atoms: C34_41  and  C36_43
REMARK                            x       y       z     vdW  Elec       q    Type
REMARK                         _______ _______ _______ _____ _____    ______ ____
ROOT
ATOM      6  C   UNL     1      48.255  16.751  19.850  0.00  0.00    +0.004 C 
ATOM      7  C   UNL     1      49.669  17.026  19.357  0.00  0.00    +0.072 C 
ATOM      8  C   UNL     1      49.785  16.689  17.864  0.00  0.00    -0.143 C 
ATOM     14  C   UNL     1      50.909  15.680  17.693  0.00  0.00    +0.390 C 
ATOM     15  O   UNL     1      51.835  15.889  16.955  0.00  0.00    -0.394 OA
ATOM     16  C   UNL     1      50.804  14.396  18.490  0.00  0.00    -0.077 C 
ATOM     29  C   UNL     1      49.405  13.839  18.386  0.00  0.00    +0.391 C 
ATOM     30  C   UNL     1      48.193  14.740  18.349  0.00  0.00    -0.124 C 
ATOM     36  O   UNL     1      49.252  12.630  18.327  0.00  0.00    -0.393 OA
ATOM     37  C   UNL     1      48.512  15.950  17.476  0.00  0.00    +0.386 C 
ATOM     38  O   UNL     1      47.812  16.296  16.557  0.00  0.00    -0.388 OA
ATOM     39  C   UNL     1      47.881  15.272  19.749  0.00  0.00    -0.026 C 
ATOM     45  C   UNL     1      48.626  14.467  20.814  0.00  0.00    +0.042 C 
ENDROOT
BRANCH  16  17
ATOM     17  C   UNL     1      51.778  13.387  17.926  0.00  0.00    +0.418 C 
ATOM     28  O   UNL     1      52.796  13.122  18.530  0.00  0.00    -0.407 OA
BRANCH  17  18
ATOM     18  C   UNL     1      51.491  12.726  16.646  0.00  0.00    -0.153 A 
ATOM     19  C   UNL     1      51.228  11.350  16.609  0.00  0.00    +0.065 A 
ATOM     20  C   UNL     1      50.960  10.734  15.408  0.00  0.00    +0.006 A 
ATOM     21  C   UNL     1      50.949  11.471  14.231  0.00  0.00    +0.119 A 
ATOM     24  C   UNL     1      51.210  12.840  14.259  0.00  0.00    +0.074 A 
ATOM     27  C   UNL     1      51.475  13.469  15.459  0.00  0.00    +0.081 A 
BRANCH  21  22
ATOM     22  O   UNL     1      50.685  10.856  13.050  0.00  0.00    -0.484 OA
ATOM     23  H   UNL     1      51.379  10.250  12.758  0.00  0.00    +0.395 HD
ENDBRANCH  21  22
BRANCH  24  25
ATOM     25  O   UNL     1      51.199  13.558  13.104  0.00  0.00    -0.482 OA
ATOM     26  H   UNL     1      50.368  14.022  12.937  0.00  0.00    +0.391 HD
ENDBRANCH  24  25
ENDBRANCH  17  18
ENDBRANCH  16  17
BRANCH   6   5
ATOM      5  C   UNL     1      48.135  17.197  21.309  0.00  0.00    +0.069 C 
BRANCH   5   4
ATOM      1  C   UNL     1      47.079  19.806  21.196  0.00  0.00    +0.069 C 
ATOM      2  C   UNL     1      48.542  19.598  21.493  0.00  0.00    -0.134 C 
ATOM      3  C   UNL     1      49.439  20.785  21.729  0.00  0.00    +0.068 C 
ATOM      4  C   UNL     1      49.033  18.385  21.546  0.00  0.00    -0.054 C 
ENDBRANCH   5   4
ENDBRANCH   6   5
BRANCH   8   9
ATOM      9  C   UNL     1      50.007  17.937  17.014  0.00  0.00    +0.117 C 
BRANCH   9  10
ATOM     10  C   UNL     1      50.306  19.110  17.911  0.00  0.00    -0.070 C 
ATOM     11  C   UNL     1      51.237  19.970  17.579  0.00  0.00    -0.105 C 
ATOM     12  C   UNL     1      51.441  21.215  18.402  0.00  0.00    +0.070 C 
ATOM     13  C   UNL     1      52.105  19.712  16.374  0.00  0.00    +0.074 C 
ENDBRANCH   9  10
ENDBRANCH   8   9
BRANCH  30  31
ATOM     31  C   UNL     1      46.981  13.984  17.777  0.00  0.00    +0.119 C 
BRANCH  31  32
ATOM     32  C   UNL     1      47.303  13.495  16.388  0.00  0.00    -0.080 C 
ATOM     33  C   UNL     1      47.000  12.270  16.038  0.00  0.00    -0.101 C 
ATOM     34  C   UNL     1      47.364  11.767  14.665  0.00  0.00    +0.070 C 
ATOM     35  C   UNL     1      46.286  11.365  17.008  0.00  0.00    +0.076 C 
ENDBRANCH  31  32
ENDBRANCH  30  31
BRANCH  39  40
ATOM     40  C   UNL     1      46.374  15.127  20.003  0.00  0.00    +0.076 C 
BRANCH  40  41
ATOM     41  C   UNL     1      45.672  16.400  19.607  0.00  0.00    -0.041 C 
ATOM     42  C   UNL     1      44.745  16.907  20.382  0.00  0.00    -0.131 C 
ATOM     43  C   UNL     1      44.036  18.173  19.981  0.00  0.00    +0.073 C 
ATOM     44  C   UNL     1      44.389  16.222  21.676  0.00  0.00    +0.072 C 
ENDBRANCH  40  41
ENDBRANCH  39  40
TORSDOF 12
ENDMDL
MODEL 9
REMARK VINA RESULT:      -5.5      3.825      8.610
REMARK  Name = ZINC89455853
REMARK  21 active torsions:
REMARK  status: ('A' for Active; 'I' for Inactive)
REMARK    1  A    between atoms: C1_1  and  C2_2
REMARK    2  A    between atoms: C2_2  and  C37_44
REMARK    3  A    between atoms: C3_3  and  C4_4
REMARK    4  A    between atoms: C4_4  and  C5_5
REMARK    5  A    between atoms: C7_8  and  C32_39
REMARK    6  A    between atoms: C9_10  and  C25_28
REMARK    7  A    between atoms: C11_13  and  C20_23
REMARK    8  A    between atoms: C13_16  and  C14_17
REMARK    9  A    between atoms: C13_16  and  C15_18
REMARK   10  A    between atoms: C15_18  and  C16_19
REMARK   11  A    between atoms: C17_20  and  C18_21
REMARK   12  A    between atoms: C17_20  and  C19_22
REMARK   13  A    between atoms: C20_23  and  C21_24
REMARK   14  A    between atoms: C22_25  and  C23_26
REMARK   15  A    between atoms: C22_25  and  C24_27
REMARK   16  A    between atoms: C25_28  and  C26_30
REMARK   17  A    between atoms: C29_33  and  O5_37
REMARK   18  A    between atoms: C30_34  and  O4_36
REMARK   19  A    between atoms: C32_39  and  C33_40
REMARK   20  A    between atoms: C34_41  and  C35_42
REMARK   21  A    between atoms: C34_41  and  C36_43
REMARK                            x       y       z     vdW  Elec       q    Type
REMARK                         _______ _______ _______ _____ _____    ______ ____
ROOT
ATOM      6  C   UNL     1      49.250  17.309  20.668  0.00  0.00    +0.004 C 
ATOM      7  C   UNL     1      50.452  17.530  19.761  0.00  0.00    +0.072 C 
ATOM      8  C   UNL     1      50.315  16.687  18.485  0.00  0.00    -0.143 C 
ATOM     14  C   UNL     1      51.548  15.806  18.365  0.00  0.00    +0.390 C 
ATOM     15  O   UNL     1      52.243  15.827  17.384  0.00  0.00    -0.394 OA
ATOM     16  C   UNL     1      51.855  14.896  19.537  0.00  0.00    -0.077 C 
ATOM     29  C   UNL     1      50.596  14.199  19.991  0.00  0.00    +0.391 C 
ATOM     30  C   UNL     1      49.256  14.896  19.980  0.00  0.00    -0.124 C 
ATOM     36  O   UNL     1      50.664  13.042  20.373  0.00  0.00    -0.393 OA
ATOM     37  C   UNL     1      49.152  15.731  18.708  0.00  0.00    +0.386 C 
ATOM     38  O   UNL     1      48.223  15.647  17.943  0.00  0.00    -0.388 OA
ATOM     39  C   UNL     1      49.148  15.865  21.159  0.00  0.00    -0.026 C 
ATOM     45  C   UNL     1      50.237  15.582  22.194  0.00  0.00    +0.042 C 
ENDROOT
BRANCH  16  17
ATOM     17  C   UNL     1      52.862  13.856  19.100  0.00  0.00    +0.418 C 
ATOM     28  O   UNL     1      52.531  12.973  18.338  0.00  0.00    -0.407 OA
BRANCH  17  18
ATOM     18  C   UNL     1      54.243  13.916  19.598  0.00  0.00    -0.153 A 
ATOM     19  C   UNL     1      54.760  12.859  20.358  0.00  0.00    +0.065 A 
ATOM     20  C   UNL     1      56.055  12.917  20.823  0.00  0.00    +0.006 A 
ATOM     21  C   UNL     1      56.850  14.021  20.542  0.00  0.00    +0.119 A 
ATOM     24  C   UNL     1      56.342  15.077  19.787  0.00  0.00    +0.074 A 
ATOM     27  C   UNL     1      55.047  15.025  19.311  0.00  0.00    +0.081 A 
BRANCH  21  22
ATOM     22  O   UNL     1      58.125  14.071  21.005  0.00  0.00    -0.484 OA
ATOM     23  H   UNL     1      58.704  14.658  20.500  0.00  0.00    +0.395 HD
ENDBRANCH  21  22
BRANCH  24  25
ATOM     25  O   UNL     1      57.123  16.156  19.514  0.00  0.00    -0.482 OA
ATOM     26  H   UNL     1      56.668  17.004  19.603  0.00  0.00    +0.391 HD
ENDBRANCH  24  25
ENDBRANCH  17  18
ENDBRANCH  16  17
BRANCH   6   5
ATOM      5  C   UNL     1      49.356  18.240  21.878  0.00  0.00    +0.069 C 
BRANCH   5   4
ATOM      1  C   UNL     1      48.843  20.836  20.913  0.00  0.00    +0.069 C 
ATOM      2  C   UNL     1      50.256  20.413  21.222  0.00  0.00    -0.134 C 
ATOM      3  C   UNL     1      51.395  21.378  21.013  0.00  0.00    +0.068 C 
ATOM      4  C   UNL     1      50.495  19.205  21.671  0.00  0.00    -0.054 C 
ENDBRANCH   5   4
ENDBRANCH   6   5
BRANCH   8   9
ATOM      9  C   UNL     1      50.116  17.557  17.246  0.00  0.00    +0.117 C 
BRANCH   9  10
ATOM     10  C   UNL     1      50.420  18.993  17.586  0.00  0.00    -0.070 C 
ATOM     11  C   UNL     1      51.258  19.678  16.850  0.00  0.00    -0.105 C 
ATOM     12  C   UNL     1      51.457  21.150  17.104  0.00  0.00    +0.070 C 
ATOM     13  C   UNL     1      52.026  18.994  15.747  0.00  0.00    +0.074 C 
ENDBRANCH   9  10
ENDBRANCH   8   9
BRANCH  30  31
ATOM     31  C   UNL     1      48.116  13.863  20.025  0.00  0.00    +0.119 C 
BRANCH  31  32
ATOM     32  C   UNL     1      48.278  12.885  18.890  0.00  0.00    -0.080 C 
ATOM     33  C   UNL     1      47.226  12.463  18.234  0.00  0.00    -0.101 C 
ATOM     34  C   UNL     1      47.382  11.450  17.130  0.00  0.00    +0.070 C 
ATOM     35  C   UNL     1      45.859  12.991  18.582  0.00  0.00    +0.076 C 
ENDBRANCH  31  32
ENDBRANCH  30  31
BRANCH  39  40
ATOM     40  C   UNL     1      47.782  15.668  21.832  0.00  0.00    +0.076 C 
BRANCH  40  41
ATOM     41  C   UNL     1      46.787  16.633  21.241  0.00  0.00    -0.041 C 
ATOM     42  C   UNL     1      45.521  16.304  21.166  0.00  0.00    -0.131 C 
ATOM     43  C   UNL     1      44.527  17.264  20.565  0.00  0.00    +0.073 C 
ATOM     44  C   UNL     1      45.059  14.965  21.679  0.00  0.00    +0.072 C 
ENDBRANCH  40  41
ENDBRANCH  39  40
TORSDOF 12
ENDMDL
