MODEL 1
REMARK VINA RESULT:      -6.5      0.000      0.000
REMARK  Name = ZINC95485927
REMARK  15 active torsions:
REMARK  status: ('A' for Active; 'I' for Inactive)
REMARK    1  A    between atoms: C1_1  and  C2_2
REMARK    2  A    between atoms: C5_5  and  C40_48
REMARK    3  A    between atoms: C10_11  and  C32_39
REMARK    4  A    between atoms: C14_16  and  C31_38
REMARK    5  A    between atoms: C17_19  and  O1_24
REMARK    6  A    between atoms: C18_21  and  C19_22
REMARK    7  A    between atoms: C18_21  and  C20_23
REMARK    8  A    between atoms: O1_24  and  C21_25
REMARK    9  A    between atoms: C21_25  and  C22_27
REMARK   10  A    between atoms: C23_28  and  C24_29
REMARK   11  A    between atoms: C27_32  and  O4_37
REMARK   12  A    between atoms: C28_33  and  O3_35
REMARK   13  A    between atoms: O3_35  and  C30_36
REMARK   14  A    between atoms: C35_43  and  C38_46
REMARK   15  A    between atoms: C35_43  and  C39_47
REMARK                            x       y       z     vdW  Elec       q    Type
REMARK                         _______ _______ _______ _____ _____    ______ ____
ROOT
ATOM      1  C   UNL     1      51.874  12.576  17.567  0.00  0.00    +0.023 C 
ATOM      2  C   UNL     1      50.419  12.233  17.252  0.00  0.00    -0.044 C 
ATOM      3  C   UNL     1      49.659  11.994  18.560  0.00  0.00    +0.008 C 
ATOM      4  C   UNL     1      49.778  13.210  19.479  0.00  0.00    +0.022 C 
ATOM      5  C   UNL     1      49.274  14.483  18.812  0.00  0.00    +0.001 C 
ATOM      6  C   UNL     1      47.749  14.352  18.679  0.00  0.00    +0.017 C 
ATOM      7  C   UNL     1      49.801  14.616  17.408  0.00  0.00    -0.089 C 
ATOM      8  C   UNL     1      50.264  15.725  16.911  0.00  0.00    -0.066 C 
ATOM      9  C   UNL     1      50.324  17.023  17.670  0.00  0.00    +0.059 C 
ATOM     10  C   UNL     1      49.328  16.972  18.829  0.00  0.00    +0.006 C 
ATOM     11  C   UNL     1      49.333  18.286  19.610  0.00  0.00    -0.035 C 
ATOM     12  C   UNL     1      50.753  18.705  19.979  0.00  0.00    +0.028 C 
ATOM     13  C   UNL     1      48.744  19.380  18.700  0.00  0.00    +0.027 C 
ATOM     14  C   UNL     1      48.685  20.698  19.465  0.00  0.00    +0.004 C 
ATOM     15  C   UNL     1      47.762  20.577  20.669  0.00  0.00    +0.184 C 
ATOM     31  C   UNL     1      48.146  19.419  21.591  0.00  0.00    -0.041 C 
ATOM     32  C   UNL     1      49.296  19.838  22.505  0.00  0.00    +0.039 C 
ATOM     33  C   UNL     1      46.916  19.167  22.500  0.00  0.00    +0.018 C 
ATOM     34  C   UNL     1      48.432  18.146  20.828  0.00  0.00    +0.003 C 
ATOM     35  C   UNL     1      48.945  17.017  21.721  0.00  0.00    +0.019 C 
ATOM     36  C   UNL     1      48.748  15.706  20.938  0.00  0.00    +0.015 C 
ATOM     37  C   UNL     1      49.582  15.721  19.660  0.00  0.00    -0.023 C 
ATOM     38  C   UNL     1      51.066  15.646  20.056  0.00  0.00    +0.018 C 
ATOM     39  C   UNL     1      50.368  10.976  16.387  0.00  0.00    +0.011 C 
ATOM     40  C   UNL     1      51.028  11.219  15.035  0.00  0.00    +0.013 C 
ATOM     41  C   UNL     1      50.405  12.403  14.304  0.00  0.00    -0.060 C 
ATOM     42  C   UNL     1      51.227  12.685  13.036  0.00  0.00    +0.015 C 
ATOM     43  C   UNL     1      48.973  12.065  13.884  0.00  0.00    +0.019 C 
ATOM     44  C   UNL     1      50.415  13.655  15.180  0.00  0.00    +0.026 C 
ATOM     45  C   UNL     1      49.743  13.390  16.516  0.00  0.00    +0.037 C 
ENDROOT
BRANCH  15  16
ATOM     16  O   UNL     1      47.800  21.799  21.418  0.00  0.00    -0.340 OA
BRANCH  16  17
ATOM     17  C   UNL     1      46.744  22.629  21.290  0.00  0.00    +0.499 C 
ATOM     30  O   UNL     1      46.878  23.820  21.492  0.00  0.00    -0.514 OA
BRANCH  17  18
ATOM     18  C   UNL     1      45.477  22.111  20.918  0.00  0.00    -0.060 C 
ATOM     19  C   UNL     1      44.780  22.688  19.916  0.00  0.00    +0.147 C 
BRANCH  19  20
ATOM     20  C   UNL     1      43.465  22.152  19.531  0.00  0.00    -0.056 A 
ATOM     21  C   UNL     1      42.561  22.952  18.823  0.00  0.00    +0.025 A 
ATOM     22  C   UNL     1      41.331  22.447  18.464  0.00  0.00    +0.033 A 
ATOM     23  C   UNL     1      40.985  21.146  18.803  0.00  0.00    +0.095 A 
ATOM     26  C   UNL     1      41.880  20.343  19.508  0.00  0.00    +0.100 A 
ATOM     29  C   UNL     1      43.117  20.839  19.868  0.00  0.00    -0.027 A 
BRANCH  23  24
ATOM     24  O   UNL     1      39.770  20.655  18.446  0.00  0.00    -0.485 OA
ATOM     25  H   UNL     1      39.026  21.078  18.896  0.00  0.00    +0.392 HD
ENDBRANCH  23  24
BRANCH  26  27
ATOM     27  O   UNL     1      41.537  19.069  19.838  0.00  0.00    -0.306 OA
ATOM     28  C   UNL     1      41.001  18.859  21.146  0.00  0.00    +0.242 C 
ENDBRANCH  26  27
ENDBRANCH  19  20
ENDBRANCH  17  18
ENDBRANCH  16  17
ENDBRANCH  15  16
TORSDOF 6
ENDMDL
MODEL 2
REMARK VINA RESULT:      -6.4      4.805     10.881
REMARK  Name = ZINC95485927
REMARK  15 active torsions:
REMARK  status: ('A' for Active; 'I' for Inactive)
REMARK    1  A    between atoms: C1_1  and  C2_2
REMARK    2  A    between atoms: C5_5  and  C40_48
REMARK    3  A    between atoms: C10_11  and  C32_39
REMARK    4  A    between atoms: C14_16  and  C31_38
REMARK    5  A    between atoms: C17_19  and  O1_24
REMARK    6  A    between atoms: C18_21  and  C19_22
REMARK    7  A    between atoms: C18_21  and  C20_23
REMARK    8  A    between atoms: O1_24  and  C21_25
REMARK    9  A    between atoms: C21_25  and  C22_27
REMARK   10  A    between atoms: C23_28  and  C24_29
REMARK   11  A    between atoms: C27_32  and  O4_37
REMARK   12  A    between atoms: C28_33  and  O3_35
REMARK   13  A    between atoms: O3_35  and  C30_36
REMARK   14  A    between atoms: C35_43  and  C38_46
REMARK   15  A    between atoms: C35_43  and  C39_47
REMARK                            x       y       z     vdW  Elec       q    Type
REMARK                         _______ _______ _______ _____ _____    ______ ____
ROOT
ATOM      1  C   UNL     1      43.921  18.705  19.657  0.00  0.00    +0.023 C 
ATOM      2  C   UNL     1      44.564  18.664  21.042  0.00  0.00    -0.044 C 
ATOM      3  C   UNL     1      44.204  17.344  21.730  0.00  0.00    +0.008 C 
ATOM      4  C   UNL     1      44.626  16.156  20.864  0.00  0.00    +0.022 C 
ATOM      5  C   UNL     1      46.114  16.183  20.540  0.00  0.00    +0.001 C 
ATOM      6  C   UNL     1      46.868  15.889  21.846  0.00  0.00    +0.017 C 
ATOM      7  C   UNL     1      46.559  17.555  20.107  0.00  0.00    -0.089 C 
ATOM      8  C   UNL     1      47.350  17.774  19.099  0.00  0.00    -0.066 C 
ATOM      9  C   UNL     1      47.933  16.685  18.239  0.00  0.00    +0.059 C 
ATOM     10  C   UNL     1      47.900  15.366  19.011  0.00  0.00    +0.006 C 
ATOM     11  C   UNL     1      48.513  14.236  18.184  0.00  0.00    -0.035 C 
ATOM     12  C   UNL     1      47.920  14.194  16.779  0.00  0.00    +0.028 C 
ATOM     13  C   UNL     1      50.022  14.515  18.047  0.00  0.00    +0.027 C 
ATOM     14  C   UNL     1      50.678  13.378  17.270  0.00  0.00    +0.004 C 
ATOM     15  C   UNL     1      50.536  12.063  18.023  0.00  0.00    +0.184 C 
ATOM     31  C   UNL     1      49.081  11.734  18.362  0.00  0.00    -0.041 C 
ATOM     32  C   UNL     1      48.387  11.121  17.146  0.00  0.00    +0.039 C 
ATOM     33  C   UNL     1      49.132  10.634  19.453  0.00  0.00    +0.018 C 
ATOM     34  C   UNL     1      48.339  12.921  18.930  0.00  0.00    +0.003 C 
ATOM     35  C   UNL     1      46.852  12.647  19.149  0.00  0.00    +0.019 C 
ATOM     36  C   UNL     1      46.341  13.720  20.127  0.00  0.00    +0.015 C 
ATOM     37  C   UNL     1      46.484  15.109  19.513  0.00  0.00    -0.023 C 
ATOM     38  C   UNL     1      45.485  15.224  18.350  0.00  0.00    +0.018 C 
ATOM     39  C   UNL     1      44.052  19.837  21.876  0.00  0.00    +0.011 C 
ATOM     40  C   UNL     1      44.486  21.166  21.268  0.00  0.00    +0.013 C 
ATOM     41  C   UNL     1      45.999  21.244  21.096  0.00  0.00    -0.060 C 
ATOM     42  C   UNL     1      46.340  22.534  20.331  0.00  0.00    +0.015 C 
ATOM     43  C   UNL     1      46.680  21.302  22.465  0.00  0.00    +0.019 C 
ATOM     44  C   UNL     1      46.523  20.051  20.298  0.00  0.00    +0.026 C 
ATOM     45  C   UNL     1      46.086  18.740  20.929  0.00  0.00    +0.037 C 
ENDROOT
BRANCH  15  16
ATOM     16  O   UNL     1      51.079  11.002  17.227  0.00  0.00    -0.340 OA
BRANCH  16  17
ATOM     17  C   UNL     1      52.204  11.272  16.531  0.00  0.00    +0.499 C 
ATOM     30  O   UNL     1      53.291  11.150  17.061  0.00  0.00    -0.514 OA
BRANCH  17  18
ATOM     18  C   UNL     1      52.117  11.699  15.182  0.00  0.00    -0.060 C 
ATOM     19  C   UNL     1      51.253  11.094  14.338  0.00  0.00    +0.147 C 
BRANCH  19  20
ATOM     20  C   UNL     1      51.163  11.536  12.938  0.00  0.00    -0.056 A 
ATOM     21  C   UNL     1      50.669  12.810  12.634  0.00  0.00    +0.025 A 
ATOM     22  C   UNL     1      50.586  13.220  11.323  0.00  0.00    +0.033 A 
ATOM     23  C   UNL     1      50.989  12.373  10.299  0.00  0.00    +0.095 A 
ATOM     26  C   UNL     1      51.482  11.102  10.594  0.00  0.00    +0.100 A 
ATOM     29  C   UNL     1      51.575  10.685  11.906  0.00  0.00    -0.027 A 
BRANCH  23  24
ATOM     24  O   UNL     1      50.904  12.785   9.007  0.00  0.00    -0.485 OA
ATOM     25  H   UNL     1      51.265  13.668   8.851  0.00  0.00    +0.392 HD
ENDBRANCH  23  24
BRANCH  26  27
ATOM     27  O   UNL     1      51.877  10.277   9.588  0.00  0.00    -0.306 OA
ATOM     28  C   UNL     1      53.233  10.388   9.151  0.00  0.00    +0.242 C 
ENDBRANCH  26  27
ENDBRANCH  19  20
ENDBRANCH  17  18
ENDBRANCH  16  17
ENDBRANCH  15  16
TORSDOF 6
ENDMDL
MODEL 3
REMARK VINA RESULT:      -6.4      4.450     10.850
REMARK  Name = ZINC95485927
REMARK  15 active torsions:
REMARK  status: ('A' for Active; 'I' for Inactive)
REMARK    1  A    between atoms: C1_1  and  C2_2
REMARK    2  A    between atoms: C5_5  and  C40_48
REMARK    3  A    between atoms: C10_11  and  C32_39
REMARK    4  A    between atoms: C14_16  and  C31_38
REMARK    5  A    between atoms: C17_19  and  O1_24
REMARK    6  A    between atoms: C18_21  and  C19_22
REMARK    7  A    between atoms: C18_21  and  C20_23
REMARK    8  A    between atoms: O1_24  and  C21_25
REMARK    9  A    between atoms: C21_25  and  C22_27
REMARK   10  A    between atoms: C23_28  and  C24_29
REMARK   11  A    between atoms: C27_32  and  O4_37
REMARK   12  A    between atoms: C28_33  and  O3_35
REMARK   13  A    between atoms: O3_35  and  C30_36
REMARK   14  A    between atoms: C35_43  and  C38_46
REMARK   15  A    between atoms: C35_43  and  C39_47
REMARK                            x       y       z     vdW  Elec       q    Type
REMARK                         _______ _______ _______ _____ _____    ______ ____
ROOT
ATOM      1  C   UNL     1      45.524  21.087  22.394  0.00  0.00    +0.023 C 
ATOM      2  C   UNL     1      46.257  22.064  21.475  0.00  0.00    -0.044 C 
ATOM      3  C   UNL     1      47.732  22.134  21.880  0.00  0.00    +0.008 C 
ATOM      4  C   UNL     1      48.361  20.740  21.857  0.00  0.00    +0.022 C 
ATOM      5  C   UNL     1      48.228  20.075  20.493  0.00  0.00    +0.001 C 
ATOM      6  C   UNL     1      49.147  20.838  19.526  0.00  0.00    +0.017 C 
ATOM      7  C   UNL     1      46.835  20.221  19.941  0.00  0.00    -0.089 C 
ATOM      8  C   UNL     1      46.179  19.256  19.369  0.00  0.00    -0.066 C 
ATOM      9  C   UNL     1      46.730  17.869  19.173  0.00  0.00    +0.059 C 
ATOM     10  C   UNL     1      48.256  17.921  19.246  0.00  0.00    +0.006 C 
ATOM     11  C   UNL     1      48.860  16.536  19.020  0.00  0.00    -0.035 C 
ATOM     12  C   UNL     1      48.193  15.490  19.909  0.00  0.00    +0.028 C 
ATOM     13  C   UNL     1      48.601  16.139  17.555  0.00  0.00    +0.027 C 
ATOM     14  C   UNL     1      49.236  14.780  17.277  0.00  0.00    +0.004 C 
ATOM     15  C   UNL     1      50.746  14.848  17.458  0.00  0.00    +0.184 C 
ATOM     31  C   UNL     1      51.150  15.378  18.835  0.00  0.00    -0.041 C 
ATOM     32  C   UNL     1      51.069  14.257  19.871  0.00  0.00    +0.039 C 
ATOM     33  C   UNL     1      52.643  15.778  18.721  0.00  0.00    +0.018 C 
ATOM     34  C   UNL     1      50.366  16.606  19.233  0.00  0.00    +0.003 C 
ATOM     35  C   UNL     1      50.662  17.069  20.659  0.00  0.00    +0.019 C 
ATOM     36  C   UNL     1      50.185  18.529  20.761  0.00  0.00    +0.015 C 
ATOM     37  C   UNL     1      48.678  18.612  20.537  0.00  0.00    -0.023 C 
ATOM     38  C   UNL     1      47.978  17.953  21.737  0.00  0.00    +0.018 C 
ATOM     39  C   UNL     1      45.622  23.448  21.595  0.00  0.00    +0.011 C 
ATOM     40  C   UNL     1      44.180  23.429  21.098  0.00  0.00    +0.013 C 
ATOM     41  C   UNL     1      44.079  22.910  19.669  0.00  0.00    -0.060 C 
ATOM     42  C   UNL     1      42.592  22.765  19.303  0.00  0.00    +0.015 C 
ATOM     43  C   UNL     1      44.718  23.908  18.701  0.00  0.00    +0.019 C 
ATOM     44  C   UNL     1      44.749  21.543  19.533  0.00  0.00    +0.026 C 
ATOM     45  C   UNL     1      46.186  21.590  20.024  0.00  0.00    +0.037 C 
ENDROOT
BRANCH  15  16
ATOM     16  O   UNL     1      51.302  13.539  17.283  0.00  0.00    -0.340 OA
BRANCH  16  17
ATOM     17  C   UNL     1      50.649  12.703  16.448  0.00  0.00    +0.499 C 
ATOM     30  O   UNL     1      50.006  11.774  16.897  0.00  0.00    -0.514 OA
BRANCH  17  18
ATOM     18  C   UNL     1      50.714  12.909  15.046  0.00  0.00    -0.060 C 
ATOM     19  C   UNL     1      50.731  11.850  14.209  0.00  0.00    +0.147 C 
BRANCH  19  20
ATOM     20  C   UNL     1      50.799  12.063  12.755  0.00  0.00    -0.056 A 
ATOM     21  C   UNL     1      50.358  13.271  12.202  0.00  0.00    +0.025 A 
ATOM     22  C   UNL     1      50.423  13.468  10.841  0.00  0.00    +0.033 A 
ATOM     23  C   UNL     1      50.924  12.470  10.014  0.00  0.00    +0.095 A 
ATOM     26  C   UNL     1      51.364  11.265  10.558  0.00  0.00    +0.100 A 
ATOM     29  C   UNL     1      51.309  11.061  11.922  0.00  0.00    -0.027 A 
BRANCH  23  24
ATOM     24  O   UNL     1      50.984  12.671   8.672  0.00  0.00    -0.485 OA
ATOM     25  H   UNL     1      51.560  12.050   8.206  0.00  0.00    +0.392 HD
ENDBRANCH  23  24
BRANCH  26  27
ATOM     27  O   UNL     1      51.854  10.291   9.745  0.00  0.00    -0.306 OA
ATOM     28  C   UNL     1      53.267  10.277   9.528  0.00  0.00    +0.242 C 
ENDBRANCH  26  27
ENDBRANCH  19  20
ENDBRANCH  17  18
ENDBRANCH  16  17
ENDBRANCH  15  16
TORSDOF 6
ENDMDL
MODEL 4
REMARK VINA RESULT:      -6.2      3.947     10.237
REMARK  Name = ZINC95485927
REMARK  15 active torsions:
REMARK  status: ('A' for Active; 'I' for Inactive)
REMARK    1  A    between atoms: C1_1  and  C2_2
REMARK    2  A    between atoms: C5_5  and  C40_48
REMARK    3  A    between atoms: C10_11  and  C32_39
REMARK    4  A    between atoms: C14_16  and  C31_38
REMARK    5  A    between atoms: C17_19  and  O1_24
REMARK    6  A    between atoms: C18_21  and  C19_22
REMARK    7  A    between atoms: C18_21  and  C20_23
REMARK    8  A    between atoms: O1_24  and  C21_25
REMARK    9  A    between atoms: C21_25  and  C22_27
REMARK   10  A    between atoms: C23_28  and  C24_29
REMARK   11  A    between atoms: C27_32  and  O4_37
REMARK   12  A    between atoms: C28_33  and  O3_35
REMARK   13  A    between atoms: O3_35  and  C30_36
REMARK   14  A    between atoms: C35_43  and  C38_46
REMARK   15  A    between atoms: C35_43  and  C39_47
REMARK                            x       y       z     vdW  Elec       q    Type
REMARK                         _______ _______ _______ _____ _____    ______ ____
ROOT
ATOM      1  C   UNL     1      44.658  21.198  21.046  0.00  0.00    +0.023 C 
ATOM      2  C   UNL     1      44.345  20.836  19.595  0.00  0.00    -0.044 C 
ATOM      3  C   UNL     1      45.533  21.216  18.708  0.00  0.00    +0.008 C 
ATOM      4  C   UNL     1      46.812  20.540  19.207  0.00  0.00    +0.022 C 
ATOM      5  C   UNL     1      46.673  19.025  19.265  0.00  0.00    +0.001 C 
ATOM      6  C   UNL     1      46.608  18.519  17.816  0.00  0.00    +0.017 C 
ATOM      7  C   UNL     1      45.372  18.615  19.904  0.00  0.00    -0.089 C 
ATOM      8  C   UNL     1      45.266  17.663  20.783  0.00  0.00    -0.066 C 
ATOM      9  C   UNL     1      46.428  16.838  21.269  0.00  0.00    +0.059 C 
ATOM     10  C   UNL     1      47.561  16.916  20.245  0.00  0.00    +0.006 C 
ATOM     11  C   UNL     1      48.751  16.065  20.685  0.00  0.00    -0.035 C 
ATOM     12  C   UNL     1      49.145  16.367  22.128  0.00  0.00    +0.028 C 
ATOM     13  C   UNL     1      48.328  14.586  20.615  0.00  0.00    +0.027 C 
ATOM     14  C   UNL     1      49.511  13.702  20.999  0.00  0.00    +0.004 C 
ATOM     15  C   UNL     1      50.656  13.883  20.012  0.00  0.00    +0.184 C 
ATOM     31  C   UNL     1      51.082  15.344  19.868  0.00  0.00    -0.041 C 
ATOM     32  C   UNL     1      52.003  15.737  21.021  0.00  0.00    +0.039 C 
ATOM     33  C   UNL     1      51.927  15.419  18.571  0.00  0.00    +0.018 C 
ATOM     34  C   UNL     1      49.902  16.275  19.711  0.00  0.00    +0.003 C 
ATOM     35  C   UNL     1      50.302  17.750  19.698  0.00  0.00    +0.019 C 
ATOM     36  C   UNL     1      49.124  18.525  19.083  0.00  0.00    +0.015 C 
ATOM     37  C   UNL     1      47.878  18.377  19.951  0.00  0.00    -0.023 C 
ATOM     38  C   UNL     1      48.119  19.136  21.267  0.00  0.00    +0.018 C 
ATOM     39  C   UNL     1      43.098  21.592  19.140  0.00  0.00    +0.011 C 
ATOM     40  C   UNL     1      41.876  21.155  19.939  0.00  0.00    +0.013 C 
ATOM     41  C   UNL     1      41.653  19.649  19.859  0.00  0.00    -0.060 C 
ATOM     42  C   UNL     1      40.512  19.269  20.817  0.00  0.00    +0.015 C 
ATOM     43  C   UNL     1      41.242  19.254  18.439  0.00  0.00    +0.019 C 
ATOM     44  C   UNL     1      42.911  18.886  20.274  0.00  0.00    +0.026 C 
ATOM     45  C   UNL     1      44.112  19.332  19.456  0.00  0.00    +0.037 C 
ENDROOT
BRANCH  15  16
ATOM     16  O   UNL     1      51.782  13.112  20.451  0.00  0.00    -0.340 OA
BRANCH  16  17
ATOM     17  C   UNL     1      51.918  11.875  19.928  0.00  0.00    +0.499 C 
ATOM     30  O   UNL     1      52.371  10.974  20.608  0.00  0.00    -0.514 OA
BRANCH  17  18
ATOM     18  C   UNL     1      51.533  11.626  18.587  0.00  0.00    -0.060 C 
ATOM     19  C   UNL     1      52.439  11.742  17.592  0.00  0.00    +0.147 C 
BRANCH  19  20
ATOM     20  C   UNL     1      52.040  11.485  16.200  0.00  0.00    -0.056 A 
ATOM     21  C   UNL     1      52.709  10.515  15.446  0.00  0.00    +0.025 A 
ATOM     22  C   UNL     1      52.333  10.277  14.143  0.00  0.00    +0.033 A 
ATOM     23  C   UNL     1      51.291  10.998  13.574  0.00  0.00    +0.095 A 
ATOM     26  C   UNL     1      50.620  11.966  14.319  0.00  0.00    +0.100 A 
ATOM     29  C   UNL     1      50.986  12.208  15.628  0.00  0.00    -0.027 A 
BRANCH  23  24
ATOM     24  O   UNL     1      50.926  10.758  12.288  0.00  0.00    -0.485 OA
ATOM     25  H   UNL     1      50.402  11.466  11.888  0.00  0.00    +0.392 HD
ENDBRANCH  23  24
BRANCH  26  27
ATOM     27  O   UNL     1      49.600  12.669  13.758  0.00  0.00    -0.306 OA
ATOM     28  C   UNL     1      48.298  12.485  14.320  0.00  0.00    +0.242 C 
ENDBRANCH  26  27
ENDBRANCH  19  20
ENDBRANCH  17  18
ENDBRANCH  16  17
ENDBRANCH  15  16
TORSDOF 6
ENDMDL
MODEL 5
REMARK VINA RESULT:      -5.9      1.420      2.079
REMARK  Name = ZINC95485927
REMARK  15 active torsions:
REMARK  status: ('A' for Active; 'I' for Inactive)
REMARK    1  A    between atoms: C1_1  and  C2_2
REMARK    2  A    between atoms: C5_5  and  C40_48
REMARK    3  A    between atoms: C10_11  and  C32_39
REMARK    4  A    between atoms: C14_16  and  C31_38
REMARK    5  A    between atoms: C17_19  and  O1_24
REMARK    6  A    between atoms: C18_21  and  C19_22
REMARK    7  A    between atoms: C18_21  and  C20_23
REMARK    8  A    between atoms: O1_24  and  C21_25
REMARK    9  A    between atoms: C21_25  and  C22_27
REMARK   10  A    between atoms: C23_28  and  C24_29
REMARK   11  A    between atoms: C27_32  and  O4_37
REMARK   12  A    between atoms: C28_33  and  O3_35
REMARK   13  A    between atoms: O3_35  and  C30_36
REMARK   14  A    between atoms: C35_43  and  C38_46
REMARK   15  A    between atoms: C35_43  and  C39_47
REMARK                            x       y       z     vdW  Elec       q    Type
REMARK                         _______ _______ _______ _____ _____    ______ ____
ROOT
ATOM      1  C   UNL     1      50.173  12.803  15.462  0.00  0.00    +0.023 C 
ATOM      2  C   UNL     1      49.682  12.073  16.712  0.00  0.00    -0.044 C 
ATOM      3  C   UNL     1      50.716  12.228  17.830  0.00  0.00    +0.008 C 
ATOM      4  C   UNL     1      50.996  13.708  18.100  0.00  0.00    +0.022 C 
ATOM      5  C   UNL     1      49.729  14.474  18.455  0.00  0.00    +0.001 C 
ATOM      6  C   UNL     1      49.282  13.992  19.844  0.00  0.00    +0.017 C 
ATOM      7  C   UNL     1      48.600  14.137  17.518  0.00  0.00    -0.089 C 
ATOM      8  C   UNL     1      47.799  15.023  17.003  0.00  0.00    -0.066 C 
ATOM      9  C   UNL     1      47.890  16.499  17.283  0.00  0.00    +0.059 C 
ATOM     10  C   UNL     1      48.652  16.714  18.591  0.00  0.00    +0.006 C 
ATOM     11  C   UNL     1      48.740  18.201  18.931  0.00  0.00    -0.035 C 
ATOM     12  C   UNL     1      49.234  19.014  17.738  0.00  0.00    +0.028 C 
ATOM     13  C   UNL     1      47.322  18.693  19.277  0.00  0.00    +0.027 C 
ATOM     14  C   UNL     1      47.378  20.165  19.673  0.00  0.00    +0.004 C 
ATOM     15  C   UNL     1      48.229  20.351  20.921  0.00  0.00    +0.184 C 
ATOM     31  C   UNL     1      49.634  19.765  20.768  0.00  0.00    -0.041 C 
ATOM     32  C   UNL     1      50.527  20.741  20.004  0.00  0.00    +0.039 C 
ATOM     33  C   UNL     1      50.211  19.653  22.202  0.00  0.00    +0.018 C 
ATOM     34  C   UNL     1      49.617  18.381  20.162  0.00  0.00    +0.003 C 
ATOM     35  C   UNL     1      51.017  17.835  19.880  0.00  0.00    +0.019 C 
ATOM     36  C   UNL     1      50.876  16.311  19.720  0.00  0.00    +0.015 C 
ATOM     37  C   UNL     1      49.987  15.982  18.525  0.00  0.00    -0.023 C 
ATOM     38  C   UNL     1      50.740  16.378  17.244  0.00  0.00    +0.018 C 
ATOM     39  C   UNL     1      49.485  10.593  16.391  0.00  0.00    +0.011 C 
ATOM     40  C   UNL     1      48.385  10.403  15.353  0.00  0.00    +0.013 C 
ATOM     41  C   UNL     1      47.072  11.039  15.795  0.00  0.00    -0.060 C 
ATOM     42  C   UNL     1      46.068  10.951  14.634  0.00  0.00    +0.015 C 
ATOM     43  C   UNL     1      46.495  10.277  16.989  0.00  0.00    +0.019 C 
ATOM     44  C   UNL     1      47.270  12.511  16.156  0.00  0.00    +0.026 C 
ATOM     45  C   UNL     1      48.364  12.672  17.199  0.00  0.00    +0.037 C 
ENDROOT
BRANCH  15  16
ATOM     16  O   UNL     1      48.339  21.750  21.213  0.00  0.00    -0.340 OA
BRANCH  16  17
ATOM     17  C   UNL     1      47.193  22.413  21.473  0.00  0.00    +0.499 C 
ATOM     30  O   UNL     1      47.218  23.437  22.129  0.00  0.00    -0.514 OA
BRANCH  17  18
ATOM     18  C   UNL     1      45.960  21.916  20.982  0.00  0.00    -0.060 C 
ATOM     19  C   UNL     1      45.082  22.754  20.389  0.00  0.00    +0.147 C 
BRANCH  19  20
ATOM     20  C   UNL     1      43.803  22.239  19.879  0.00  0.00    -0.056 A 
ATOM     21  C   UNL     1      42.915  23.096  19.219  0.00  0.00    +0.025 A 
ATOM     22  C   UNL     1      41.717  22.611  18.742  0.00  0.00    +0.033 A 
ATOM     23  C   UNL     1      41.387  21.273  18.917  0.00  0.00    +0.095 A 
ATOM     26  C   UNL     1      42.267  20.414  19.574  0.00  0.00    +0.100 A 
ATOM     29  C   UNL     1      43.472  20.890  20.050  0.00  0.00    -0.027 A 
BRANCH  23  24
ATOM     24  O   UNL     1      40.204  20.802  18.445  0.00  0.00    -0.485 OA
ATOM     25  H   UNL     1      40.070  20.951  17.499  0.00  0.00    +0.392 HD
ENDBRANCH  23  24
BRANCH  26  27
ATOM     27  O   UNL     1      41.939  19.105  19.742  0.00  0.00    -0.306 OA
ATOM     28  C   UNL     1      41.811  18.634  21.085  0.00  0.00    +0.242 C 
ENDBRANCH  26  27
ENDBRANCH  19  20
ENDBRANCH  17  18
ENDBRANCH  16  17
ENDBRANCH  15  16
TORSDOF 6
ENDMDL
MODEL 6
REMARK VINA RESULT:      -5.8      3.722      9.755
REMARK  Name = ZINC95485927
REMARK  15 active torsions:
REMARK  status: ('A' for Active; 'I' for Inactive)
REMARK    1  A    between atoms: C1_1  and  C2_2
REMARK    2  A    between atoms: C5_5  and  C40_48
REMARK    3  A    between atoms: C10_11  and  C32_39
REMARK    4  A    between atoms: C14_16  and  C31_38
REMARK    5  A    between atoms: C17_19  and  O1_24
REMARK    6  A    between atoms: C18_21  and  C19_22
REMARK    7  A    between atoms: C18_21  and  C20_23
REMARK    8  A    between atoms: O1_24  and  C21_25
REMARK    9  A    between atoms: C21_25  and  C22_27
REMARK   10  A    between atoms: C23_28  and  C24_29
REMARK   11  A    between atoms: C27_32  and  O4_37
REMARK   12  A    between atoms: C28_33  and  O3_35
REMARK   13  A    between atoms: O3_35  and  C30_36
REMARK   14  A    between atoms: C35_43  and  C38_46
REMARK   15  A    between atoms: C35_43  and  C39_47
REMARK                            x       y       z     vdW  Elec       q    Type
REMARK                         _______ _______ _______ _____ _____    ______ ____
ROOT
ATOM      1  C   UNL     1      43.416  19.955  18.645  0.00  0.00    +0.023 C 
ATOM      2  C   UNL     1      43.723  20.406  20.072  0.00  0.00    -0.044 C 
ATOM      3  C   UNL     1      43.361  19.285  21.049  0.00  0.00    +0.008 C 
ATOM      4  C   UNL     1      44.097  17.995  20.682  0.00  0.00    +0.022 C 
ATOM      5  C   UNL     1      45.608  18.188  20.651  0.00  0.00    +0.001 C 
ATOM      6  C   UNL     1      46.068  18.397  22.102  0.00  0.00    +0.017 C 
ATOM      7  C   UNL     1      45.988  19.443  19.912  0.00  0.00    -0.089 C 
ATOM      8  C   UNL     1      46.962  19.510  19.053  0.00  0.00    -0.066 C 
ATOM      9  C   UNL     1      47.842  18.343  18.692  0.00  0.00    +0.059 C 
ATOM     10  C   UNL     1      47.776  17.301  19.809  0.00  0.00    +0.006 C 
ATOM     11  C   UNL     1      48.682  16.111  19.497  0.00  0.00    -0.035 C 
ATOM     12  C   UNL     1      48.437  15.583  18.086  0.00  0.00    +0.028 C 
ATOM     13  C   UNL     1      50.142  16.596  19.568  0.00  0.00    +0.027 C 
ATOM     14  C   UNL     1      51.080  15.420  19.312  0.00  0.00    +0.004 C 
ATOM     15  C   UNL     1      50.912  14.358  20.390  0.00  0.00    +0.184 C 
ATOM     31  C   UNL     1      49.463  13.890  20.533  0.00  0.00    -0.041 C 
ATOM     32  C   UNL     1      49.138  12.857  19.454  0.00  0.00    +0.039 C 
ATOM     33  C   UNL     1      49.380  13.157  21.897  0.00  0.00    +0.018 C 
ATOM     34  C   UNL     1      48.485  15.041  20.562  0.00  0.00    +0.003 C 
ATOM     35  C   UNL     1      47.026  14.587  20.570  0.00  0.00    +0.019 C 
ATOM     36  C   UNL     1      46.190  15.783  21.060  0.00  0.00    +0.015 C 
ATOM     37  C   UNL     1      46.319  16.953  20.090  0.00  0.00    -0.023 C 
ATOM     38  C   UNL     1      45.608  16.571  18.781  0.00  0.00    +0.018 C 
ATOM     39  C   UNL     1      42.909  21.657  20.396  0.00  0.00    +0.011 C 
ATOM     40  C   UNL     1      43.325  22.822  19.505  0.00  0.00    +0.013 C 
ATOM     41  C   UNL     1      44.818  23.109  19.605  0.00  0.00    -0.060 C 
ATOM     42  C   UNL     1      45.184  24.177  18.562  0.00  0.00    +0.015 C 
ATOM     43  C   UNL     1      45.156  23.656  20.994  0.00  0.00    +0.019 C 
ATOM     44  C   UNL     1      45.638  21.851  19.322  0.00  0.00    +0.026 C 
ATOM     45  C   UNL     1      45.213  20.709  20.229  0.00  0.00    +0.037 C 
ENDROOT
BRANCH  15  16
ATOM     16  O   UNL     1      51.736  13.229  20.072  0.00  0.00    -0.340 OA
BRANCH  16  17
ATOM     17  C   UNL     1      52.533  13.338  18.989  0.00  0.00    +0.499 C 
ATOM     30  O   UNL     1      53.741  13.288  19.115  0.00  0.00    -0.514 OA
BRANCH  17  18
ATOM     18  C   UNL     1      51.961  13.512  17.703  0.00  0.00    -0.060 C 
ATOM     19  C   UNL     1      51.660  12.434  16.948  0.00  0.00    +0.147 C 
BRANCH  19  20
ATOM     20  C   UNL     1      51.067  12.613  15.614  0.00  0.00    -0.056 A 
ATOM     21  C   UNL     1      51.878  12.960  14.527  0.00  0.00    +0.025 A 
ATOM     22  C   UNL     1      51.320  13.127  13.279  0.00  0.00    +0.033 A 
ATOM     23  C   UNL     1      49.955  12.953  13.096  0.00  0.00    +0.095 A 
ATOM     26  C   UNL     1      49.141  12.609  14.174  0.00  0.00    +0.100 A 
ATOM     29  C   UNL     1      49.692  12.433  15.427  0.00  0.00    -0.027 A 
BRANCH  23  24
ATOM     24  O   UNL     1      49.411  13.121  11.862  0.00  0.00    -0.485 OA
ATOM     25  H   UNL     1      48.449  13.026  11.839  0.00  0.00    +0.392 HD
ENDBRANCH  23  24
BRANCH  26  27
ATOM     27  O   UNL     1      47.804  12.439  13.989  0.00  0.00    -0.306 OA
ATOM     28  C   UNL     1      47.149  11.483  14.825  0.00  0.00    +0.242 C 
ENDBRANCH  26  27
ENDBRANCH  19  20
ENDBRANCH  17  18
ENDBRANCH  16  17
ENDBRANCH  15  16
TORSDOF 6
ENDMDL
MODEL 7
REMARK VINA RESULT:      -5.8      2.019      2.942
REMARK  Name = ZINC95485927
REMARK  15 active torsions:
REMARK  status: ('A' for Active; 'I' for Inactive)
REMARK    1  A    between atoms: C1_1  and  C2_2
REMARK    2  A    between atoms: C5_5  and  C40_48
REMARK    3  A    between atoms: C10_11  and  C32_39
REMARK    4  A    between atoms: C14_16  and  C31_38
REMARK    5  A    between atoms: C17_19  and  O1_24
REMARK    6  A    between atoms: C18_21  and  C19_22
REMARK    7  A    between atoms: C18_21  and  C20_23
REMARK    8  A    between atoms: O1_24  and  C21_25
REMARK    9  A    between atoms: C21_25  and  C22_27
REMARK   10  A    between atoms: C23_28  and  C24_29
REMARK   11  A    between atoms: C27_32  and  O4_37
REMARK   12  A    between atoms: C28_33  and  O3_35
REMARK   13  A    between atoms: O3_35  and  C30_36
REMARK   14  A    between atoms: C35_43  and  C38_46
REMARK   15  A    between atoms: C35_43  and  C39_47
REMARK                            x       y       z     vdW  Elec       q    Type
REMARK                         _______ _______ _______ _____ _____    ______ ____
ROOT
ATOM      1  C   UNL     1      52.218  11.542  15.437  0.00  0.00    +0.023 C 
ATOM      2  C   UNL     1      50.721  11.671  15.159  0.00  0.00    -0.044 C 
ATOM      3  C   UNL     1      49.935  11.229  16.396  0.00  0.00    +0.008 C 
ATOM      4  C   UNL     1      50.365  12.037  17.622  0.00  0.00    +0.022 C 
ATOM      5  C   UNL     1      50.195  13.536  17.407  0.00  0.00    +0.001 C 
ATOM      6  C   UNL     1      48.686  13.820  17.370  0.00  0.00    +0.017 C 
ATOM      7  C   UNL     1      50.728  13.965  16.066  0.00  0.00    -0.089 C 
ATOM      8  C   UNL     1      51.454  15.028  15.883  0.00  0.00    -0.066 C 
ATOM      9  C   UNL     1      51.846  15.975  16.985  0.00  0.00    +0.059 C 
ATOM     10  C   UNL     1      50.878  15.809  18.156  0.00  0.00    +0.006 C 
ATOM     11  C   UNL     1      51.221  16.777  19.288  0.00  0.00    -0.035 C 
ATOM     12  C   UNL     1      52.704  16.710  19.642  0.00  0.00    +0.028 C 
ATOM     13  C   UNL     1      50.921  18.206  18.796  0.00  0.00    +0.027 C 
ATOM     14  C   UNL     1      51.204  19.198  19.920  0.00  0.00    +0.004 C 
ATOM     15  C   UNL     1      50.289  18.936  21.107  0.00  0.00    +0.184 C 
ATOM     31  C   UNL     1      50.374  17.494  21.608  0.00  0.00    -0.041 C 
ATOM     32  C   UNL     1      51.599  17.323  22.505  0.00  0.00    +0.039 C 
ATOM     33  C   UNL     1      49.127  17.275  22.503  0.00  0.00    +0.018 C 
ATOM     34  C   UNL     1      50.322  16.489  20.482  0.00  0.00    +0.003 C 
ATOM     35  C   UNL     1      50.539  15.051  20.953  0.00  0.00    +0.019 C 
ATOM     36  C   UNL     1      50.011  14.132  19.836  0.00  0.00    +0.015 C 
ATOM     37  C   UNL     1      50.812  14.340  18.554  0.00  0.00    -0.023 C 
ATOM     38  C   UNL     1      52.232  13.795  18.783  0.00  0.00    +0.018 C 
ATOM     39  C   UNL     1      50.348  10.791  13.968  0.00  0.00    +0.011 C 
ATOM     40  C   UNL     1      51.038  11.275  12.697  0.00  0.00    +0.013 C 
ATOM     41  C   UNL     1      50.730  12.739  12.406  0.00  0.00    -0.060 C 
ATOM     42  C   UNL     1      51.587  13.193  11.213  0.00  0.00    +0.015 C 
ATOM     43  C   UNL     1      49.256  12.900  12.028  0.00  0.00    +0.019 C 
ATOM     44  C   UNL     1      51.063  13.620  13.609  0.00  0.00    +0.026 C 
ATOM     45  C   UNL     1      50.355  13.124  14.859  0.00  0.00    +0.037 C 
ENDROOT
BRANCH  15  16
ATOM     16  O   UNL     1      50.641  19.821  22.179  0.00  0.00    -0.340 OA
BRANCH  16  17
ATOM     17  C   UNL     1      50.343  21.128  22.017  0.00  0.00    +0.499 C 
ATOM     30  O   UNL     1      51.133  21.981  22.372  0.00  0.00    -0.514 OA
BRANCH  17  18
ATOM     18  C   UNL     1      49.108  21.505  21.431  0.00  0.00    -0.060 C 
ATOM     19  C   UNL     1      47.985  21.529  22.180  0.00  0.00    +0.147 C 
BRANCH  19  20
ATOM     20  C   UNL     1      46.704  21.919  21.573  0.00  0.00    -0.056 A 
ATOM     21  C   UNL     1      46.389  23.273  21.410  0.00  0.00    +0.025 A 
ATOM     22  C   UNL     1      45.188  23.636  20.841  0.00  0.00    +0.033 A 
ATOM     23  C   UNL     1      44.288  22.661  20.429  0.00  0.00    +0.095 A 
ATOM     26  C   UNL     1      44.596  21.311  20.588  0.00  0.00    +0.100 A 
ATOM     29  C   UNL     1      45.799  20.938  21.152  0.00  0.00    -0.027 A 
BRANCH  23  24
ATOM     24  O   UNL     1      43.106  23.027  19.869  0.00  0.00    -0.485 OA
ATOM     25  H   UNL     1      42.825  23.924  20.093  0.00  0.00    +0.392 HD
ENDBRANCH  23  24
BRANCH  26  27
ATOM     27  O   UNL     1      43.711  20.361  20.183  0.00  0.00    -0.306 OA
ATOM     28  C   UNL     1      43.957  19.743  18.917  0.00  0.00    +0.242 C 
ENDBRANCH  26  27
ENDBRANCH  19  20
ENDBRANCH  17  18
ENDBRANCH  16  17
ENDBRANCH  15  16
TORSDOF 6
ENDMDL
MODEL 8
REMARK VINA RESULT:      -5.6      3.405      9.363
REMARK  Name = ZINC95485927
REMARK  15 active torsions:
REMARK  status: ('A' for Active; 'I' for Inactive)
REMARK    1  A    between atoms: C1_1  and  C2_2
REMARK    2  A    between atoms: C5_5  and  C40_48
REMARK    3  A    between atoms: C10_11  and  C32_39
REMARK    4  A    between atoms: C14_16  and  C31_38
REMARK    5  A    between atoms: C17_19  and  O1_24
REMARK    6  A    between atoms: C18_21  and  C19_22
REMARK    7  A    between atoms: C18_21  and  C20_23
REMARK    8  A    between atoms: O1_24  and  C21_25
REMARK    9  A    between atoms: C21_25  and  C22_27
REMARK   10  A    between atoms: C23_28  and  C24_29
REMARK   11  A    between atoms: C27_32  and  O4_37
REMARK   12  A    between atoms: C28_33  and  O3_35
REMARK   13  A    between atoms: O3_35  and  C30_36
REMARK   14  A    between atoms: C35_43  and  C38_46
REMARK   15  A    between atoms: C35_43  and  C39_47
REMARK                            x       y       z     vdW  Elec       q    Type
REMARK                         _______ _______ _______ _____ _____    ______ ____
ROOT
ATOM      1  C   UNL     1      45.432  20.980  22.275  0.00  0.00    +0.023 C 
ATOM      2  C   UNL     1      46.216  22.034  21.495  0.00  0.00    -0.044 C 
ATOM      3  C   UNL     1      47.656  22.083  22.013  0.00  0.00    +0.008 C 
ATOM      4  C   UNL     1      48.305  20.700  21.924  0.00  0.00    +0.022 C 
ATOM      5  C   UNL     1      48.282  20.148  20.504  0.00  0.00    +0.001 C 
ATOM      6  C   UNL     1      49.258  20.995  19.673  0.00  0.00    +0.017 C 
ATOM      7  C   UNL     1      46.931  20.327  19.864  0.00  0.00    -0.089 C 
ATOM      8  C   UNL     1      46.333  19.407  19.168  0.00  0.00    -0.066 C 
ATOM      9  C   UNL     1      46.916  18.045  18.903  0.00  0.00    +0.059 C 
ATOM     10  C   UNL     1      48.432  18.103  19.092  0.00  0.00    +0.006 C 
ATOM     11  C   UNL     1      49.070  16.746  18.801  0.00  0.00    -0.035 C 
ATOM     12  C   UNL     1      48.354  15.625  19.550  0.00  0.00    +0.028 C 
ATOM     13  C   UNL     1      48.925  16.468  17.293  0.00  0.00    +0.027 C 
ATOM     14  C   UNL     1      49.597  15.141  16.954  0.00  0.00    +0.004 C 
ATOM     15  C   UNL     1      51.088  15.207  17.252  0.00  0.00    +0.184 C 
ATOM     31  C   UNL     1      51.383  15.625  18.693  0.00  0.00    -0.041 C 
ATOM     32  C   UNL     1      51.242  14.423  19.626  0.00  0.00    +0.039 C 
ATOM     33  C   UNL     1      52.875  16.046  18.723  0.00  0.00    +0.018 C 
ATOM     34  C   UNL     1      50.555  16.811  19.130  0.00  0.00    +0.003 C 
ATOM     35  C   UNL     1      50.739  17.158  20.607  0.00  0.00    +0.019 C 
ATOM     36  C   UNL     1      50.236  18.601  20.791  0.00  0.00    +0.015 C 
ATOM     37  C   UNL     1      48.748  18.690  20.463  0.00  0.00    -0.023 C 
ATOM     38  C   UNL     1      47.971  17.929  21.551  0.00  0.00    +0.018 C 
ATOM     39  C   UNL     1      45.555  23.398  21.678  0.00  0.00    +0.011 C 
ATOM     40  C   UNL     1      44.154  23.409  21.077  0.00  0.00    +0.013 C 
ATOM     41  C   UNL     1      44.165  23.007  19.606  0.00  0.00    -0.060 C 
ATOM     42  C   UNL     1      42.711  22.881  19.121  0.00  0.00    +0.015 C 
ATOM     43  C   UNL     1      44.859  24.086  18.772  0.00  0.00    +0.019 C 
ATOM     44  C   UNL     1      44.862  21.661  19.411  0.00  0.00    +0.026 C 
ATOM     45  C   UNL     1      46.258  21.680  20.009  0.00  0.00    +0.037 C 
ENDROOT
BRANCH  15  16
ATOM     16  O   UNL     1      51.675  13.920  17.013  0.00  0.00    -0.340 OA
BRANCH  16  17
ATOM     17  C   UNL     1      51.097  13.151  16.066  0.00  0.00    +0.499 C 
ATOM     30  O   UNL     1      51.688  12.916  15.029  0.00  0.00    -0.514 OA
BRANCH  17  18
ATOM     18  C   UNL     1      49.801  12.617  16.281  0.00  0.00    -0.060 C 
ATOM     19  C   UNL     1      48.865  12.709  15.312  0.00  0.00    +0.147 C 
BRANCH  19  20
ATOM     20  C   UNL     1      47.520  12.156  15.534  0.00  0.00    -0.056 A 
ATOM     21  C   UNL     1      47.024  11.158  14.688  0.00  0.00    +0.025 A 
ATOM     22  C   UNL     1      45.764  10.642  14.899  0.00  0.00    +0.033 A 
ATOM     23  C   UNL     1      44.985  11.110  15.949  0.00  0.00    +0.095 A 
ATOM     26  C   UNL     1      45.473  12.104  16.795  0.00  0.00    +0.100 A 
ATOM     29  C   UNL     1      46.736  12.623  16.595  0.00  0.00    -0.027 A 
BRANCH  23  24
ATOM     24  O   UNL     1      43.744  10.597  16.150  0.00  0.00    -0.485 OA
ATOM     25  H   UNL     1      43.594  10.268  17.047  0.00  0.00    +0.392 HD
ENDBRANCH  23  24
BRANCH  26  27
ATOM     27  O   UNL     1      44.706  12.559  17.822  0.00  0.00    -0.306 OA
ATOM     28  C   UNL     1      45.367  13.309  18.843  0.00  0.00    +0.242 C 
ENDBRANCH  26  27
ENDBRANCH  19  20
ENDBRANCH  17  18
ENDBRANCH  16  17
ENDBRANCH  15  16
TORSDOF 6
ENDMDL
MODEL 9
REMARK VINA RESULT:      -5.3      2.365      3.921
REMARK  Name = ZINC95485927
REMARK  15 active torsions:
REMARK  status: ('A' for Active; 'I' for Inactive)
REMARK    1  A    between atoms: C1_1  and  C2_2
REMARK    2  A    between atoms: C5_5  and  C40_48
REMARK    3  A    between atoms: C10_11  and  C32_39
REMARK    4  A    between atoms: C14_16  and  C31_38
REMARK    5  A    between atoms: C17_19  and  O1_24
REMARK    6  A    between atoms: C18_21  and  C19_22
REMARK    7  A    between atoms: C18_21  and  C20_23
REMARK    8  A    between atoms: O1_24  and  C21_25
REMARK    9  A    between atoms: C21_25  and  C22_27
REMARK   10  A    between atoms: C23_28  and  C24_29
REMARK   11  A    between atoms: C27_32  and  O4_37
REMARK   12  A    between atoms: C28_33  and  O3_35
REMARK   13  A    between atoms: O3_35  and  C30_36
REMARK   14  A    between atoms: C35_43  and  C38_46
REMARK   15  A    between atoms: C35_43  and  C39_47
REMARK                            x       y       z     vdW  Elec       q    Type
REMARK                         _______ _______ _______ _____ _____    ______ ____
ROOT
ATOM      1  C   UNL     1      52.154  11.905  15.191  0.00  0.00    +0.023 C 
ATOM      2  C   UNL     1      50.919  11.318  14.509  0.00  0.00    -0.044 C 
ATOM      3  C   UNL     1      50.276  10.277  15.430  0.00  0.00    +0.008 C 
ATOM      4  C   UNL     1      49.944  10.897  16.789  0.00  0.00    +0.022 C 
ATOM      5  C   UNL     1      49.031  12.108  16.658  0.00  0.00    +0.001 C 
ATOM      6  C   UNL     1      47.653  11.591  16.215  0.00  0.00    +0.017 C 
ATOM      7  C   UNL     1      49.495  13.033  15.564  0.00  0.00    -0.089 C 
ATOM      8  C   UNL     1      49.541  14.327  15.682  0.00  0.00    -0.066 C 
ATOM      9  C   UNL     1      49.127  15.071  16.924  0.00  0.00    +0.059 C 
ATOM     10  C   UNL     1      48.198  14.183  17.753  0.00  0.00    +0.006 C 
ATOM     11  C   UNL     1      47.728  14.912  19.010  0.00  0.00    -0.035 C 
ATOM     12  C   UNL     1      48.902  15.526  19.767  0.00  0.00    +0.028 C 
ATOM     13  C   UNL     1      46.801  16.061  18.572  0.00  0.00    +0.027 C 
ATOM     14  C   UNL     1      46.268  16.782  19.807  0.00  0.00    +0.004 C 
ATOM     15  C   UNL     1      45.432  15.838  20.658  0.00  0.00    +0.184 C 
ATOM     31  C   UNL     1      46.190  14.566  21.043  0.00  0.00    -0.041 C 
ATOM     32  C   UNL     1      47.105  14.843  22.236  0.00  0.00    +0.039 C 
ATOM     33  C   UNL     1      45.118  13.555  21.524  0.00  0.00    +0.018 C 
ATOM     34  C   UNL     1      46.918  13.952  19.871  0.00  0.00    +0.003 C 
ATOM     35  C   UNL     1      47.787  12.758  20.265  0.00  0.00    +0.019 C 
ATOM     36  C   UNL     1      48.077  11.973  18.974  0.00  0.00    +0.015 C 
ATOM     37  C   UNL     1      48.869  12.836  17.995  0.00  0.00    -0.023 C 
ATOM     38  C   UNL     1      50.278  13.048  18.574  0.00  0.00    +0.018 C 
ATOM     39  C   UNL     1      51.329  10.660  13.193  0.00  0.00    +0.011 C 
ATOM     40  C   UNL     1      51.878  11.694  12.216  0.00  0.00    +0.013 C 
ATOM     41  C   UNL     1      50.885  12.824  11.969  0.00  0.00    -0.060 C 
ATOM     42  C   UNL     1      51.570  13.902  11.112  0.00  0.00    +0.015 C 
ATOM     43  C   UNL     1      49.671  12.298  11.201  0.00  0.00    +0.019 C 
ATOM     44  C   UNL     1      50.439  13.460  13.285  0.00  0.00    +0.026 C 
ATOM     45  C   UNL     1      49.887  12.412  14.236  0.00  0.00    +0.037 C 
ENDROOT
BRANCH  15  16
ATOM     16  O   UNL     1      45.025  16.516  21.854  0.00  0.00    -0.340 OA
BRANCH  16  17
ATOM     17  C   UNL     1      43.794  17.069  21.855  0.00  0.00    +0.499 C 
ATOM     30  O   UNL     1      42.882  16.523  22.448  0.00  0.00    -0.514 OA
BRANCH  17  18
ATOM     18  C   UNL     1      43.563  18.286  21.166  0.00  0.00    -0.060 C 
ATOM     19  C   UNL     1      44.209  19.409  21.546  0.00  0.00    +0.147 C 
BRANCH  19  20
ATOM     20  C   UNL     1      43.970  20.672  20.832  0.00  0.00    -0.056 A 
ATOM     21  C   UNL     1      44.895  21.718  20.928  0.00  0.00    +0.025 A 
ATOM     22  C   UNL     1      44.669  22.900  20.257  0.00  0.00    +0.033 A 
ATOM     23  C   UNL     1      43.524  23.057  19.487  0.00  0.00    +0.095 A 
ATOM     26  C   UNL     1      42.598  22.020  19.387  0.00  0.00    +0.100 A 
ATOM     29  C   UNL     1      42.819  20.830  20.051  0.00  0.00    -0.027 A 
BRANCH  23  24
ATOM     24  O   UNL     1      43.307  24.226  18.830  0.00  0.00    -0.485 OA
ATOM     25  H   UNL     1      42.965  24.115  17.932  0.00  0.00    +0.392 HD
ENDBRANCH  23  24
BRANCH  26  27
ATOM     27  O   UNL     1      41.479  22.179  18.631  0.00  0.00    -0.306 OA
ATOM     28  C   UNL     1      40.528  21.112  18.647  0.00  0.00    +0.242 C 
ENDBRANCH  26  27
ENDBRANCH  19  20
ENDBRANCH  17  18
ENDBRANCH  16  17
ENDBRANCH  15  16
TORSDOF 6
ENDMDL
