MODEL 1
REMARK VINA RESULT:      -5.4      0.000      0.000
REMARK  Name = ZINC95486211
REMARK  11 active torsions:
REMARK  status: ('A' for Active; 'I' for Inactive)
REMARK    1  A    between atoms: C1_1  and  O1_2
REMARK    2  A    between atoms: O1_2  and  C2_3
REMARK    3  A    between atoms: C3_4  and  O9_26
REMARK    4  A    between atoms: C7_8  and  O2_9
REMARK    5  A    between atoms: C10_13  and  O8_25
REMARK    6  A    between atoms: C11_14  and  O7_23
REMARK    7  A    between atoms: C12_15  and  O6_21
REMARK    8  A    between atoms: C13_16  and  O5_19
REMARK    9  A    between atoms: O5_19  and  C15_20
REMARK   10  A    between atoms: O6_21  and  C16_22
REMARK   11  A    between atoms: O7_23  and  C17_24
REMARK                            x       y       z     vdW  Elec       q    Type
REMARK                         _______ _______ _______ _____ _____    ______ ____
ROOT
ATOM      3  C   UNL     1      43.376  20.204  20.101  0.00  0.00    +0.012 A 
ATOM      4  C   UNL     1      42.837  19.271  20.984  0.00  0.00    +0.176 A 
ATOM      7  C   UNL     1      43.319  17.971  21.022  0.00  0.00    -0.007 A 
ATOM      8  C   UNL     1      44.347  17.582  20.175  0.00  0.00    +0.184 A 
ATOM      9  C   UNL     1      44.883  18.519  19.276  0.00  0.00    -0.254 A 
ATOM     10  C   UNL     1      45.959  18.086  18.364  0.00  0.00    +0.449 A 
ATOM     11  C   UNL     1      46.184  16.631  18.279  0.00  0.00    -0.238 A 
ATOM     12  C   UNL     1      46.985  16.085  17.269  0.00  0.00    +0.195 A 
ATOM     15  C   UNL     1      47.167  14.713  17.206  0.00  0.00    +0.033 A 
ATOM     18  C   UNL     1      46.557  13.887  18.148  0.00  0.00    +0.144 A 
ATOM     21  C   UNL     1      45.766  14.425  19.154  0.00  0.00    +0.058 A 
ATOM     24  C   UNL     1      45.575  15.800  19.234  0.00  0.00    +0.162 A 
ATOM     25  O   UNL     1      46.622  18.881  17.722  0.00  0.00    -0.414 OA
ATOM     26  O   UNL     1      44.816  16.318  20.225  0.00  0.00    -0.207 OA
ATOM     27  C   UNL     1      44.397  19.833  19.241  0.00  0.00    +0.205 A 
ENDROOT
BRANCH   3   2
ATOM      1  C   UNL     1      41.874  21.769  19.122  0.00  0.00    +0.230 C 
ATOM      2  O   UNL     1      42.894  21.477  20.078  0.00  0.00    -0.314 OA
ENDBRANCH   3   2
BRANCH   4   5
ATOM      5  O   UNL     1      41.830  19.637  21.817  0.00  0.00    -0.475 OA
ATOM      6  H   UNL     1      41.827  19.168  22.662  0.00  0.00    +0.401 HD
ENDBRANCH   4   5
BRANCH  12  13
ATOM     13  O   UNL     1      47.580  16.895  16.354  0.00  0.00    -0.460 OA
ATOM     14  H   UNL     1      48.547  16.873  16.378  0.00  0.00    +0.401 HD
ENDBRANCH  12  13
BRANCH  15  16
ATOM     16  O   UNL     1      47.943  14.171  16.227  0.00  0.00    -0.311 OA
ATOM     17  C   UNL     1      49.333  14.010  16.515  0.00  0.00    +0.233 C 
ENDBRANCH  15  16
BRANCH  18  19
ATOM     19  O   UNL     1      46.736  12.541  18.079  0.00  0.00    -0.321 OA
ATOM     20  C   UNL     1      45.926  11.826  17.144  0.00  0.00    +0.255 C 
ENDBRANCH  18  19
BRANCH  21  22
ATOM     22  O   UNL     1      45.178  13.604  20.067  0.00  0.00    -0.311 OA
ATOM     23  C   UNL     1      45.853  13.429  21.314  0.00  0.00    +0.238 C 
ENDBRANCH  21  22
BRANCH  27  28
ATOM     28  O   UNL     1      44.926  20.736  18.377  0.00  0.00    -0.468 OA
ATOM     29  H   UNL     1      44.790  20.516  17.445  0.00  0.00    +0.408 HD
ENDBRANCH  27  28
TORSDOF 7
ENDMDL
MODEL 2
REMARK VINA RESULT:      -5.4      1.116      7.342
REMARK  Name = ZINC95486211
REMARK  11 active torsions:
REMARK  status: ('A' for Active; 'I' for Inactive)
REMARK    1  A    between atoms: C1_1  and  O1_2
REMARK    2  A    between atoms: O1_2  and  C2_3
REMARK    3  A    between atoms: C3_4  and  O9_26
REMARK    4  A    between atoms: C7_8  and  O2_9
REMARK    5  A    between atoms: C10_13  and  O8_25
REMARK    6  A    between atoms: C11_14  and  O7_23
REMARK    7  A    between atoms: C12_15  and  O6_21
REMARK    8  A    between atoms: C13_16  and  O5_19
REMARK    9  A    between atoms: O5_19  and  C15_20
REMARK   10  A    between atoms: O6_21  and  C16_22
REMARK   11  A    between atoms: O7_23  and  C17_24
REMARK                            x       y       z     vdW  Elec       q    Type
REMARK                         _______ _______ _______ _____ _____    ______ ____
ROOT
ATOM      3  C   UNL     1      46.877  13.524  17.723  0.00  0.00    +0.012 A 
ATOM      4  C   UNL     1      47.288  14.491  16.808  0.00  0.00    +0.176 A 
ATOM      7  C   UNL     1      47.007  15.831  17.019  0.00  0.00    -0.007 A 
ATOM      8  C   UNL     1      46.307  16.229  18.151  0.00  0.00    +0.184 A 
ATOM      9  C   UNL     1      45.882  15.254  19.069  0.00  0.00    -0.254 A 
ATOM     10  C   UNL     1      45.119  15.687  20.254  0.00  0.00    +0.449 A 
ATOM     11  C   UNL     1      44.621  17.076  20.228  0.00  0.00    -0.238 A 
ATOM     12  C   UNL     1      43.675  17.518  21.160  0.00  0.00    +0.195 A 
ATOM     15  C   UNL     1      43.217  18.825  21.102  0.00  0.00    +0.033 A 
ATOM     18  C   UNL     1      43.702  19.689  20.122  0.00  0.00    +0.144 A 
ATOM     21  C   UNL     1      44.644  19.255  19.200  0.00  0.00    +0.058 A 
ATOM     24  C   UNL     1      45.117  17.948  19.245  0.00  0.00    +0.162 A 
ATOM     25  O   UNL     1      44.912  14.945  21.196  0.00  0.00    -0.414 OA
ATOM     26  O   UNL     1      46.046  17.537  18.354  0.00  0.00    -0.207 OA
ATOM     27  C   UNL     1      46.170  13.900  18.854  0.00  0.00    +0.205 A 
ENDROOT
BRANCH   3   2
ATOM      1  C   UNL     1      46.215  11.457  16.746  0.00  0.00    +0.230 C 
ATOM      2  O   UNL     1      47.164  12.212  17.503  0.00  0.00    -0.314 OA
ENDBRANCH   3   2
BRANCH   4   5
ATOM      5  O   UNL     1      47.972  14.116  15.696  0.00  0.00    -0.475 OA
ATOM      6  H   UNL     1      48.919  13.985  15.842  0.00  0.00    +0.401 HD
ENDBRANCH   4   5
BRANCH  12  13
ATOM     13  O   UNL     1      43.207  16.673  22.115  0.00  0.00    -0.460 OA
ATOM     14  H   UNL     1      42.432  16.162  21.844  0.00  0.00    +0.401 HD
ENDBRANCH  12  13
BRANCH  15  16
ATOM     16  O   UNL     1      42.295  19.265  22.002  0.00  0.00    -0.311 OA
ATOM     17  C   UNL     1      40.919  19.085  21.661  0.00  0.00    +0.233 C 
ENDBRANCH  15  16
BRANCH  18  19
ATOM     19  O   UNL     1      43.246  20.968  20.068  0.00  0.00    -0.321 OA
ATOM     20  C   UNL     1      42.219  21.251  19.115  0.00  0.00    +0.255 C 
ENDBRANCH  18  19
BRANCH  21  22
ATOM     22  O   UNL     1      45.109  20.113  18.249  0.00  0.00    -0.311 OA
ATOM     23  C   UNL     1      46.191  20.969  18.621  0.00  0.00    +0.238 C 
ENDBRANCH  21  22
BRANCH  27  28
ATOM     28  O   UNL     1      45.765  12.964  19.750  0.00  0.00    -0.468 OA
ATOM     29  H   UNL     1      46.406  12.255  19.897  0.00  0.00    +0.408 HD
ENDBRANCH  27  28
TORSDOF 7
ENDMDL
MODEL 3
REMARK VINA RESULT:      -4.8      3.569      5.006
REMARK  Name = ZINC95486211
REMARK  11 active torsions:
REMARK  status: ('A' for Active; 'I' for Inactive)
REMARK    1  A    between atoms: C1_1  and  O1_2
REMARK    2  A    between atoms: O1_2  and  C2_3
REMARK    3  A    between atoms: C3_4  and  O9_26
REMARK    4  A    between atoms: C7_8  and  O2_9
REMARK    5  A    between atoms: C10_13  and  O8_25
REMARK    6  A    between atoms: C11_14  and  O7_23
REMARK    7  A    between atoms: C12_15  and  O6_21
REMARK    8  A    between atoms: C13_16  and  O5_19
REMARK    9  A    between atoms: O5_19  and  C15_20
REMARK   10  A    between atoms: O6_21  and  C16_22
REMARK   11  A    between atoms: O7_23  and  C17_24
REMARK                            x       y       z     vdW  Elec       q    Type
REMARK                         _______ _______ _______ _____ _____    ______ ____
ROOT
ATOM      3  C   UNL     1      43.857  21.341  19.863  0.00  0.00    +0.012 A 
ATOM      4  C   UNL     1      44.555  22.244  20.662  0.00  0.00    +0.176 A 
ATOM      7  C   UNL     1      45.938  22.204  20.733  0.00  0.00    -0.007 A 
ATOM      8  C   UNL     1      46.649  21.257  20.009  0.00  0.00    +0.184 A 
ATOM      9  C   UNL     1      45.945  20.338  19.212  0.00  0.00    -0.254 A 
ATOM     10  C   UNL     1      46.711  19.322  18.466  0.00  0.00    +0.449 A 
ATOM     11  C   UNL     1      48.130  19.177  18.843  0.00  0.00    -0.238 A 
ATOM     12  C   UNL     1      48.884  18.085  18.400  0.00  0.00    +0.195 A 
ATOM     15  C   UNL     1      50.211  17.970  18.783  0.00  0.00    +0.033 A 
ATOM     18  C   UNL     1      50.786  18.942  19.600  0.00  0.00    +0.144 A 
ATOM     21  C   UNL     1      50.042  20.029  20.036  0.00  0.00    +0.058 A 
ATOM     24  C   UNL     1      48.710  20.162  19.661  0.00  0.00    +0.162 A 
ATOM     25  O   UNL     1      46.203  18.643  17.592  0.00  0.00    -0.414 OA
ATOM     26  O   UNL     1      47.996  21.231  20.077  0.00  0.00    -0.207 OA
ATOM     27  C   UNL     1      44.547  20.383  19.139  0.00  0.00    +0.205 A 
ENDROOT
BRANCH   3   2
ATOM      1  C   UNL     1      41.927  22.289  18.844  0.00  0.00    +0.230 C 
ATOM      2  O   UNL     1      42.498  21.395  19.801  0.00  0.00    -0.314 OA
ENDBRANCH   3   2
BRANCH   4   5
ATOM      5  O   UNL     1      43.872  23.175  21.377  0.00  0.00    -0.475 OA
ATOM      6  H   UNL     1      42.917  23.032  21.399  0.00  0.00    +0.401 HD
ENDBRANCH   4   5
BRANCH  12  13
ATOM     13  O   UNL     1      48.320  17.142  17.602  0.00  0.00    -0.460 OA
ATOM     14  H   UNL     1      47.595  17.472  17.055  0.00  0.00    +0.401 HD
ENDBRANCH  12  13
BRANCH  15  16
ATOM     16  O   UNL     1      50.954  16.910  18.360  0.00  0.00    -0.311 OA
ATOM     17  C   UNL     1      51.642  17.057  17.116  0.00  0.00    +0.233 C 
ENDBRANCH  15  16
BRANCH  18  19
ATOM     19  O   UNL     1      52.087  18.821  19.975  0.00  0.00    -0.321 OA
ATOM     20  C   UNL     1      52.364  17.981  21.097  0.00  0.00    +0.255 C 
ENDBRANCH  18  19
BRANCH  21  22
ATOM     22  O   UNL     1      50.619  20.970  20.834  0.00  0.00    -0.311 OA
ATOM     23  C   UNL     1      50.403  20.850  22.241  0.00  0.00    +0.238 C 
ENDBRANCH  21  22
BRANCH  27  28
ATOM     28  O   UNL     1      43.874  19.497  18.360  0.00  0.00    -0.468 OA
ATOM     29  H   UNL     1      43.567  19.866  17.520  0.00  0.00    +0.408 HD
ENDBRANCH  27  28
TORSDOF 7
ENDMDL
MODEL 4
REMARK VINA RESULT:      -4.8      3.242      4.968
REMARK  Name = ZINC95486211
REMARK  11 active torsions:
REMARK  status: ('A' for Active; 'I' for Inactive)
REMARK    1  A    between atoms: C1_1  and  O1_2
REMARK    2  A    between atoms: O1_2  and  C2_3
REMARK    3  A    between atoms: C3_4  and  O9_26
REMARK    4  A    between atoms: C7_8  and  O2_9
REMARK    5  A    between atoms: C10_13  and  O8_25
REMARK    6  A    between atoms: C11_14  and  O7_23
REMARK    7  A    between atoms: C12_15  and  O6_21
REMARK    8  A    between atoms: C13_16  and  O5_19
REMARK    9  A    between atoms: O5_19  and  C15_20
REMARK   10  A    between atoms: O6_21  and  C16_22
REMARK   11  A    between atoms: O7_23  and  C17_24
REMARK                            x       y       z     vdW  Elec       q    Type
REMARK                         _______ _______ _______ _____ _____    ______ ____
ROOT
ATOM      3  C   UNL     1      44.253  19.056  21.164  0.00  0.00    +0.012 A 
ATOM      4  C   UNL     1      44.836  20.273  21.511  0.00  0.00    +0.176 A 
ATOM      7  C   UNL     1      46.027  20.678  20.929  0.00  0.00    -0.007 A 
ATOM      8  C   UNL     1      46.658  19.872  19.991  0.00  0.00    +0.184 A 
ATOM      9  C   UNL     1      46.077  18.639  19.650  0.00  0.00    -0.254 A 
ATOM     10  C   UNL     1      46.769  17.781  18.670  0.00  0.00    +0.449 A 
ATOM     11  C   UNL     1      48.157  18.163  18.346  0.00  0.00    -0.238 A 
ATOM     12  C   UNL     1      48.997  17.293  17.642  0.00  0.00    +0.195 A 
ATOM     15  C   UNL     1      50.300  17.674  17.364  0.00  0.00    +0.033 A 
ATOM     18  C   UNL     1      50.763  18.920  17.782  0.00  0.00    +0.144 A 
ATOM     21  C   UNL     1      49.932  19.788  18.476  0.00  0.00    +0.058 A 
ATOM     24  C   UNL     1      48.620  19.423  18.761  0.00  0.00    +0.162 A 
ATOM     25  O   UNL     1      46.229  16.817  18.159  0.00  0.00    -0.414 OA
ATOM     26  O   UNL     1      47.812  20.279  19.423  0.00  0.00    -0.207 OA
ATOM     27  C   UNL     1      44.871  18.233  20.236  0.00  0.00    +0.205 A 
ENDROOT
BRANCH   3   2
ATOM      1  C   UNL     1      41.880  18.950  21.020  0.00  0.00    +0.230 C 
ATOM      2  O   UNL     1      43.081  18.673  21.742  0.00  0.00    -0.314 OA
ENDBRANCH   3   2
BRANCH   4   5
ATOM      5  O   UNL     1      44.231  21.070  22.428  0.00  0.00    -0.475 OA
ATOM      6  H   UNL     1      43.660  21.749  22.043  0.00  0.00    +0.401 HD
ENDBRANCH   4   5
BRANCH  12  13
ATOM     13  O   UNL     1      48.539  16.080  17.234  0.00  0.00    -0.460 OA
ATOM     14  H   UNL     1      48.129  16.088  16.359  0.00  0.00    +0.401 HD
ENDBRANCH  12  13
BRANCH  15  16
ATOM     16  O   UNL     1      51.126  16.834  16.682  0.00  0.00    -0.311 OA
ATOM     17  C   UNL     1      51.834  15.857  17.448  0.00  0.00    +0.233 C 
ENDBRANCH  15  16
BRANCH  18  19
ATOM     19  O   UNL     1      52.044  19.287  17.510  0.00  0.00    -0.321 OA
ATOM     20  C   UNL     1      52.279  19.946  16.265  0.00  0.00    +0.255 C 
ENDBRANCH  18  19
BRANCH  21  22
ATOM     22  O   UNL     1      50.401  21.002  18.877  0.00  0.00    -0.311 OA
ATOM     23  C   UNL     1      51.137  21.042  20.101  0.00  0.00    +0.238 C 
ENDBRANCH  21  22
BRANCH  27  28
ATOM     28  O   UNL     1      44.311  17.044  19.895  0.00  0.00    -0.468 OA
ATOM     29  H   UNL     1      43.418  16.916  20.242  0.00  0.00    +0.408 HD
ENDBRANCH  27  28
TORSDOF 7
ENDMDL
MODEL 5
REMARK VINA RESULT:      -4.6      1.861      3.746
REMARK  Name = ZINC95486211
REMARK  11 active torsions:
REMARK  status: ('A' for Active; 'I' for Inactive)
REMARK    1  A    between atoms: C1_1  and  O1_2
REMARK    2  A    between atoms: O1_2  and  C2_3
REMARK    3  A    between atoms: C3_4  and  O9_26
REMARK    4  A    between atoms: C7_8  and  O2_9
REMARK    5  A    between atoms: C10_13  and  O8_25
REMARK    6  A    between atoms: C11_14  and  O7_23
REMARK    7  A    between atoms: C12_15  and  O6_21
REMARK    8  A    between atoms: C13_16  and  O5_19
REMARK    9  A    between atoms: O5_19  and  C15_20
REMARK   10  A    between atoms: O6_21  and  C16_22
REMARK   11  A    between atoms: O7_23  and  C17_24
REMARK                            x       y       z     vdW  Elec       q    Type
REMARK                         _______ _______ _______ _____ _____    ______ ____
ROOT
ATOM      3  C   UNL     1      43.606  19.089  20.108  0.00  0.00    +0.012 A 
ATOM      4  C   UNL     1      44.229  19.819  19.099  0.00  0.00    +0.176 A 
ATOM      7  C   UNL     1      45.281  19.276  18.378  0.00  0.00    -0.007 A 
ATOM      8  C   UNL     1      45.729  17.991  18.656  0.00  0.00    +0.184 A 
ATOM      9  C   UNL     1      45.108  17.259  19.682  0.00  0.00    -0.254 A 
ATOM     10  C   UNL     1      45.610  15.905  19.983  0.00  0.00    +0.449 A 
ATOM     11  C   UNL     1      46.904  15.546  19.372  0.00  0.00    -0.238 A 
ATOM     12  C   UNL     1      47.603  14.406  19.787  0.00  0.00    +0.195 A 
ATOM     15  C   UNL     1      48.824  14.103  19.204  0.00  0.00    +0.033 A 
ATOM     18  C   UNL     1      49.344  14.929  18.210  0.00  0.00    +0.144 A 
ATOM     21  C   UNL     1      48.650  16.057  17.792  0.00  0.00    +0.058 A 
ATOM     24  C   UNL     1      47.423  16.376  18.364  0.00  0.00    +0.162 A 
ATOM     25  O   UNL     1      44.993  15.130  20.691  0.00  0.00    -0.414 OA
ATOM     26  O   UNL     1      46.747  17.466  17.943  0.00  0.00    -0.207 OA
ATOM     27  C   UNL     1      44.044  17.809  20.406  0.00  0.00    +0.205 A 
ENDROOT
BRANCH   3   2
ATOM      1  C   UNL     1      41.254  19.394  20.309  0.00  0.00    +0.230 C 
ATOM      2  O   UNL     1      42.572  19.636  20.805  0.00  0.00    -0.314 OA
ENDBRANCH   3   2
BRANCH   4   5
ATOM      5  O   UNL     1      43.802  21.077  18.817  0.00  0.00    -0.475 OA
ATOM      6  H   UNL     1      43.850  21.309  17.880  0.00  0.00    +0.401 HD
ENDBRANCH   4   5
BRANCH  12  13
ATOM     13  O   UNL     1      47.091  13.603  20.755  0.00  0.00    -0.460 OA
ATOM     14  H   UNL     1      46.702  12.783  20.421  0.00  0.00    +0.401 HD
ENDBRANCH  12  13
BRANCH  15  16
ATOM     16  O   UNL     1      49.513  12.998  19.601  0.00  0.00    -0.311 OA
ATOM     17  C   UNL     1      49.144  11.754  19.003  0.00  0.00    +0.233 C 
ENDBRANCH  15  16
BRANCH  18  19
ATOM     19  O   UNL     1      50.543  14.628  17.645  0.00  0.00    -0.321 OA
ATOM     20  C   UNL     1      50.516  13.934  16.396  0.00  0.00    +0.255 C 
ENDBRANCH  18  19
BRANCH  21  22
ATOM     22  O   UNL     1      49.172  16.853  16.819  0.00  0.00    -0.311 OA
ATOM     23  C   UNL     1      50.036  17.911  17.239  0.00  0.00    +0.238 C 
ENDBRANCH  21  22
BRANCH  27  28
ATOM     28  O   UNL     1      43.442  17.092  21.390  0.00  0.00    -0.468 OA
ATOM     29  H   UNL     1      43.675  16.153  21.391  0.00  0.00    +0.408 HD
ENDBRANCH  27  28
TORSDOF 7
ENDMDL
MODEL 6
REMARK VINA RESULT:      -4.5      3.668      8.008
REMARK  Name = ZINC95486211
REMARK  11 active torsions:
REMARK  status: ('A' for Active; 'I' for Inactive)
REMARK    1  A    between atoms: C1_1  and  O1_2
REMARK    2  A    between atoms: O1_2  and  C2_3
REMARK    3  A    between atoms: C3_4  and  O9_26
REMARK    4  A    between atoms: C7_8  and  O2_9
REMARK    5  A    between atoms: C10_13  and  O8_25
REMARK    6  A    between atoms: C11_14  and  O7_23
REMARK    7  A    between atoms: C12_15  and  O6_21
REMARK    8  A    between atoms: C13_16  and  O5_19
REMARK    9  A    between atoms: O5_19  and  C15_20
REMARK   10  A    between atoms: O6_21  and  C16_22
REMARK   11  A    between atoms: O7_23  and  C17_24
REMARK                            x       y       z     vdW  Elec       q    Type
REMARK                         _______ _______ _______ _____ _____    ______ ____
ROOT
ATOM      3  C   UNL     1      48.361  12.709  15.432  0.00  0.00    +0.012 A 
ATOM      4  C   UNL     1      49.753  12.691  15.381  0.00  0.00    +0.176 A 
ATOM      7  C   UNL     1      50.498  13.670  16.021  0.00  0.00    -0.007 A 
ATOM      8  C   UNL     1      49.862  14.685  16.722  0.00  0.00    +0.184 A 
ATOM      9  C   UNL     1      48.458  14.710  16.765  0.00  0.00    -0.254 A 
ATOM     10  C   UNL     1      47.795  15.809  17.494  0.00  0.00    +0.449 A 
ATOM     11  C   UNL     1      48.658  16.943  17.874  0.00  0.00    -0.238 A 
ATOM     12  C   UNL     1      48.105  18.146  18.329  0.00  0.00    +0.195 A 
ATOM     15  C   UNL     1      48.941  19.198  18.667  0.00  0.00    +0.033 A 
ATOM     18  C   UNL     1      50.323  19.052  18.555  0.00  0.00    +0.144 A 
ATOM     21  C   UNL     1      50.874  17.859  18.109  0.00  0.00    +0.058 A 
ATOM     24  C   UNL     1      50.051  16.791  17.769  0.00  0.00    +0.162 A 
ATOM     25  O   UNL     1      46.609  15.780  17.765  0.00  0.00    -0.414 OA
ATOM     26  O   UNL     1      50.595  15.628  17.350  0.00  0.00    -0.207 OA
ATOM     27  C   UNL     1      47.708  13.719  16.120  0.00  0.00    +0.205 A 
ENDROOT
BRANCH   3   2
ATOM      1  C   UNL     1      47.331  10.568  15.557  0.00  0.00    +0.230 C 
ATOM      2  O   UNL     1      47.643  11.739  14.802  0.00  0.00    -0.314 OA
ENDBRANCH   3   2
BRANCH   4   5
ATOM      5  O   UNL     1      50.388  11.705  14.697  0.00  0.00    -0.475 OA
ATOM      6  H   UNL     1      51.348  11.810  14.654  0.00  0.00    +0.401 HD
ENDBRANCH   4   5
BRANCH  12  13
ATOM     13  O   UNL     1      46.758  18.282  18.439  0.00  0.00    -0.460 OA
ATOM     14  H   UNL     1      46.471  19.170  18.691  0.00  0.00    +0.401 HD
ENDBRANCH  12  13
BRANCH  15  16
ATOM     16  O   UNL     1      48.414  20.373  19.109  0.00  0.00    -0.311 OA
ATOM     17  C   UNL     1      48.264  20.526  20.522  0.00  0.00    +0.233 C 
ENDBRANCH  15  16
BRANCH  18  19
ATOM     19  O   UNL     1      51.137  20.090  18.884  0.00  0.00    -0.321 OA
ATOM     20  C   UNL     1      51.451  21.022  17.847  0.00  0.00    +0.255 C 
ENDBRANCH  18  19
BRANCH  21  22
ATOM     22  O   UNL     1      52.226  17.733  18.007  0.00  0.00    -0.311 OA
ATOM     23  C   UNL     1      52.918  17.213  19.144  0.00  0.00    +0.238 C 
ENDBRANCH  21  22
BRANCH  27  28
ATOM     28  O   UNL     1      46.351  13.744  16.174  0.00  0.00    -0.468 OA
ATOM     29  H   UNL     1      45.981  13.355  16.978  0.00  0.00    +0.408 HD
ENDBRANCH  27  28
TORSDOF 7
ENDMDL
MODEL 7
REMARK VINA RESULT:      -4.4      2.821      4.438
REMARK  Name = ZINC95486211
REMARK  11 active torsions:
REMARK  status: ('A' for Active; 'I' for Inactive)
REMARK    1  A    between atoms: C1_1  and  O1_2
REMARK    2  A    between atoms: O1_2  and  C2_3
REMARK    3  A    between atoms: C3_4  and  O9_26
REMARK    4  A    between atoms: C7_8  and  O2_9
REMARK    5  A    between atoms: C10_13  and  O8_25
REMARK    6  A    between atoms: C11_14  and  O7_23
REMARK    7  A    between atoms: C12_15  and  O6_21
REMARK    8  A    between atoms: C13_16  and  O5_19
REMARK    9  A    between atoms: O5_19  and  C15_20
REMARK   10  A    between atoms: O6_21  and  C16_22
REMARK   11  A    between atoms: O7_23  and  C17_24
REMARK                            x       y       z     vdW  Elec       q    Type
REMARK                         _______ _______ _______ _____ _____    ______ ____
ROOT
ATOM      3  C   UNL     1      43.631  20.831  19.504  0.00  0.00    +0.012 A 
ATOM      4  C   UNL     1      44.529  21.835  19.149  0.00  0.00    +0.176 A 
ATOM      7  C   UNL     1      45.839  21.527  18.814  0.00  0.00    -0.007 A 
ATOM      8  C   UNL     1      46.273  20.208  18.830  0.00  0.00    +0.184 A 
ATOM      9  C   UNL     1      45.370  19.197  19.199  0.00  0.00    -0.254 A 
ATOM     10  C   UNL     1      45.852  17.803  19.235  0.00  0.00    +0.449 A 
ATOM     11  C   UNL     1      47.313  17.623  19.156  0.00  0.00    -0.238 A 
ATOM     12  C   UNL     1      47.902  16.385  19.441  0.00  0.00    +0.195 A 
ATOM     15  C   UNL     1      49.280  16.251  19.371  0.00  0.00    +0.033 A 
ATOM     18  C   UNL     1      50.068  17.344  19.016  0.00  0.00    +0.144 A 
ATOM     21  C   UNL     1      49.487  18.571  18.727  0.00  0.00    +0.058 A 
ATOM     24  C   UNL     1      48.106  18.723  18.790  0.00  0.00    +0.162 A 
ATOM     25  O   UNL     1      45.089  16.858  19.324  0.00  0.00    -0.414 OA
ATOM     26  O   UNL     1      47.546  19.917  18.493  0.00  0.00    -0.207 OA
ATOM     27  C   UNL     1      44.047  19.510  19.534  0.00  0.00    +0.205 A 
ENDROOT
BRANCH   3   2
ATOM      1  C   UNL     1      41.399  21.188  18.759  0.00  0.00    +0.230 C 
ATOM      2  O   UNL     1      42.347  21.149  19.827  0.00  0.00    -0.314 OA
ENDBRANCH   3   2
BRANCH   4   5
ATOM      5  O   UNL     1      44.118  23.129  19.130  0.00  0.00    -0.475 OA
ATOM      6  H   UNL     1      43.375  23.298  18.536  0.00  0.00    +0.401 HD
ENDBRANCH   4   5
BRANCH  12  13
ATOM     13  O   UNL     1      47.129  15.322  19.785  0.00  0.00    -0.460 OA
ATOM     14  H   UNL     1      47.415  14.872  20.591  0.00  0.00    +0.401 HD
ENDBRANCH  12  13
BRANCH  15  16
ATOM     16  O   UNL     1      49.863  15.052  19.648  0.00  0.00    -0.311 OA
ATOM     17  C   UNL     1      50.252  14.818  21.003  0.00  0.00    +0.233 C 
ENDBRANCH  15  16
BRANCH  18  19
ATOM     19  O   UNL     1      51.419  17.206  18.953  0.00  0.00    -0.321 OA
ATOM     20  C   UNL     1      51.972  16.792  17.702  0.00  0.00    +0.255 C 
ENDBRANCH  18  19
BRANCH  21  22
ATOM     22  O   UNL     1      50.272  19.628  18.381  0.00  0.00    -0.311 OA
ATOM     23  C   UNL     1      50.709  20.486  19.437  0.00  0.00    +0.238 C 
ENDBRANCH  21  22
BRANCH  27  28
ATOM     28  O   UNL     1      43.178  18.526  19.880  0.00  0.00    -0.468 OA
ATOM     29  H   UNL     1      42.581  18.765  20.602  0.00  0.00    +0.408 HD
ENDBRANCH  27  28
TORSDOF 7
ENDMDL
MODEL 8
REMARK VINA RESULT:      -4.4     22.714     24.623
REMARK  Name = ZINC95486211
REMARK  11 active torsions:
REMARK  status: ('A' for Active; 'I' for Inactive)
REMARK    1  A    between atoms: C1_1  and  O1_2
REMARK    2  A    between atoms: O1_2  and  C2_3
REMARK    3  A    between atoms: C3_4  and  O9_26
REMARK    4  A    between atoms: C7_8  and  O2_9
REMARK    5  A    between atoms: C10_13  and  O8_25
REMARK    6  A    between atoms: C11_14  and  O7_23
REMARK    7  A    between atoms: C12_15  and  O6_21
REMARK    8  A    between atoms: C13_16  and  O5_19
REMARK    9  A    between atoms: O5_19  and  C15_20
REMARK   10  A    between atoms: O6_21  and  C16_22
REMARK   11  A    between atoms: O7_23  and  C17_24
REMARK                            x       y       z     vdW  Elec       q    Type
REMARK                         _______ _______ _______ _____ _____    ______ ____
ROOT
ATOM      3  C   UNL     1      52.828  33.543   5.888  0.00  0.00    +0.012 A 
ATOM      4  C   UNL     1      54.193  33.264   5.898  0.00  0.00    +0.176 A 
ATOM      7  C   UNL     1      54.858  32.946   4.724  0.00  0.00    -0.007 A 
ATOM      8  C   UNL     1      54.169  32.899   3.520  0.00  0.00    +0.184 A 
ATOM      9  C   UNL     1      52.790  33.168   3.512  0.00  0.00    -0.254 A 
ATOM     10  C   UNL     1      52.066  33.091   2.229  0.00  0.00    +0.449 A 
ATOM     11  C   UNL     1      52.795  32.460   1.113  0.00  0.00    -0.238 A 
ATOM     12  C   UNL     1      52.132  32.094  -0.064  0.00  0.00    +0.195 A 
ATOM     15  C   UNL     1      52.841  31.490  -1.090  0.00  0.00    +0.033 A 
ATOM     18  C   UNL     1      54.207  31.255  -0.945  0.00  0.00    +0.144 A 
ATOM     21  C   UNL     1      54.869  31.621   0.218  0.00  0.00    +0.058 A 
ATOM     24  C   UNL     1      54.173  32.230   1.257  0.00  0.00    +0.162 A 
ATOM     25  O   UNL     1      50.934  33.522   2.099  0.00  0.00    -0.414 OA
ATOM     26  O   UNL     1      54.827  32.597   2.381  0.00  0.00    -0.207 OA
ATOM     27  C   UNL     1      52.120  33.493   4.698  0.00  0.00    +0.205 A 
ENDROOT
BRANCH   3   2
ATOM      1  C   UNL     1      52.186  35.232   7.437  0.00  0.00    +0.230 C 
ATOM      2  O   UNL     1      52.189  33.857   7.049  0.00  0.00    -0.314 OA
ENDBRANCH   3   2
BRANCH   4   5
ATOM      5  O   UNL     1      54.879  33.305   7.069  0.00  0.00    -0.475 OA
ATOM      6  H   UNL     1      55.694  32.785   7.066  0.00  0.00    +0.401 HD
ENDBRANCH   4   5
BRANCH  12  13
ATOM     13  O   UNL     1      50.800  32.328  -0.201  0.00  0.00    -0.460 OA
ATOM     14  H   UNL     1      50.280  32.112   0.584  0.00  0.00    +0.401 HD
ENDBRANCH  12  13
BRANCH  15  16
ATOM     16  O   UNL     1      52.206  31.129  -2.239  0.00  0.00    -0.311 OA
ATOM     17  C   UNL     1      51.635  29.820  -2.279  0.00  0.00    +0.233 C 
ENDBRANCH  15  16
BRANCH  18  19
ATOM     19  O   UNL     1      54.897  30.659  -1.954  0.00  0.00    -0.321 OA
ATOM     20  C   UNL     1      55.141  29.256  -1.832  0.00  0.00    +0.255 C 
ENDBRANCH  18  19
BRANCH  21  22
ATOM     22  O   UNL     1      56.204  31.384   0.343  0.00  0.00    -0.311 OA
ATOM     23  C   UNL     1      57.090  32.423  -0.080  0.00  0.00    +0.238 C 
ENDBRANCH  21  22
BRANCH  27  28
ATOM     28  O   UNL     1      50.789  33.761   4.681  0.00  0.00    -0.468 OA
ATOM     29  H   UNL     1      50.248  33.044   4.325  0.00  0.00    +0.408 HD
ENDBRANCH  27  28
TORSDOF 7
ENDMDL
MODEL 9
REMARK VINA RESULT:      -4.3      2.800      4.462
REMARK  Name = ZINC95486211
REMARK  11 active torsions:
REMARK  status: ('A' for Active; 'I' for Inactive)
REMARK    1  A    between atoms: C1_1  and  O1_2
REMARK    2  A    between atoms: O1_2  and  C2_3
REMARK    3  A    between atoms: C3_4  and  O9_26
REMARK    4  A    between atoms: C7_8  and  O2_9
REMARK    5  A    between atoms: C10_13  and  O8_25
REMARK    6  A    between atoms: C11_14  and  O7_23
REMARK    7  A    between atoms: C12_15  and  O6_21
REMARK    8  A    between atoms: C13_16  and  O5_19
REMARK    9  A    between atoms: O5_19  and  C15_20
REMARK   10  A    between atoms: O6_21  and  C16_22
REMARK   11  A    between atoms: O7_23  and  C17_24
REMARK                            x       y       z     vdW  Elec       q    Type
REMARK                         _______ _______ _______ _____ _____    ______ ____
ROOT
ATOM      3  C   UNL     1      46.820  19.859  19.168  0.00  0.00    +0.012 A 
ATOM      4  C   UNL     1      48.126  20.109  19.583  0.00  0.00    +0.176 A 
ATOM      7  C   UNL     1      49.166  19.286  19.181  0.00  0.00    -0.007 A 
ATOM      8  C   UNL     1      48.918  18.196  18.358  0.00  0.00    +0.184 A 
ATOM      9  C   UNL     1      47.599  17.936  17.948  0.00  0.00    -0.254 A 
ATOM     10  C   UNL     1      47.345  16.761  17.093  0.00  0.00    +0.449 A 
ATOM     11  C   UNL     1      48.456  15.798  16.976  0.00  0.00    -0.238 A 
ATOM     12  C   UNL     1      48.253  14.531  16.416  0.00  0.00    +0.195 A 
ATOM     15  C   UNL     1      49.313  13.642  16.332  0.00  0.00    +0.033 A 
ATOM     18  C   UNL     1      50.572  14.015  16.799  0.00  0.00    +0.144 A 
ATOM     21  C   UNL     1      50.778  15.272  17.350  0.00  0.00    +0.058 A 
ATOM     24  C   UNL     1      49.726  16.178  17.441  0.00  0.00    +0.162 A 
ATOM     25  O   UNL     1      46.284  16.597  16.520  0.00  0.00    -0.414 OA
ATOM     26  O   UNL     1      49.937  17.406  17.964  0.00  0.00    -0.207 OA
ATOM     27  C   UNL     1      46.550  18.772  18.353  0.00  0.00    +0.205 A 
ENDROOT
BRANCH   3   2
ATOM      1  C   UNL     1      45.135  20.335  20.780  0.00  0.00    +0.230 C 
ATOM      2  O   UNL     1      45.809  20.679  19.568  0.00  0.00    -0.314 OA
ENDBRANCH   3   2
BRANCH   4   5
ATOM      5  O   UNL     1      48.383  21.171  20.389  0.00  0.00    -0.475 OA
ATOM      6  H   UNL     1      48.173  22.027  19.992  0.00  0.00    +0.401 HD
ENDBRANCH   4   5
BRANCH  12  13
ATOM     13  O   UNL     1      47.024  14.173  15.959  0.00  0.00    -0.460 OA
ATOM     14  H   UNL     1      46.641  14.798  15.329  0.00  0.00    +0.401 HD
ENDBRANCH  12  13
BRANCH  15  16
ATOM     16  O   UNL     1      49.126  12.407  15.791  0.00  0.00    -0.311 OA
ATOM     17  C   UNL     1      49.330  12.279  14.382  0.00  0.00    +0.233 C 
ENDBRANCH  15  16
BRANCH  18  19
ATOM     19  O   UNL     1      51.607  13.138  16.717  0.00  0.00    -0.321 OA
ATOM     20  C   UNL     1      51.719  12.167  17.760  0.00  0.00    +0.255 C 
ENDBRANCH  18  19
BRANCH  21  22
ATOM     22  O   UNL     1      52.014  15.621  17.802  0.00  0.00    -0.311 OA
ATOM     23  C   UNL     1      52.263  15.465  19.200  0.00  0.00    +0.238 C 
ENDBRANCH  21  22
BRANCH  27  28
ATOM     28  O   UNL     1      45.279  18.520  17.945  0.00  0.00    -0.468 OA
ATOM     29  H   UNL     1      44.721  18.115  18.623  0.00  0.00    +0.408 HD
ENDBRANCH  27  28
TORSDOF 7
ENDMDL
