MODEL 1
REMARK VINA RESULT:      -6.4      0.000      0.000
REMARK  Name = ZINC95485964
REMARK  18 active torsions:
REMARK  status: ('A' for Active; 'I' for Inactive)
REMARK    1  A    between atoms: C1_1  and  C2_2
REMARK    2  A    between atoms: C8_8  and  O2_19
REMARK    3  A    between atoms: C10_10  and  O1_18
REMARK    4  A    between atoms: C11_11  and  C12_12
REMARK    5  A    between atoms: C12_12  and  C13_13
REMARK    6  A    between atoms: C13_13  and  C14_14
REMARK    7  A    between atoms: C15_15  and  C16_16
REMARK    8  A    between atoms: C15_15  and  C17_17
REMARK    9  A    between atoms: C21_24  and  C22_25
REMARK   10  A    between atoms: C21_24  and  C28_31
REMARK   11  A    between atoms: C22_25  and  C23_26
REMARK   12  A    between atoms: C23_26  and  C24_27
REMARK   13  A    between atoms: C25_28  and  C26_29
REMARK   14  A    between atoms: C25_28  and  C27_30
REMARK   15  A    between atoms: C28_31  and  C29_32
REMARK   16  A    between atoms: C29_32  and  C30_33
REMARK   17  A    between atoms: C31_34  and  C32_35
REMARK   18  A    between atoms: C31_34  and  C33_36
REMARK                            x       y       z     vdW  Elec       q    Type
REMARK                         _______ _______ _______ _____ _____    ______ ____
ROOT
ATOM      1  C   UNL     1      45.476  22.183  18.771  0.00  0.00    +0.099 C 
ATOM      2  C   UNL     1      45.891  20.824  19.275  0.00  0.00    -0.036 A 
ATOM      3  C   UNL     1      47.163  20.386  19.050  0.00  0.00    +0.005 A 
ATOM      4  C   UNL     1      47.562  19.122  19.512  0.00  0.00    +0.009 A 
ATOM      5  C   UNL     1      48.866  18.645  19.282  0.00  0.00    +0.017 A 
ATOM      6  C   UNL     1      49.249  17.421  19.734  0.00  0.00    -0.004 A 
ATOM      7  C   UNL     1      48.345  16.614  20.451  0.00  0.00    -0.212 A 
ATOM      8  C   UNL     1      48.746  15.304  20.980  0.00  0.00    +0.409 C 
ATOM      9  C   UNL     1      50.025  14.677  20.469  0.00  0.00    +0.042 C 
ATOM     10  C   UNL     1      51.030  15.803  20.320  0.00  0.00    +0.380 C 
ATOM     11  O   UNL     1      52.094  15.770  20.891  0.00  0.00    -0.422 OA
ATOM     12  O   UNL     1      48.065  14.737  21.810  0.00  0.00    -0.430 OA
ATOM     13  C   UNL     1      47.037  17.054  20.689  0.00  0.00    +0.218 A 
ATOM     16  C   UNL     1      50.656  16.966  19.435  0.00  0.00    -0.066 C 
ATOM     29  C   UNL     1      46.633  18.316  20.217  0.00  0.00    -0.122 A 
ATOM     30  C   UNL     1      45.325  18.793  20.433  0.00  0.00    +0.148 A 
ATOM     33  C   UNL     1      44.973  20.041  19.965  0.00  0.00    -0.113 A 
ENDROOT
BRANCH  13  14
ATOM     14  O   UNL     1      46.165  16.270  21.366  0.00  0.00    -0.462 OA
ATOM     15  H   UNL     1      45.666  16.737  22.049  0.00  0.00    +0.398 HD
ENDBRANCH  13  14
BRANCH  30  31
ATOM     31  O   UNL     1      44.422  18.032  21.102  0.00  0.00    -0.472 OA
ATOM     32  H   UNL     1      43.521  18.100  20.759  0.00  0.00    +0.387 HD
ENDBRANCH  30  31
BRANCH  16  17
ATOM     17  C   UNL     1      51.626  18.123  19.683  0.00  0.00    +0.063 C 
BRANCH  17  18
ATOM     18  C   UNL     1      52.451  18.377  18.418  0.00  0.00    +0.046 C 
BRANCH  18  19
ATOM     19  C   UNL     1      52.200  19.779  17.928  0.00  0.00    -0.054 C 
ATOM     20  C   UNL     1      51.919  19.990  16.666  0.00  0.00    -0.132 C 
ATOM     21  C   UNL     1      51.547  21.375  16.198  0.00  0.00    +0.071 C 
ATOM     22  C   UNL     1      51.967  18.851  15.681  0.00  0.00    +0.070 C 
ENDBRANCH  18  19
ENDBRANCH  17  18
ENDBRANCH  16  17
BRANCH  16  23
ATOM     23  C   UNL     1      50.749  16.536  17.969  0.00  0.00    +0.065 C 
BRANCH  23  24
ATOM     24  C   UNL     1      49.376  16.673  17.310  0.00  0.00    +0.049 C 
BRANCH  24  25
ATOM     25  C   UNL     1      48.792  15.302  17.077  0.00  0.00    -0.057 C 
ATOM     26  C   UNL     1      47.499  15.159  16.925  0.00  0.00    -0.129 C 
ATOM     27  C   UNL     1      46.924  13.803  16.606  0.00  0.00    +0.073 C 
ATOM     28  C   UNL     1      46.587  16.350  17.069  0.00  0.00    +0.071 C 
ENDBRANCH  24  25
ENDBRANCH  23  24
ENDBRANCH  16  23
BRANCH  33  34
ATOM     34  C   UNL     1      43.577  20.559  20.198  0.00  0.00    +0.081 C 
BRANCH  34  35
ATOM     35  C   UNL     1      42.694  20.201  19.000  0.00  0.00    +0.058 C 
BRANCH  35  36
ATOM     36  C   UNL     1      41.491  21.108  18.976  0.00  0.00    -0.065 C 
ATOM     37  C   UNL     1      40.380  20.707  18.409  0.00  0.00    -0.126 C 
ATOM     38  C   UNL     1      39.138  21.555  18.503  0.00  0.00    +0.072 C 
ATOM     39  C   UNL     1      40.344  19.400  17.662  0.00  0.00    +0.073 C 
ENDBRANCH  35  36
ENDBRANCH  34  35
ENDBRANCH  33  34
TORSDOF 11
ENDMDL
MODEL 2
REMARK VINA RESULT:      -6.2      3.599      6.463
REMARK  Name = ZINC95485964
REMARK  18 active torsions:
REMARK  status: ('A' for Active; 'I' for Inactive)
REMARK    1  A    between atoms: C1_1  and  C2_2
REMARK    2  A    between atoms: C8_8  and  O2_19
REMARK    3  A    between atoms: C10_10  and  O1_18
REMARK    4  A    between atoms: C11_11  and  C12_12
REMARK    5  A    between atoms: C12_12  and  C13_13
REMARK    6  A    between atoms: C13_13  and  C14_14
REMARK    7  A    between atoms: C15_15  and  C16_16
REMARK    8  A    between atoms: C15_15  and  C17_17
REMARK    9  A    between atoms: C21_24  and  C22_25
REMARK   10  A    between atoms: C21_24  and  C28_31
REMARK   11  A    between atoms: C22_25  and  C23_26
REMARK   12  A    between atoms: C23_26  and  C24_27
REMARK   13  A    between atoms: C25_28  and  C26_29
REMARK   14  A    between atoms: C25_28  and  C27_30
REMARK   15  A    between atoms: C28_31  and  C29_32
REMARK   16  A    between atoms: C29_32  and  C30_33
REMARK   17  A    between atoms: C31_34  and  C32_35
REMARK   18  A    between atoms: C31_34  and  C33_36
REMARK                            x       y       z     vdW  Elec       q    Type
REMARK                         _______ _______ _______ _____ _____    ______ ____
ROOT
ATOM      1  C   UNL     1      51.847  20.382  15.794  0.00  0.00    +0.099 C 
ATOM      2  C   UNL     1      51.898  19.180  16.703  0.00  0.00    -0.036 A 
ATOM      3  C   UNL     1      51.618  17.945  16.196  0.00  0.00    +0.005 A 
ATOM      4  C   UNL     1      51.660  16.818  17.032  0.00  0.00    +0.009 A 
ATOM      5  C   UNL     1      51.363  15.536  16.533  0.00  0.00    +0.017 A 
ATOM      6  C   UNL     1      51.408  14.445  17.345  0.00  0.00    -0.004 A 
ATOM      7  C   UNL     1      51.763  14.584  18.701  0.00  0.00    -0.212 A 
ATOM      8  C   UNL     1      51.852  13.418  19.588  0.00  0.00    +0.409 C 
ATOM      9  C   UNL     1      51.241  12.111  19.133  0.00  0.00    +0.042 C 
ATOM     10  C   UNL     1      51.532  11.991  17.649  0.00  0.00    +0.380 C 
ATOM     11  O   UNL     1      52.123  11.036  17.205  0.00  0.00    -0.422 OA
ATOM     12  O   UNL     1      52.406  13.501  20.666  0.00  0.00    -0.430 OA
ATOM     13  C   UNL     1      52.053  15.847  19.231  0.00  0.00    +0.218 A 
ATOM     16  C   UNL     1      51.060  13.105  16.748  0.00  0.00    -0.066 C 
ATOM     29  C   UNL     1      52.002  16.979  18.397  0.00  0.00    -0.122 A 
ATOM     30  C   UNL     1      52.284  18.266  18.894  0.00  0.00    +0.148 A 
ATOM     33  C   UNL     1      52.234  19.348  18.041  0.00  0.00    -0.113 A 
ENDROOT
BRANCH  13  14
ATOM     14  O   UNL     1      52.380  15.979  20.538  0.00  0.00    -0.462 OA
ATOM     15  H   UNL     1      53.073  15.373  20.834  0.00  0.00    +0.398 HD
ENDBRANCH  13  14
BRANCH  30  31
ATOM     31  O   UNL     1      52.609  18.439  20.201  0.00  0.00    -0.472 OA
ATOM     32  H   UNL     1      51.978  18.044  20.817  0.00  0.00    +0.387 HD
ENDBRANCH  30  31
BRANCH  16  17
ATOM     17  C   UNL     1      51.734  12.969  15.380  0.00  0.00    +0.063 C 
BRANCH  17  18
ATOM     18  C   UNL     1      50.681  12.615  14.327  0.00  0.00    +0.046 C 
BRANCH  18  19
ATOM     19  C   UNL     1      51.283  12.750  12.952  0.00  0.00    -0.054 C 
ATOM     20  C   UNL     1      50.526  13.090  11.938  0.00  0.00    -0.132 C 
ATOM     21  C   UNL     1      51.147  13.345  10.587  0.00  0.00    +0.071 C 
ATOM     22  C   UNL     1      49.037  13.226  12.120  0.00  0.00    +0.070 C 
ENDBRANCH  18  19
ENDBRANCH  17  18
ENDBRANCH  16  17
BRANCH  16  23
ATOM     23  C   UNL     1      49.543  13.005  16.574  0.00  0.00    +0.065 C 
BRANCH  23  24
ATOM     24  C   UNL     1      48.851  13.868  17.630  0.00  0.00    +0.049 C 
BRANCH  24  25
ATOM     25  C   UNL     1      47.937  14.857  16.950  0.00  0.00    -0.057 C 
ATOM     26  C   UNL     1      47.764  16.049  17.464  0.00  0.00    -0.129 C 
ATOM     27  C   UNL     1      46.920  17.066  16.740  0.00  0.00    +0.073 C 
ATOM     28  C   UNL     1      48.410  16.404  18.779  0.00  0.00    +0.071 C 
ENDBRANCH  24  25
ENDBRANCH  23  24
ENDBRANCH  16  23
BRANCH  33  34
ATOM     34  C   UNL     1      52.541  20.727  18.565  0.00  0.00    +0.081 C 
BRANCH  34  35
ATOM     35  C   UNL     1      51.462  21.144  19.566  0.00  0.00    +0.058 C 
BRANCH  35  36
ATOM     36  C   UNL     1      50.105  21.016  18.923  0.00  0.00    -0.065 C 
ATOM     37  C   UNL     1      49.137  20.397  19.553  0.00  0.00    -0.126 C 
ATOM     38  C   UNL     1      47.746  20.387  18.972  0.00  0.00    +0.072 C 
ATOM     39  C   UNL     1      49.414  19.696  20.857  0.00  0.00    +0.073 C 
ENDBRANCH  35  36
ENDBRANCH  34  35
ENDBRANCH  33  34
TORSDOF 11
ENDMDL
MODEL 3
REMARK VINA RESULT:      -5.9      2.859      6.631
REMARK  Name = ZINC95485964
REMARK  18 active torsions:
REMARK  status: ('A' for Active; 'I' for Inactive)
REMARK    1  A    between atoms: C1_1  and  C2_2
REMARK    2  A    between atoms: C8_8  and  O2_19
REMARK    3  A    between atoms: C10_10  and  O1_18
REMARK    4  A    between atoms: C11_11  and  C12_12
REMARK    5  A    between atoms: C12_12  and  C13_13
REMARK    6  A    between atoms: C13_13  and  C14_14
REMARK    7  A    between atoms: C15_15  and  C16_16
REMARK    8  A    between atoms: C15_15  and  C17_17
REMARK    9  A    between atoms: C21_24  and  C22_25
REMARK   10  A    between atoms: C21_24  and  C28_31
REMARK   11  A    between atoms: C22_25  and  C23_26
REMARK   12  A    between atoms: C23_26  and  C24_27
REMARK   13  A    between atoms: C25_28  and  C26_29
REMARK   14  A    between atoms: C25_28  and  C27_30
REMARK   15  A    between atoms: C28_31  and  C29_32
REMARK   16  A    between atoms: C29_32  and  C30_33
REMARK   17  A    between atoms: C31_34  and  C32_35
REMARK   18  A    between atoms: C31_34  and  C33_36
REMARK                            x       y       z     vdW  Elec       q    Type
REMARK                         _______ _______ _______ _____ _____    ______ ____
ROOT
ATOM      1  C   UNL     1      49.169  13.675  15.911  0.00  0.00    +0.099 C 
ATOM      2  C   UNL     1      48.303  14.449  16.873  0.00  0.00    -0.036 A 
ATOM      3  C   UNL     1      48.702  15.686  17.288  0.00  0.00    +0.005 A 
ATOM      4  C   UNL     1      47.907  16.415  18.184  0.00  0.00    +0.009 A 
ATOM      5  C   UNL     1      48.305  17.688  18.635  0.00  0.00    +0.017 A 
ATOM      6  C   UNL     1      47.529  18.394  19.501  0.00  0.00    -0.004 A 
ATOM      7  C   UNL     1      46.306  17.862  19.953  0.00  0.00    -0.212 A 
ATOM      8  C   UNL     1      45.435  18.620  20.861  0.00  0.00    +0.409 C 
ATOM      9  C   UNL     1      46.004  19.827  21.573  0.00  0.00    +0.042 C 
ATOM     10  C   UNL     1      46.901  20.535  20.575  0.00  0.00    +0.380 C 
ATOM     11  O   UNL     1      46.719  21.694  20.285  0.00  0.00    -0.422 OA
ATOM     12  O   UNL     1      44.281  18.283  21.036  0.00  0.00    -0.430 OA
ATOM     13  C   UNL     1      45.886  16.594  19.533  0.00  0.00    +0.218 A 
ATOM     16  C   UNL     1      48.026  19.743  19.956  0.00  0.00    -0.066 C 
ATOM     29  C   UNL     1      46.687  15.858  18.643  0.00  0.00    -0.122 A 
ATOM     30  C   UNL     1      46.301  14.578  18.199  0.00  0.00    +0.148 A 
ATOM     33  C   UNL     1      47.109  13.893  17.317  0.00  0.00    -0.113 A 
ENDROOT
BRANCH  13  14
ATOM     14  O   UNL     1      44.716  16.080  19.981  0.00  0.00    -0.462 OA
ATOM     15  H   UNL     1      44.066  15.918  19.284  0.00  0.00    +0.398 HD
ENDBRANCH  13  14
BRANCH  30  31
ATOM     31  O   UNL     1      45.139  14.026  18.632  0.00  0.00    -0.472 OA
ATOM     32  H   UNL     1      45.083  13.071  18.498  0.00  0.00    +0.387 HD
ENDBRANCH  30  31
BRANCH  16  17
ATOM     17  C   UNL     1      48.584  20.510  18.755  0.00  0.00    +0.063 C 
BRANCH  17  18
ATOM     18  C   UNL     1      50.071  20.794  18.978  0.00  0.00    +0.046 C 
BRANCH  18  19
ATOM     19  C   UNL     1      50.789  20.779  17.654  0.00  0.00    -0.054 C 
ATOM     20  C   UNL     1      51.588  19.785  17.354  0.00  0.00    -0.132 C 
ATOM     21  C   UNL     1      52.210  19.705  15.983  0.00  0.00    +0.071 C 
ATOM     22  C   UNL     1      51.884  18.720  18.378  0.00  0.00    +0.070 C 
ENDBRANCH  18  19
ENDBRANCH  17  18
ENDBRANCH  16  17
BRANCH  16  23
ATOM     23  C   UNL     1      49.137  19.551  20.991  0.00  0.00    +0.065 C 
BRANCH  23  24
ATOM     24  C   UNL     1      49.002  18.170  21.634  0.00  0.00    +0.049 C 
BRANCH  24  25
ATOM     25  C   UNL     1      50.304  17.422  21.494  0.00  0.00    -0.057 C 
ATOM     26  C   UNL     1      50.301  16.117  21.390  0.00  0.00    -0.129 C 
ATOM     27  C   UNL     1      51.594  15.376  21.163  0.00  0.00    +0.073 C 
ATOM     28  C   UNL     1      49.005  15.355  21.497  0.00  0.00    +0.071 C 
ENDBRANCH  24  25
ENDBRANCH  23  24
ENDBRANCH  16  23
BRANCH  33  34
ATOM     34  C   UNL     1      46.698  12.526  16.834  0.00  0.00    +0.081 C 
BRANCH  34  35
ATOM     35  C   UNL     1      46.950  11.498  17.939  0.00  0.00    +0.058 C 
BRANCH  35  36
ATOM     36  C   UNL     1      48.288  10.842  17.719  0.00  0.00    -0.065 C 
ATOM     37  C   UNL     1      49.263  11.039  18.572  0.00  0.00    -0.126 C 
ATOM     38  C   UNL     1      50.555  10.278  18.428  0.00  0.00    +0.072 C 
ATOM     39  C   UNL     1      49.092  12.027  19.696  0.00  0.00    +0.073 C 
ENDBRANCH  35  36
ENDBRANCH  34  35
ENDBRANCH  33  34
TORSDOF 11
ENDMDL
MODEL 4
REMARK VINA RESULT:      -5.8      2.213      3.214
REMARK  Name = ZINC95485964
REMARK  18 active torsions:
REMARK  status: ('A' for Active; 'I' for Inactive)
REMARK    1  A    between atoms: C1_1  and  C2_2
REMARK    2  A    between atoms: C8_8  and  O2_19
REMARK    3  A    between atoms: C10_10  and  O1_18
REMARK    4  A    between atoms: C11_11  and  C12_12
REMARK    5  A    between atoms: C12_12  and  C13_13
REMARK    6  A    between atoms: C13_13  and  C14_14
REMARK    7  A    between atoms: C15_15  and  C16_16
REMARK    8  A    between atoms: C15_15  and  C17_17
REMARK    9  A    between atoms: C21_24  and  C22_25
REMARK   10  A    between atoms: C21_24  and  C28_31
REMARK   11  A    between atoms: C22_25  and  C23_26
REMARK   12  A    between atoms: C23_26  and  C24_27
REMARK   13  A    between atoms: C25_28  and  C26_29
REMARK   14  A    between atoms: C25_28  and  C27_30
REMARK   15  A    between atoms: C28_31  and  C29_32
REMARK   16  A    between atoms: C29_32  and  C30_33
REMARK   17  A    between atoms: C31_34  and  C32_35
REMARK   18  A    between atoms: C31_34  and  C33_36
REMARK                            x       y       z     vdW  Elec       q    Type
REMARK                         _______ _______ _______ _____ _____    ______ ____
ROOT
ATOM      1  C   UNL     1      44.101  20.479  18.633  0.00  0.00    +0.099 C 
ATOM      2  C   UNL     1      44.530  19.106  19.085  0.00  0.00    -0.036 A 
ATOM      3  C   UNL     1      45.476  18.431  18.372  0.00  0.00    +0.005 A 
ATOM      4  C   UNL     1      45.883  17.152  18.780  0.00  0.00    +0.009 A 
ATOM      5  C   UNL     1      46.850  16.432  18.052  0.00  0.00    +0.017 A 
ATOM      6  C   UNL     1      47.243  15.193  18.454  0.00  0.00    -0.004 A 
ATOM      7  C   UNL     1      46.694  14.615  19.614  0.00  0.00    -0.212 A 
ATOM      8  C   UNL     1      47.128  13.294  20.086  0.00  0.00    +0.409 C 
ATOM      9  C   UNL     1      47.921  12.412  19.147  0.00  0.00    +0.042 C 
ATOM     10  C   UNL     1      48.868  13.326  18.391  0.00  0.00    +0.380 C 
ATOM     11  O   UNL     1      50.062  13.141  18.412  0.00  0.00    -0.422 OA
ATOM     12  O   UNL     1      46.857  12.918  21.209  0.00  0.00    -0.430 OA
ATOM     13  C   UNL     1      45.723  15.299  20.355  0.00  0.00    +0.218 A 
ATOM     16  C   UNL     1      48.269  14.472  17.615  0.00  0.00    -0.066 C 
ATOM     29  C   UNL     1      45.307  16.577  19.941  0.00  0.00    -0.122 A 
ATOM     30  C   UNL     1      44.330  17.296  20.657  0.00  0.00    +0.148 A 
ATOM     33  C   UNL     1      43.958  18.552  20.225  0.00  0.00    -0.113 A 
ENDROOT
BRANCH  13  14
ATOM     14  O   UNL     1      45.185  14.735  21.462  0.00  0.00    -0.462 OA
ATOM     15  H   UNL     1      44.513  15.279  21.894  0.00  0.00    +0.398 HD
ENDBRANCH  13  14
BRANCH  30  31
ATOM     31  O   UNL     1      43.764  16.759  21.768  0.00  0.00    -0.472 OA
ATOM     32  H   UNL     1      44.230  15.986  22.111  0.00  0.00    +0.387 HD
ENDBRANCH  30  31
BRANCH  16  17
ATOM     17  C   UNL     1      49.378  15.450  17.220  0.00  0.00    +0.063 C 
BRANCH  17  18
ATOM     18  C   UNL     1      49.834  16.230  18.455  0.00  0.00    +0.046 C 
BRANCH  18  19
ATOM     19  C   UNL     1      50.047  17.675  18.086  0.00  0.00    -0.054 C 
ATOM     20  C   UNL     1      49.752  18.620  18.944  0.00  0.00    -0.132 C 
ATOM     21  C   UNL     1      50.079  20.057  18.625  0.00  0.00    +0.071 C 
ATOM     22  C   UNL     1      49.088  18.272  20.251  0.00  0.00    +0.070 C 
ENDBRANCH  18  19
ENDBRANCH  17  18
ENDBRANCH  16  17
BRANCH  16  23
ATOM     23  C   UNL     1      47.601  13.931  16.350  0.00  0.00    +0.065 C 
BRANCH  23  24
ATOM     24  C   UNL     1      48.346  12.683  15.874  0.00  0.00    +0.049 C 
BRANCH  24  25
ATOM     25  C   UNL     1      48.712  12.840  14.419  0.00  0.00    -0.057 C 
ATOM     26  C   UNL     1      49.970  12.865  14.060  0.00  0.00    -0.129 C 
ATOM     27  C   UNL     1      50.336  12.935  12.600  0.00  0.00    +0.073 C 
ATOM     28  C   UNL     1      51.054  12.824  15.107  0.00  0.00    +0.071 C 
ENDBRANCH  24  25
ENDBRANCH  23  24
ENDBRANCH  16  23
BRANCH  33  34
ATOM     34  C   UNL     1      42.919  19.328  20.990  0.00  0.00    +0.081 C 
BRANCH  34  35
ATOM     35  C   UNL     1      41.526  18.955  20.479  0.00  0.00    +0.058 C 
BRANCH  35  36
ATOM     36  C   UNL     1      40.766  20.211  20.134  0.00  0.00    -0.065 C 
ATOM     37  C   UNL     1      40.342  20.404  18.910  0.00  0.00    -0.126 C 
ATOM     38  C   UNL     1      39.467  21.590  18.595  0.00  0.00    +0.072 C 
ATOM     39  C   UNL     1      40.728  19.443  17.818  0.00  0.00    +0.073 C 
ENDBRANCH  35  36
ENDBRANCH  34  35
ENDBRANCH  33  34
TORSDOF 11
ENDMDL
MODEL 5
REMARK VINA RESULT:      -5.7      3.678      7.938
REMARK  Name = ZINC95485964
REMARK  18 active torsions:
REMARK  status: ('A' for Active; 'I' for Inactive)
REMARK    1  A    between atoms: C1_1  and  C2_2
REMARK    2  A    between atoms: C8_8  and  O2_19
REMARK    3  A    between atoms: C10_10  and  O1_18
REMARK    4  A    between atoms: C11_11  and  C12_12
REMARK    5  A    between atoms: C12_12  and  C13_13
REMARK    6  A    between atoms: C13_13  and  C14_14
REMARK    7  A    between atoms: C15_15  and  C16_16
REMARK    8  A    between atoms: C15_15  and  C17_17
REMARK    9  A    between atoms: C21_24  and  C22_25
REMARK   10  A    between atoms: C21_24  and  C28_31
REMARK   11  A    between atoms: C22_25  and  C23_26
REMARK   12  A    between atoms: C23_26  and  C24_27
REMARK   13  A    between atoms: C25_28  and  C26_29
REMARK   14  A    between atoms: C25_28  and  C27_30
REMARK   15  A    between atoms: C28_31  and  C29_32
REMARK   16  A    between atoms: C29_32  and  C30_33
REMARK   17  A    between atoms: C31_34  and  C32_35
REMARK   18  A    between atoms: C31_34  and  C33_36
REMARK                            x       y       z     vdW  Elec       q    Type
REMARK                         _______ _______ _______ _____ _____    ______ ____
ROOT
ATOM      1  C   UNL     1      49.968  12.395  18.396  0.00  0.00    +0.099 C 
ATOM      2  C   UNL     1      50.404  13.731  17.851  0.00  0.00    -0.036 A 
ATOM      3  C   UNL     1      50.162  14.861  18.575  0.00  0.00    +0.005 A 
ATOM      4  C   UNL     1      50.560  16.112  18.079  0.00  0.00    +0.009 A 
ATOM      5  C   UNL     1      50.310  17.292  18.804  0.00  0.00    +0.017 A 
ATOM      6  C   UNL     1      50.701  18.502  18.321  0.00  0.00    -0.004 A 
ATOM      7  C   UNL     1      51.373  18.590  17.087  0.00  0.00    -0.212 A 
ATOM      8  C   UNL     1      51.835  19.881  16.561  0.00  0.00    +0.409 C 
ATOM      9  C   UNL     1      51.298  21.151  17.181  0.00  0.00    +0.042 C 
ATOM     10  C   UNL     1      51.210  20.900  18.675  0.00  0.00    +0.380 C 
ATOM     11  O   UNL     1      51.782  21.614  19.463  0.00  0.00    -0.422 OA
ATOM     12  O   UNL     1      52.633  19.927  15.646  0.00  0.00    -0.430 OA
ATOM     13  C   UNL     1      51.628  17.437  16.335  0.00  0.00    +0.218 A 
ATOM     16  C   UNL     1      50.384  19.727  19.142  0.00  0.00    -0.066 C 
ATOM     29  C   UNL     1      51.220  16.184  16.827  0.00  0.00    -0.122 A 
ATOM     30  C   UNL     1      51.455  15.001  16.099  0.00  0.00    +0.148 A 
ATOM     33  C   UNL     1      51.050  13.791  16.622  0.00  0.00    -0.113 A 
ENDROOT
BRANCH  13  14
ATOM     14  O   UNL     1      52.261  17.526  15.142  0.00  0.00    -0.462 OA
ATOM     15  H   UNL     1      52.253  16.705  14.630  0.00  0.00    +0.398 HD
ENDBRANCH  13  14
BRANCH  30  31
ATOM     31  O   UNL     1      52.081  15.052  14.896  0.00  0.00    -0.472 OA
ATOM     32  H   UNL     1      51.526  14.781  14.152  0.00  0.00    +0.387 HD
ENDBRANCH  30  31
BRANCH  16  17
ATOM     17  C   UNL     1      50.693  19.444  20.614  0.00  0.00    +0.063 C 
BRANCH  17  18
ATOM     18  C   UNL     1      52.150  18.997  20.752  0.00  0.00    +0.046 C 
BRANCH  18  19
ATOM     19  C   UNL     1      52.233  17.849  21.725  0.00  0.00    -0.054 C 
ATOM     20  C   UNL     1      52.943  16.789  21.427  0.00  0.00    -0.132 C 
ATOM     21  C   UNL     1      53.128  15.695  22.448  0.00  0.00    +0.071 C 
ATOM     22  C   UNL     1      53.575  16.662  20.065  0.00  0.00    +0.070 C 
ENDBRANCH  18  19
ENDBRANCH  17  18
ENDBRANCH  16  17
BRANCH  16  23
ATOM     23  C   UNL     1      48.898  20.065  18.996  0.00  0.00    +0.065 C 
BRANCH  23  24
ATOM     24  C   UNL     1      48.393  20.710  20.288  0.00  0.00    +0.049 C 
BRANCH  24  25
ATOM     25  C   UNL     1      46.973  21.177  20.094  0.00  0.00    -0.057 C 
ATOM     26  C   UNL     1      46.457  22.062  20.910  0.00  0.00    -0.129 C 
ATOM     27  C   UNL     1      45.069  22.593  20.666  0.00  0.00    +0.073 C 
ATOM     28  C   UNL     1      47.253  22.550  22.093  0.00  0.00    +0.071 C 
ENDBRANCH  24  25
ENDBRANCH  23  24
ENDBRANCH  16  23
BRANCH  33  34
ATOM     34  C   UNL     1      51.304  12.522  15.851  0.00  0.00    +0.081 C 
BRANCH  34  35
ATOM     35  C   UNL     1      50.317  12.426  14.686  0.00  0.00    +0.058 C 
BRANCH  35  36
ATOM     36  C   UNL     1      49.286  11.368  14.988  0.00  0.00    -0.065 C 
ATOM     37  C   UNL     1      48.048  11.714  15.240  0.00  0.00    -0.126 C 
ATOM     38  C   UNL     1      46.990  10.654  15.407  0.00  0.00    +0.072 C 
ATOM     39  C   UNL     1      47.682  13.170  15.363  0.00  0.00    +0.073 C 
ENDBRANCH  35  36
ENDBRANCH  34  35
ENDBRANCH  33  34
TORSDOF 11
ENDMDL
MODEL 6
REMARK VINA RESULT:      -5.5      3.370      6.473
REMARK  Name = ZINC95485964
REMARK  18 active torsions:
REMARK  status: ('A' for Active; 'I' for Inactive)
REMARK    1  A    between atoms: C1_1  and  C2_2
REMARK    2  A    between atoms: C8_8  and  O2_19
REMARK    3  A    between atoms: C10_10  and  O1_18
REMARK    4  A    between atoms: C11_11  and  C12_12
REMARK    5  A    between atoms: C12_12  and  C13_13
REMARK    6  A    between atoms: C13_13  and  C14_14
REMARK    7  A    between atoms: C15_15  and  C16_16
REMARK    8  A    between atoms: C15_15  and  C17_17
REMARK    9  A    between atoms: C21_24  and  C22_25
REMARK   10  A    between atoms: C21_24  and  C28_31
REMARK   11  A    between atoms: C22_25  and  C23_26
REMARK   12  A    between atoms: C23_26  and  C24_27
REMARK   13  A    between atoms: C25_28  and  C26_29
REMARK   14  A    between atoms: C25_28  and  C27_30
REMARK   15  A    between atoms: C28_31  and  C29_32
REMARK   16  A    between atoms: C29_32  and  C30_33
REMARK   17  A    between atoms: C31_34  and  C32_35
REMARK   18  A    between atoms: C31_34  and  C33_36
REMARK                            x       y       z     vdW  Elec       q    Type
REMARK                         _______ _______ _______ _____ _____    ______ ____
ROOT
ATOM      1  C   UNL     1      51.044  13.810  17.148  0.00  0.00    +0.099 C 
ATOM      2  C   UNL     1      50.181  14.536  18.147  0.00  0.00    -0.036 A 
ATOM      3  C   UNL     1      50.310  15.887  18.288  0.00  0.00    +0.005 A 
ATOM      4  C   UNL     1      49.514  16.575  19.216  0.00  0.00    +0.009 A 
ATOM      5  C   UNL     1      49.640  17.967  19.386  0.00  0.00    +0.017 A 
ATOM      6  C   UNL     1      48.864  18.631  20.285  0.00  0.00    -0.004 A 
ATOM      7  C   UNL     1      47.913  17.933  21.054  0.00  0.00    -0.212 A 
ATOM      8  C   UNL     1      47.040  18.633  22.005  0.00  0.00    +0.409 C 
ATOM      9  C   UNL     1      47.389  20.051  22.402  0.00  0.00    +0.042 C 
ATOM     10  C   UNL     1      47.893  20.740  21.147  0.00  0.00    +0.380 C 
ATOM     11  O   UNL     1      47.372  21.750  20.738  0.00  0.00    -0.422 OA
ATOM     12  O   UNL     1      46.059  18.085  22.464  0.00  0.00    -0.430 OA
ATOM     13  C   UNL     1      47.770  16.547  20.917  0.00  0.00    +0.218 A 
ATOM     16  C   UNL     1      49.065  20.119  20.428  0.00  0.00    -0.066 C 
ATOM     29  C   UNL     1      48.575  15.854  19.995  0.00  0.00    -0.122 A 
ATOM     30  C   UNL     1      48.464  14.460  19.830  0.00  0.00    +0.148 A 
ATOM     33  C   UNL     1      49.263  13.820  18.906  0.00  0.00    -0.113 A 
ENDROOT
BRANCH  13  14
ATOM     14  O   UNL     1      46.866  15.877  21.669  0.00  0.00    -0.462 OA
ATOM     15  H   UNL     1      47.007  15.961  22.621  0.00  0.00    +0.398 HD
ENDBRANCH  13  14
BRANCH  30  31
ATOM     31  O   UNL     1      47.572  13.753  20.571  0.00  0.00    -0.472 OA
ATOM     32  H   UNL     1      47.244  12.956  20.135  0.00  0.00    +0.387 HD
ENDBRANCH  30  31
BRANCH  16  17
ATOM     17  C   UNL     1      49.197  20.748  19.039  0.00  0.00    +0.063 C 
BRANCH  17  18
ATOM     18  C   UNL     1      50.645  21.194  18.818  0.00  0.00    +0.046 C 
BRANCH  18  19
ATOM     19  C   UNL     1      51.042  20.917  17.391  0.00  0.00    -0.054 C 
ATOM     20  C   UNL     1      51.943  20.002  17.129  0.00  0.00    -0.132 C 
ATOM     21  C   UNL     1      52.252  19.637  15.699  0.00  0.00    +0.071 C 
ATOM     22  C   UNL     1      52.670  19.315  18.255  0.00  0.00    +0.070 C 
ENDBRANCH  18  19
ENDBRANCH  17  18
ENDBRANCH  16  17
BRANCH  16  23
ATOM     23  C   UNL     1      50.344  20.384  21.225  0.00  0.00    +0.065 C 
BRANCH  23  24
ATOM     24  C   UNL     1      50.630  19.193  22.140  0.00  0.00    +0.049 C 
BRANCH  24  25
ATOM     25  C   UNL     1      52.029  18.690  21.887  0.00  0.00    -0.057 C 
ATOM     26  C   UNL     1      52.297  17.413  22.003  0.00  0.00    -0.129 C 
ATOM     27  C   UNL     1      53.672  16.898  21.666  0.00  0.00    +0.073 C 
ATOM     28  C   UNL     1      51.229  16.459  22.473  0.00  0.00    +0.071 C 
ENDBRANCH  24  25
ENDBRANCH  23  24
ENDBRANCH  16  23
BRANCH  33  34
ATOM     34  C   UNL     1      49.144  12.330  18.721  0.00  0.00    +0.081 C 
BRANCH  34  35
ATOM     35  C   UNL     1      47.824  12.007  18.018  0.00  0.00    +0.058 C 
BRANCH  35  36
ATOM     36  C   UNL     1      48.075  11.812  16.544  0.00  0.00    -0.065 C 
ATOM     37  C   UNL     1      47.764  12.761  15.697  0.00  0.00    -0.126 C 
ATOM     38  C   UNL     1      48.138  12.625  14.243  0.00  0.00    +0.072 C 
ATOM     39  C   UNL     1      47.031  13.988  16.173  0.00  0.00    +0.073 C 
ENDBRANCH  35  36
ENDBRANCH  34  35
ENDBRANCH  33  34
TORSDOF 11
ENDMDL
MODEL 7
REMARK VINA RESULT:      -5.5      2.439      7.833
REMARK  Name = ZINC95485964
REMARK  18 active torsions:
REMARK  status: ('A' for Active; 'I' for Inactive)
REMARK    1  A    between atoms: C1_1  and  C2_2
REMARK    2  A    between atoms: C8_8  and  O2_19
REMARK    3  A    between atoms: C10_10  and  O1_18
REMARK    4  A    between atoms: C11_11  and  C12_12
REMARK    5  A    between atoms: C12_12  and  C13_13
REMARK    6  A    between atoms: C13_13  and  C14_14
REMARK    7  A    between atoms: C15_15  and  C16_16
REMARK    8  A    between atoms: C15_15  and  C17_17
REMARK    9  A    between atoms: C21_24  and  C22_25
REMARK   10  A    between atoms: C21_24  and  C28_31
REMARK   11  A    between atoms: C22_25  and  C23_26
REMARK   12  A    between atoms: C23_26  and  C24_27
REMARK   13  A    between atoms: C25_28  and  C26_29
REMARK   14  A    between atoms: C25_28  and  C27_30
REMARK   15  A    between atoms: C28_31  and  C29_32
REMARK   16  A    between atoms: C29_32  and  C30_33
REMARK   17  A    between atoms: C31_34  and  C32_35
REMARK   18  A    between atoms: C31_34  and  C33_36
REMARK                            x       y       z     vdW  Elec       q    Type
REMARK                         _______ _______ _______ _____ _____    ______ ____
ROOT
ATOM      1  C   UNL     1      47.898  13.701  15.889  0.00  0.00    +0.099 C 
ATOM      2  C   UNL     1      48.635  14.474  16.952  0.00  0.00    -0.036 A 
ATOM      3  C   UNL     1      48.172  15.699  17.333  0.00  0.00    +0.005 A 
ATOM      4  C   UNL     1      48.850  16.430  18.320  0.00  0.00    +0.009 A 
ATOM      5  C   UNL     1      48.396  17.702  18.720  0.00  0.00    +0.017 A 
ATOM      6  C   UNL     1      49.055  18.406  19.680  0.00  0.00    -0.004 A 
ATOM      7  C   UNL     1      50.200  17.866  20.296  0.00  0.00    -0.212 A 
ATOM      8  C   UNL     1      50.907  18.591  21.359  0.00  0.00    +0.409 C 
ATOM      9  C   UNL     1      50.605  20.060  21.559  0.00  0.00    +0.042 C 
ATOM     10  C   UNL     1      49.111  20.226  21.357  0.00  0.00    +0.380 C 
ATOM     11  O   UNL     1      48.414  20.707  22.220  0.00  0.00    -0.422 OA
ATOM     12  O   UNL     1      51.718  18.024  22.062  0.00  0.00    -0.430 OA
ATOM     13  C   UNL     1      50.684  16.608  19.915  0.00  0.00    +0.218 A 
ATOM     16  C   UNL     1      48.524  19.769  20.045  0.00  0.00    -0.066 C 
ATOM     29  C   UNL     1      50.011  15.879  18.918  0.00  0.00    -0.122 A 
ATOM     30  C   UNL     1      50.468  14.612  18.504  0.00  0.00    +0.148 A 
ATOM     33  C   UNL     1      49.773  13.924  17.533  0.00  0.00    -0.113 A 
ENDROOT
BRANCH  13  14
ATOM     14  O   UNL     1      51.793  16.098  20.499  0.00  0.00    -0.462 OA
ATOM     15  H   UNL     1      51.694  15.184  20.798  0.00  0.00    +0.398 HD
ENDBRANCH  13  14
BRANCH  30  31
ATOM     31  O   UNL     1      51.581  14.072  19.063  0.00  0.00    -0.472 OA
ATOM     32  H   UNL     1      51.541  13.998  20.025  0.00  0.00    +0.387 HD
ENDBRANCH  30  31
BRANCH  16  17
ATOM     17  C   UNL     1      47.000  19.703  20.167  0.00  0.00    +0.063 C 
BRANCH  17  18
ATOM     18  C   UNL     1      46.364  20.616  19.116  0.00  0.00    +0.046 C 
BRANCH  18  19
ATOM     19  C   UNL     1      44.965  20.142  18.820  0.00  0.00    -0.054 C 
ATOM     20  C   UNL     1      43.937  20.857  19.206  0.00  0.00    -0.132 C 
ATOM     21  C   UNL     1      42.542  20.449  18.805  0.00  0.00    +0.071 C 
ATOM     22  C   UNL     1      44.148  22.087  20.051  0.00  0.00    +0.070 C 
ENDBRANCH  18  19
ENDBRANCH  17  18
ENDBRANCH  16  17
BRANCH  16  23
ATOM     23  C   UNL     1      48.898  20.770  18.949  0.00  0.00    +0.065 C 
BRANCH  23  24
ATOM     24  C   UNL     1      50.420  20.891  18.868  0.00  0.00    +0.049 C 
BRANCH  24  25
ATOM     25  C   UNL     1      50.857  20.781  17.429  0.00  0.00    -0.057 C 
ATOM     26  C   UNL     1      51.866  20.010  17.109  0.00  0.00    -0.129 C 
ATOM     27  C   UNL     1      52.249  19.831  15.662  0.00  0.00    +0.073 C 
ATOM     28  C   UNL     1      52.645  19.301  18.187  0.00  0.00    +0.071 C 
ENDBRANCH  24  25
ENDBRANCH  23  24
ENDBRANCH  16  23
BRANCH  33  34
ATOM     34  C   UNL     1      50.253  12.567  17.091  0.00  0.00    +0.081 C 
BRANCH  34  35
ATOM     35  C   UNL     1      51.572  12.716  16.329  0.00  0.00    +0.058 C 
BRANCH  35  36
ATOM     36  C   UNL     1      51.301  13.303  14.967  0.00  0.00    -0.065 C 
ATOM     37  C   UNL     1      51.188  12.516  13.926  0.00  0.00    -0.126 C 
ATOM     38  C   UNL     1      50.783  13.086  12.591  0.00  0.00    +0.072 C 
ATOM     39  C   UNL     1      51.463  11.041  14.062  0.00  0.00    +0.073 C 
ENDBRANCH  35  36
ENDBRANCH  34  35
ENDBRANCH  33  34
TORSDOF 11
ENDMDL
MODEL 8
REMARK VINA RESULT:      -5.4      3.026      8.306
REMARK  Name = ZINC95485964
REMARK  18 active torsions:
REMARK  status: ('A' for Active; 'I' for Inactive)
REMARK    1  A    between atoms: C1_1  and  C2_2
REMARK    2  A    between atoms: C8_8  and  O2_19
REMARK    3  A    between atoms: C10_10  and  O1_18
REMARK    4  A    between atoms: C11_11  and  C12_12
REMARK    5  A    between atoms: C12_12  and  C13_13
REMARK    6  A    between atoms: C13_13  and  C14_14
REMARK    7  A    between atoms: C15_15  and  C16_16
REMARK    8  A    between atoms: C15_15  and  C17_17
REMARK    9  A    between atoms: C21_24  and  C22_25
REMARK   10  A    between atoms: C21_24  and  C28_31
REMARK   11  A    between atoms: C22_25  and  C23_26
REMARK   12  A    between atoms: C23_26  and  C24_27
REMARK   13  A    between atoms: C25_28  and  C26_29
REMARK   14  A    between atoms: C25_28  and  C27_30
REMARK   15  A    between atoms: C28_31  and  C29_32
REMARK   16  A    between atoms: C29_32  and  C30_33
REMARK   17  A    between atoms: C31_34  and  C32_35
REMARK   18  A    between atoms: C31_34  and  C33_36
REMARK                            x       y       z     vdW  Elec       q    Type
REMARK                         _______ _______ _______ _____ _____    ______ ____
ROOT
ATOM      1  C   UNL     1      48.355  11.982  17.573  0.00  0.00    +0.099 C 
ATOM      2  C   UNL     1      49.018  13.332  17.472  0.00  0.00    -0.036 A 
ATOM      3  C   UNL     1      48.519  14.380  18.189  0.00  0.00    +0.005 A 
ATOM      4  C   UNL     1      49.124  15.642  18.103  0.00  0.00    +0.009 A 
ATOM      5  C   UNL     1      48.619  16.739  18.825  0.00  0.00    +0.017 A 
ATOM      6  C   UNL     1      49.211  17.961  18.740  0.00  0.00    -0.004 A 
ATOM      7  C   UNL     1      50.349  18.144  17.932  0.00  0.00    -0.212 A 
ATOM      8  C   UNL     1      51.026  19.444  17.852  0.00  0.00    +0.409 C 
ATOM      9  C   UNL     1      50.308  20.669  18.374  0.00  0.00    +0.042 C 
ATOM     10  C   UNL     1      49.581  20.240  19.635  0.00  0.00    +0.380 C 
ATOM     11  O   UNL     1      49.779  20.796  20.689  0.00  0.00    -0.422 OA
ATOM     12  O   UNL     1      52.140  19.534  17.377  0.00  0.00    -0.430 OA
ATOM     13  C   UNL     1      50.871  17.076  17.192  0.00  0.00    +0.218 A 
ATOM     16  C   UNL     1      48.604  19.096  19.528  0.00  0.00    -0.066 C 
ATOM     29  C   UNL     1      50.259  15.812  17.271  0.00  0.00    -0.122 A 
ATOM     30  C   UNL     1      50.752  14.714  16.539  0.00  0.00    +0.148 A 
ATOM     33  C   UNL     1      50.130  13.489  16.653  0.00  0.00    -0.113 A 
ENDROOT
BRANCH  13  14
ATOM     14  O   UNL     1      51.957  17.258  16.405  0.00  0.00    -0.462 OA
ATOM     15  H   UNL     1      51.758  17.283  15.459  0.00  0.00    +0.398 HD
ENDBRANCH  13  14
BRANCH  30  31
ATOM     31  O   UNL     1      51.835  14.860  15.734  0.00  0.00    -0.472 OA
ATOM     32  H   UNL     1      52.676  14.896  16.209  0.00  0.00    +0.387 HD
ENDBRANCH  30  31
BRANCH  16  17
ATOM     17  C   UNL     1      48.245  18.604  20.931  0.00  0.00    +0.063 C 
BRANCH  17  18
ATOM     18  C   UNL     1      46.724  18.608  21.099  0.00  0.00    +0.046 C 
BRANCH  18  19
ATOM     19  C   UNL     1      46.274  17.272  21.632  0.00  0.00    -0.054 C 
ATOM     20  C   UNL     1      45.518  16.495  20.896  0.00  0.00    -0.132 C 
ATOM     21  C   UNL     1      45.169  15.109  21.376  0.00  0.00    +0.071 C 
ATOM     22  C   UNL     1      44.998  16.986  19.570  0.00  0.00    +0.070 C 
ENDBRANCH  18  19
ENDBRANCH  17  18
ENDBRANCH  16  17
BRANCH  16  23
ATOM     23  C   UNL     1      47.334  19.580  18.824  0.00  0.00    +0.065 C 
BRANCH  23  24
ATOM     24  C   UNL     1      47.227  21.100  18.955  0.00  0.00    +0.049 C 
BRANCH  24  25
ATOM     25  C   UNL     1      45.776  21.507  18.909  0.00  0.00    -0.057 C 
ATOM     26  C   UNL     1      45.238  22.130  19.927  0.00  0.00    -0.129 C 
ATOM     27  C   UNL     1      43.813  22.614  19.848  0.00  0.00    +0.073 C 
ATOM     28  C   UNL     1      46.045  22.365  21.179  0.00  0.00    +0.071 C 
ENDBRANCH  24  25
ENDBRANCH  23  24
ENDBRANCH  16  23
BRANCH  33  34
ATOM     34  C   UNL     1      50.657  12.309  15.878  0.00  0.00    +0.081 C 
BRANCH  34  35
ATOM     35  C   UNL     1      49.919  12.207  14.541  0.00  0.00    +0.058 C 
BRANCH  35  36
ATOM     36  C   UNL     1      50.897  12.414  13.412  0.00  0.00    -0.065 C 
ATOM     37  C   UNL     1      50.495  12.956  12.290  0.00  0.00    -0.126 C 
ATOM     38  C   UNL     1      51.496  13.288  11.213  0.00  0.00    +0.072 C 
ATOM     39  C   UNL     1      49.033  13.249  12.074  0.00  0.00    +0.073 C 
ENDBRANCH  35  36
ENDBRANCH  34  35
ENDBRANCH  33  34
TORSDOF 11
ENDMDL
MODEL 9
REMARK VINA RESULT:      -5.4      2.688      7.155
REMARK  Name = ZINC95485964
REMARK  18 active torsions:
REMARK  status: ('A' for Active; 'I' for Inactive)
REMARK    1  A    between atoms: C1_1  and  C2_2
REMARK    2  A    between atoms: C8_8  and  O2_19
REMARK    3  A    between atoms: C10_10  and  O1_18
REMARK    4  A    between atoms: C11_11  and  C12_12
REMARK    5  A    between atoms: C12_12  and  C13_13
REMARK    6  A    between atoms: C13_13  and  C14_14
REMARK    7  A    between atoms: C15_15  and  C16_16
REMARK    8  A    between atoms: C15_15  and  C17_17
REMARK    9  A    between atoms: C21_24  and  C22_25
REMARK   10  A    between atoms: C21_24  and  C28_31
REMARK   11  A    between atoms: C22_25  and  C23_26
REMARK   12  A    between atoms: C23_26  and  C24_27
REMARK   13  A    between atoms: C25_28  and  C26_29
REMARK   14  A    between atoms: C25_28  and  C27_30
REMARK   15  A    between atoms: C28_31  and  C29_32
REMARK   16  A    between atoms: C29_32  and  C30_33
REMARK   17  A    between atoms: C31_34  and  C32_35
REMARK   18  A    between atoms: C31_34  and  C33_36
REMARK                            x       y       z     vdW  Elec       q    Type
REMARK                         _______ _______ _______ _____ _____    ______ ____
ROOT
ATOM      1  C   UNL     1      51.187  14.279  16.401  0.00  0.00    +0.099 C 
ATOM      2  C   UNL     1      49.950  14.805  17.085  0.00  0.00    -0.036 A 
ATOM      3  C   UNL     1      49.930  16.091  17.539  0.00  0.00    +0.005 A 
ATOM      4  C   UNL     1      48.787  16.592  18.179  0.00  0.00    +0.009 A 
ATOM      5  C   UNL     1      48.749  17.912  18.665  0.00  0.00    +0.017 A 
ATOM      6  C   UNL     1      47.636  18.395  19.283  0.00  0.00    -0.004 A 
ATOM      7  C   UNL     1      46.499  17.579  19.435  0.00  0.00    -0.212 A 
ATOM      8  C   UNL     1      45.275  18.089  20.066  0.00  0.00    +0.409 C 
ATOM      9  C   UNL     1      45.347  19.380  20.850  0.00  0.00    +0.042 C 
ATOM     10  C   UNL     1      46.275  20.302  20.082  0.00  0.00    +0.380 C 
ATOM     11  O   UNL     1      45.906  21.391  19.712  0.00  0.00    -0.422 OA
ATOM     12  O   UNL     1      44.226  17.486  19.960  0.00  0.00    -0.430 OA
ATOM     13  C   UNL     1      46.507  16.258  18.972  0.00  0.00    +0.218 A 
ATOM     16  C   UNL     1      47.673  19.813  19.796  0.00  0.00    -0.066 C 
ATOM     29  C   UNL     1      47.657  15.751  18.339  0.00  0.00    -0.122 A 
ATOM     30  C   UNL     1      47.706  14.427  17.863  0.00  0.00    +0.148 A 
ATOM     33  C   UNL     1      48.847  13.972  17.237  0.00  0.00    -0.113 A 
ENDROOT
BRANCH  13  14
ATOM     14  O   UNL     1      45.417  15.471  19.132  0.00  0.00    -0.462 OA
ATOM     15  H   UNL     1      44.787  15.518  18.400  0.00  0.00    +0.398 HD
ENDBRANCH  13  14
BRANCH  30  31
ATOM     31  O   UNL     1      46.634  13.607  18.012  0.00  0.00    -0.472 OA
ATOM     32  H   UNL     1      46.153  13.435  17.192  0.00  0.00    +0.387 HD
ENDBRANCH  30  31
BRANCH  16  17
ATOM     17  C   UNL     1      48.320  20.716  18.743  0.00  0.00    +0.063 C 
BRANCH  17  18
ATOM     18  C   UNL     1      49.791  20.943  19.102  0.00  0.00    +0.046 C 
BRANCH  18  19
ATOM     19  C   UNL     1      50.611  21.004  17.839  0.00  0.00    -0.054 C 
ATOM     20  C   UNL     1      51.596  20.159  17.658  0.00  0.00    -0.132 C 
ATOM     21  C   UNL     1      52.338  20.136  16.346  0.00  0.00    +0.071 C 
ATOM     22  C   UNL     1      51.987  19.209  18.760  0.00  0.00    +0.070 C 
ENDBRANCH  18  19
ENDBRANCH  17  18
ENDBRANCH  16  17
BRANCH  16  23
ATOM     23  C   UNL     1      48.500  19.866  21.082  0.00  0.00    +0.065 C 
BRANCH  23  24
ATOM     24  C   UNL     1      48.636  18.456  21.659  0.00  0.00    +0.049 C 
BRANCH  24  25
ATOM     25  C   UNL     1      50.094  18.144  21.886  0.00  0.00    -0.057 C 
ATOM     26  C   UNL     1      50.514  16.905  21.830  0.00  0.00    -0.129 C 
ATOM     27  C   UNL     1      51.983  16.601  21.970  0.00  0.00    +0.073 C 
ATOM     28  C   UNL     1      49.529  15.783  21.625  0.00  0.00    +0.071 C 
ENDBRANCH  24  25
ENDBRANCH  23  24
ENDBRANCH  16  23
BRANCH  33  34
ATOM     34  C   UNL     1      48.903  12.559  16.720  0.00  0.00    +0.081 C 
BRANCH  34  35
ATOM     35  C   UNL     1      48.756  12.567  15.197  0.00  0.00    +0.058 C 
BRANCH  35  36
ATOM     36  C   UNL     1      49.534  11.416  14.612  0.00  0.00    -0.065 C 
ATOM     37  C   UNL     1      50.404  11.633  13.657  0.00  0.00    -0.126 C 
ATOM     38  C   UNL     1      51.280  10.509  13.166  0.00  0.00    +0.072 C 
ATOM     39  C   UNL     1      50.530  13.005  13.050  0.00  0.00    +0.073 C 
ENDBRANCH  35  36
ENDBRANCH  34  35
ENDBRANCH  33  34
TORSDOF 11
ENDMDL
