MODEL 1
REMARK VINA RESULT:      -6.5      0.000      0.000
REMARK  Name = ZINC95486293
REMARK  7 active torsions:
REMARK  status: ('A' for Active; 'I' for Inactive)
REMARK    1  A    between atoms: C1_1  and  O1_2
REMARK    2  A    between atoms: O1_2  and  C2_3
REMARK    3  A    between atoms: C5_6  and  O2_9
REMARK    4  A    between atoms: O2_9  and  C8_10
REMARK    5  A    between atoms: C9_11  and  O7_23
REMARK    6  A    between atoms: C12_15  and  O6_22
REMARK    7  A    between atoms: C14_17  and  O5_21
REMARK                            x       y       z     vdW  Elec       q    Type
REMARK                         _______ _______ _______ _____ _____    ______ ____
ROOT
ATOM      8  C   UNL     1      44.111  18.944  20.495  0.00  0.00    +0.219 A 
ATOM      9  C   UNL     1      44.841  20.082  20.631  0.00  0.00    -0.066 A 
ATOM     12  C   UNL     1      44.312  21.309  20.169  0.00  0.00    +0.439 A 
ATOM     13  C   UNL     1      42.974  21.282  19.555  0.00  0.00    -0.259 A 
ATOM     14  C   UNL     1      42.372  22.451  19.070  0.00  0.00    +0.226 A 
ATOM     17  C   UNL     1      41.115  22.382  18.500  0.00  0.00    -0.050 A 
ATOM     18  C   UNL     1      40.454  21.162  18.411  0.00  0.00    +0.197 A 
ATOM     21  C   UNL     1      41.043  20.002  18.889  0.00  0.00    -0.028 A 
ATOM     22  C   UNL     1      42.304  20.051  19.464  0.00  0.00    +0.195 A 
ATOM     23  O   UNL     1      44.940  22.351  20.275  0.00  0.00    -0.428 OA
ATOM     24  O   UNL     1      42.894  18.930  19.929  0.00  0.00    -0.232 OA
ENDROOT
BRANCH   9  10
ATOM     10  O   UNL     1      46.074  20.040  21.210  0.00  0.00    -0.444 OA
ATOM     11  H   UNL     1      46.645  20.784  20.974  0.00  0.00    +0.400 HD
ENDBRANCH   9  10
BRANCH  14  15
ATOM     15  O   UNL     1      43.020  23.641  19.158  0.00  0.00    -0.471 OA
ATOM     16  H   UNL     1      42.758  24.175  19.919  0.00  0.00    +0.405 HD
ENDBRANCH  14  15
BRANCH  18  19
ATOM     19  O   UNL     1      39.219  21.106  17.849  0.00  0.00    -0.486 OA
ATOM     20  H   UNL     1      39.144  20.473  17.123  0.00  0.00    +0.404 HD
ENDBRANCH  18  19
BRANCH   8   7
ATOM      7  O   UNL     1      44.631  17.780  20.942  0.00  0.00    -0.215 OA
BRANCH   7   6
ATOM      3  C   UNL     1      46.176  15.151  18.160  0.00  0.00    +0.145 A 
ATOM      4  C   UNL     1      46.225  16.516  17.926  0.00  0.00    -0.057 A 
ATOM      5  C   UNL     1      45.708  17.397  18.856  0.00  0.00    +0.063 A 
ATOM      6  C   UNL     1      45.140  16.914  20.026  0.00  0.00    +0.023 A 
ATOM     25  C   UNL     1      45.090  15.547  20.260  0.00  0.00    +0.079 A 
ATOM     26  C   UNL     1      45.603  14.667  19.327  0.00  0.00    +0.006 A 
BRANCH   3   2
ATOM      1  C   UNL     1      46.135  12.966  17.223  0.00  0.00    +0.247 C 
ATOM      2  O   UNL     1      46.685  14.284  17.244  0.00  0.00    -0.311 OA
ENDBRANCH   3   2
ENDBRANCH   7   6
ENDBRANCH   8   7
TORSDOF 6
ENDMDL
MODEL 2
REMARK VINA RESULT:      -6.0      4.501      8.400
REMARK  Name = ZINC95486293
REMARK  7 active torsions:
REMARK  status: ('A' for Active; 'I' for Inactive)
REMARK    1  A    between atoms: C1_1  and  O1_2
REMARK    2  A    between atoms: O1_2  and  C2_3
REMARK    3  A    between atoms: C5_6  and  O2_9
REMARK    4  A    between atoms: O2_9  and  C8_10
REMARK    5  A    between atoms: C9_11  and  O7_23
REMARK    6  A    between atoms: C12_15  and  O6_22
REMARK    7  A    between atoms: C14_17  and  O5_21
REMARK                            x       y       z     vdW  Elec       q    Type
REMARK                         _______ _______ _______ _____ _____    ______ ____
ROOT
ATOM      8  C   UNL     1      48.862  19.643  19.970  0.00  0.00    +0.219 A 
ATOM      9  C   UNL     1      48.956  18.303  19.763  0.00  0.00    -0.066 A 
ATOM     12  C   UNL     1      49.802  17.811  18.743  0.00  0.00    +0.439 A 
ATOM     13  C   UNL     1      50.548  18.800  17.947  0.00  0.00    -0.259 A 
ATOM     14  C   UNL     1      51.410  18.403  16.917  0.00  0.00    +0.226 A 
ATOM     17  C   UNL     1      52.092  19.363  16.193  0.00  0.00    -0.050 A 
ATOM     18  C   UNL     1      51.924  20.712  16.489  0.00  0.00    +0.197 A 
ATOM     21  C   UNL     1      51.074  21.111  17.507  0.00  0.00    -0.028 A 
ATOM     22  C   UNL     1      50.381  20.163  18.244  0.00  0.00    +0.195 A 
ATOM     23  O   UNL     1      49.910  16.613  18.529  0.00  0.00    -0.428 OA
ATOM     24  O   UNL     1      49.544  20.535  19.235  0.00  0.00    -0.232 OA
ENDROOT
BRANCH   9  10
ATOM     10  O   UNL     1      48.238  17.438  20.535  0.00  0.00    -0.444 OA
ATOM     11  H   UNL     1      47.566  16.940  20.049  0.00  0.00    +0.400 HD
ENDBRANCH   9  10
BRANCH  14  15
ATOM     15  O   UNL     1      51.573  17.086  16.630  0.00  0.00    -0.471 OA
ATOM     16  H   UNL     1      52.123  16.611  17.266  0.00  0.00    +0.405 HD
ENDBRANCH  14  15
BRANCH  18  19
ATOM     19  O   UNL     1      52.600  21.647  15.772  0.00  0.00    -0.486 OA
ATOM     20  H   UNL     1      52.696  22.496  16.223  0.00  0.00    +0.404 HD
ENDBRANCH  18  19
BRANCH   8   7
ATOM      7  O   UNL     1      48.049  20.094  20.950  0.00  0.00    -0.215 OA
BRANCH   7   6
ATOM      3  C   UNL     1      45.032  22.712  19.908  0.00  0.00    +0.145 A 
ATOM      4  C   UNL     1      45.805  22.957  21.033  0.00  0.00    -0.057 A 
ATOM      5  C   UNL     1      46.814  22.081  21.382  0.00  0.00    +0.063 A 
ATOM      6  C   UNL     1      47.055  20.956  20.607  0.00  0.00    +0.023 A 
ATOM     25  C   UNL     1      46.281  20.711  19.482  0.00  0.00    +0.079 A 
ATOM     26  C   UNL     1      45.269  21.585  19.136  0.00  0.00    +0.006 A 
BRANCH   3   2
ATOM      1  C   UNL     1      44.407  24.710  18.781  0.00  0.00    +0.247 C 
ATOM      2  O   UNL     1      44.038  23.575  19.565  0.00  0.00    -0.311 OA
ENDBRANCH   3   2
ENDBRANCH   7   6
ENDBRANCH   8   7
TORSDOF 6
ENDMDL
MODEL 3
REMARK VINA RESULT:      -5.6      3.625      5.150
REMARK  Name = ZINC95486293
REMARK  7 active torsions:
REMARK  status: ('A' for Active; 'I' for Inactive)
REMARK    1  A    between atoms: C1_1  and  O1_2
REMARK    2  A    between atoms: O1_2  and  C2_3
REMARK    3  A    between atoms: C5_6  and  O2_9
REMARK    4  A    between atoms: O2_9  and  C8_10
REMARK    5  A    between atoms: C9_11  and  O7_23
REMARK    6  A    between atoms: C12_15  and  O6_22
REMARK    7  A    between atoms: C14_17  and  O5_21
REMARK                            x       y       z     vdW  Elec       q    Type
REMARK                         _______ _______ _______ _____ _____    ______ ____
ROOT
ATOM      8  C   UNL     1      46.711  20.606  21.115  0.00  0.00    +0.219 A 
ATOM      9  C   UNL     1      46.107  19.391  21.055  0.00  0.00    -0.066 A 
ATOM     12  C   UNL     1      44.795  19.289  20.536  0.00  0.00    +0.439 A 
ATOM     13  C   UNL     1      44.148  20.530  20.082  0.00  0.00    -0.259 A 
ATOM     14  C   UNL     1      42.851  20.524  19.553  0.00  0.00    +0.226 A 
ATOM     17  C   UNL     1      42.279  21.711  19.138  0.00  0.00    -0.050 A 
ATOM     18  C   UNL     1      42.989  22.903  19.243  0.00  0.00    +0.197 A 
ATOM     21  C   UNL     1      44.272  22.917  19.764  0.00  0.00    -0.028 A 
ATOM     22  C   UNL     1      44.863  21.736  20.187  0.00  0.00    +0.195 A 
ATOM     23  O   UNL     1      44.221  18.213  20.468  0.00  0.00    -0.428 OA
ATOM     24  O   UNL     1      46.110  21.732  20.702  0.00  0.00    -0.232 OA
ENDROOT
BRANCH   9  10
ATOM     10  O   UNL     1      46.761  18.277  21.493  0.00  0.00    -0.444 OA
ATOM     11  H   UNL     1      47.703  18.414  21.659  0.00  0.00    +0.400 HD
ENDBRANCH   9  10
BRANCH  14  15
ATOM     15  O   UNL     1      42.160  19.359  19.451  0.00  0.00    -0.471 OA
ATOM     16  H   UNL     1      41.812  19.034  20.292  0.00  0.00    +0.405 HD
ENDBRANCH  14  15
BRANCH  18  19
ATOM     19  O   UNL     1      42.417  24.064  18.832  0.00  0.00    -0.486 OA
ATOM     20  H   UNL     1      42.369  24.161  17.871  0.00  0.00    +0.404 HD
ENDBRANCH  18  19
BRANCH   8   7
ATOM      7  O   UNL     1      47.965  20.685  21.614  0.00  0.00    -0.215 OA
BRANCH   7   6
ATOM      3  C   UNL     1      51.100  20.954  18.942  0.00  0.00    +0.145 A 
ATOM      4  C   UNL     1      51.351  20.927  20.306  0.00  0.00    -0.057 A 
ATOM      5  C   UNL     1      50.302  20.837  21.200  0.00  0.00    +0.063 A 
ATOM      6  C   UNL     1      48.997  20.774  20.734  0.00  0.00    +0.023 A 
ATOM     25  C   UNL     1      48.746  20.801  19.370  0.00  0.00    +0.079 A 
ATOM     26  C   UNL     1      49.795  20.896  18.476  0.00  0.00    +0.006 A 
BRANCH   3   2
ATOM      1  C   UNL     1      51.869  20.654  16.713  0.00  0.00    +0.247 C 
ATOM      2  O   UNL     1      52.133  21.042  18.062  0.00  0.00    -0.311 OA
ENDBRANCH   3   2
ENDBRANCH   7   6
ENDBRANCH   8   7
TORSDOF 6
ENDMDL
MODEL 4
REMARK VINA RESULT:      -5.5      4.499      8.086
REMARK  Name = ZINC95486293
REMARK  7 active torsions:
REMARK  status: ('A' for Active; 'I' for Inactive)
REMARK    1  A    between atoms: C1_1  and  O1_2
REMARK    2  A    between atoms: O1_2  and  C2_3
REMARK    3  A    between atoms: C5_6  and  O2_9
REMARK    4  A    between atoms: O2_9  and  C8_10
REMARK    5  A    between atoms: C9_11  and  O7_23
REMARK    6  A    between atoms: C12_15  and  O6_22
REMARK    7  A    between atoms: C14_17  and  O5_21
REMARK                            x       y       z     vdW  Elec       q    Type
REMARK                         _______ _______ _______ _____ _____    ______ ____
ROOT
ATOM      8  C   UNL     1      49.158  17.792  19.019  0.00  0.00    +0.219 A 
ATOM      9  C   UNL     1      49.575  16.655  18.403  0.00  0.00    -0.066 A 
ATOM     12  C   UNL     1      50.498  16.739  17.334  0.00  0.00    +0.439 A 
ATOM     13  C   UNL     1      50.961  18.080  16.943  0.00  0.00    -0.259 A 
ATOM     14  C   UNL     1      51.875  18.258  15.896  0.00  0.00    +0.226 A 
ATOM     17  C   UNL     1      52.284  19.534  15.560  0.00  0.00    -0.050 A 
ATOM     18  C   UNL     1      51.794  20.632  16.258  0.00  0.00    +0.197 A 
ATOM     21  C   UNL     1      50.890  20.464  17.296  0.00  0.00    -0.028 A 
ATOM     22  C   UNL     1      50.467  19.191  17.647  0.00  0.00    +0.195 A 
ATOM     23  O   UNL     1      50.894  15.737  16.758  0.00  0.00    -0.428 OA
ATOM     24  O   UNL     1      49.584  19.010  18.651  0.00  0.00    -0.232 OA
ENDROOT
BRANCH   9  10
ATOM     10  O   UNL     1      49.108  15.442  18.813  0.00  0.00    -0.444 OA
ATOM     11  H   UNL     1      48.397  15.087  18.262  0.00  0.00    +0.400 HD
ENDBRANCH   9  10
BRANCH  14  15
ATOM     15  O   UNL     1      52.353  17.184  15.216  0.00  0.00    -0.471 OA
ATOM     16  H   UNL     1      52.475  17.341  14.271  0.00  0.00    +0.405 HD
ENDBRANCH  14  15
BRANCH  18  19
ATOM     19  O   UNL     1      52.203  21.882  15.920  0.00  0.00    -0.486 OA
ATOM     20  H   UNL     1      52.096  22.091  14.982  0.00  0.00    +0.404 HD
ENDBRANCH  18  19
BRANCH   8   7
ATOM      7  O   UNL     1      48.276  17.693  20.039  0.00  0.00    -0.215 OA
BRANCH   7   6
ATOM      3  C   UNL     1      44.805  19.915  19.819  0.00  0.00    +0.145 A 
ATOM      4  C   UNL     1      45.608  19.993  20.947  0.00  0.00    -0.057 A 
ATOM      5  C   UNL     1      46.769  19.250  21.021  0.00  0.00    +0.063 A 
ATOM      6  C   UNL     1      47.132  18.425  19.967  0.00  0.00    +0.023 A 
ATOM     25  C   UNL     1      46.329  18.347  18.838  0.00  0.00    +0.079 A 
ATOM     26  C   UNL     1      45.165  19.087  18.767  0.00  0.00    +0.006 A 
BRANCH   3   2
ATOM      1  C   UNL     1      42.675  20.218  18.807  0.00  0.00    +0.247 C 
ATOM      2  O   UNL     1      43.661  20.648  19.747  0.00  0.00    -0.311 OA
ENDBRANCH   3   2
ENDBRANCH   7   6
ENDBRANCH   8   7
TORSDOF 6
ENDMDL
MODEL 5
REMARK VINA RESULT:      -5.5      2.890      4.487
REMARK  Name = ZINC95486293
REMARK  7 active torsions:
REMARK  status: ('A' for Active; 'I' for Inactive)
REMARK    1  A    between atoms: C1_1  and  O1_2
REMARK    2  A    between atoms: O1_2  and  C2_3
REMARK    3  A    between atoms: C5_6  and  O2_9
REMARK    4  A    between atoms: O2_9  and  C8_10
REMARK    5  A    between atoms: C9_11  and  O7_23
REMARK    6  A    between atoms: C12_15  and  O6_22
REMARK    7  A    between atoms: C14_17  and  O5_21
REMARK                            x       y       z     vdW  Elec       q    Type
REMARK                         _______ _______ _______ _____ _____    ______ ____
ROOT
ATOM      8  C   UNL     1      45.375  17.753  20.106  0.00  0.00    +0.219 A 
ATOM      9  C   UNL     1      44.691  17.181  21.132  0.00  0.00    -0.066 A 
ATOM     12  C   UNL     1      43.370  17.604  21.411  0.00  0.00    +0.439 A 
ATOM     13  C   UNL     1      42.802  18.659  20.557  0.00  0.00    -0.259 A 
ATOM     14  C   UNL     1      41.502  19.139  20.761  0.00  0.00    +0.226 A 
ATOM     17  C   UNL     1      41.005  20.131  19.937  0.00  0.00    -0.050 A 
ATOM     18  C   UNL     1      41.792  20.647  18.913  0.00  0.00    +0.197 A 
ATOM     21  C   UNL     1      43.079  20.178  18.705  0.00  0.00    -0.028 A 
ATOM     22  C   UNL     1      43.594  19.182  19.522  0.00  0.00    +0.195 A 
ATOM     23  O   UNL     1      42.727  17.112  22.326  0.00  0.00    -0.428 OA
ATOM     24  O   UNL     1      44.848  18.718  19.337  0.00  0.00    -0.232 OA
ENDROOT
BRANCH   9  10
ATOM     10  O   UNL     1      45.274  16.207  21.886  0.00  0.00    -0.444 OA
ATOM     11  H   UNL     1      45.478  16.480  22.792  0.00  0.00    +0.400 HD
ENDBRANCH   9  10
BRANCH  14  15
ATOM     15  O   UNL     1      40.735  18.633  21.761  0.00  0.00    -0.471 OA
ATOM     16  H   UNL     1      39.912  18.228  21.459  0.00  0.00    +0.405 HD
ENDBRANCH  14  15
BRANCH  18  19
ATOM     19  O   UNL     1      41.294  21.622  18.109  0.00  0.00    -0.486 OA
ATOM     20  H   UNL     1      41.917  22.338  17.924  0.00  0.00    +0.404 HD
ENDBRANCH  18  19
BRANCH   8   7
ATOM      7  O   UNL     1      46.635  17.337  19.853  0.00  0.00    -0.215 OA
BRANCH   7   6
ATOM      3  C   UNL     1      49.518  20.204  19.142  0.00  0.00    +0.145 A 
ATOM      4  C   UNL     1      48.560  20.412  20.123  0.00  0.00    -0.057 A 
ATOM      5  C   UNL     1      47.595  19.453  20.362  0.00  0.00    +0.063 A 
ATOM      6  C   UNL     1      47.584  18.282  19.619  0.00  0.00    +0.023 A 
ATOM     25  C   UNL     1      48.543  18.074  18.637  0.00  0.00    +0.079 A 
ATOM     26  C   UNL     1      49.504  19.035  18.396  0.00  0.00    +0.006 A 
BRANCH   3   2
ATOM      1  C   UNL     1      51.166  21.072  17.664  0.00  0.00    +0.247 C 
ATOM      2  O   UNL     1      50.468  21.149  18.908  0.00  0.00    -0.311 OA
ENDBRANCH   3   2
ENDBRANCH   7   6
ENDBRANCH   8   7
TORSDOF 6
ENDMDL
MODEL 6
REMARK VINA RESULT:      -5.5      2.419      2.991
REMARK  Name = ZINC95486293
REMARK  7 active torsions:
REMARK  status: ('A' for Active; 'I' for Inactive)
REMARK    1  A    between atoms: C1_1  and  O1_2
REMARK    2  A    between atoms: O1_2  and  C2_3
REMARK    3  A    between atoms: C5_6  and  O2_9
REMARK    4  A    between atoms: O2_9  and  C8_10
REMARK    5  A    between atoms: C9_11  and  O7_23
REMARK    6  A    between atoms: C12_15  and  O6_22
REMARK    7  A    between atoms: C14_17  and  O5_21
REMARK                            x       y       z     vdW  Elec       q    Type
REMARK                         _______ _______ _______ _____ _____    ______ ____
ROOT
ATOM      8  C   UNL     1      45.731  20.367  20.400  0.00  0.00    +0.219 A 
ATOM      9  C   UNL     1      45.862  21.712  20.544  0.00  0.00    -0.066 A 
ATOM     12  C   UNL     1      44.810  22.564  20.134  0.00  0.00    +0.439 A 
ATOM     13  C   UNL     1      43.609  21.931  19.565  0.00  0.00    -0.259 A 
ATOM     14  C   UNL     1      42.518  22.697  19.134  0.00  0.00    +0.226 A 
ATOM     17  C   UNL     1      41.409  22.064  18.605  0.00  0.00    -0.050 A 
ATOM     18  C   UNL     1      41.378  20.677  18.504  0.00  0.00    +0.197 A 
ATOM     21  C   UNL     1      42.453  19.913  18.929  0.00  0.00    -0.028 A 
ATOM     22  C   UNL     1      43.574  20.530  19.462  0.00  0.00    +0.195 A 
ATOM     23  O   UNL     1      44.895  23.777  20.248  0.00  0.00    -0.428 OA
ATOM     24  O   UNL     1      44.632  19.802  19.876  0.00  0.00    -0.232 OA
ENDROOT
BRANCH   9  10
ATOM     10  O   UNL     1      47.002  22.236  21.078  0.00  0.00    -0.444 OA
ATOM     11  H   UNL     1      46.846  22.914  21.750  0.00  0.00    +0.400 HD
ENDBRANCH   9  10
BRANCH  14  15
ATOM     15  O   UNL     1      42.551  24.051  19.233  0.00  0.00    -0.471 OA
ATOM     16  H   UNL     1      43.204  24.383  19.863  0.00  0.00    +0.405 HD
ENDBRANCH  14  15
BRANCH  18  19
ATOM     19  O   UNL     1      40.283  20.066  17.984  0.00  0.00    -0.486 OA
ATOM     20  H   UNL     1      39.630  20.675  17.613  0.00  0.00    +0.404 HD
ENDBRANCH  18  19
BRANCH   8   7
ATOM      7  O   UNL     1      46.746  19.568  20.797  0.00  0.00    -0.215 OA
BRANCH   7   6
ATOM      3  C   UNL     1      49.269  18.057  17.901  0.00  0.00    +0.145 A 
ATOM      4  C   UNL     1      49.644  19.173  18.634  0.00  0.00    -0.057 A 
ATOM      5  C   UNL     1      48.800  19.679  19.603  0.00  0.00    +0.063 A 
ATOM      6  C   UNL     1      47.577  19.071  19.842  0.00  0.00    +0.023 A 
ATOM     25  C   UNL     1      47.202  17.954  19.109  0.00  0.00    +0.079 A 
ATOM     26  C   UNL     1      48.044  17.452  18.136  0.00  0.00    +0.006 A 
BRANCH   3   2
ATOM      1  C   UNL     1      51.086  18.448  16.417  0.00  0.00    +0.247 C 
ATOM      2  O   UNL     1      50.101  17.559  16.947  0.00  0.00    -0.311 OA
ENDBRANCH   3   2
ENDBRANCH   7   6
ENDBRANCH   8   7
TORSDOF 6
ENDMDL
MODEL 7
REMARK VINA RESULT:      -5.5      4.355      7.867
REMARK  Name = ZINC95486293
REMARK  7 active torsions:
REMARK  status: ('A' for Active; 'I' for Inactive)
REMARK    1  A    between atoms: C1_1  and  O1_2
REMARK    2  A    between atoms: O1_2  and  C2_3
REMARK    3  A    between atoms: C5_6  and  O2_9
REMARK    4  A    between atoms: O2_9  and  C8_10
REMARK    5  A    between atoms: C9_11  and  O7_23
REMARK    6  A    between atoms: C12_15  and  O6_22
REMARK    7  A    between atoms: C14_17  and  O5_21
REMARK                            x       y       z     vdW  Elec       q    Type
REMARK                         _______ _______ _______ _____ _____    ______ ____
ROOT
ATOM      8  C   UNL     1      48.173  18.559  19.557  0.00  0.00    +0.219 A 
ATOM      9  C   UNL     1      48.550  17.769  18.517  0.00  0.00    -0.066 A 
ATOM     12  C   UNL     1      49.783  18.010  17.869  0.00  0.00    +0.439 A 
ATOM     13  C   UNL     1      50.605  19.125  18.369  0.00  0.00    -0.259 A 
ATOM     14  C   UNL     1      51.841  19.435  17.788  0.00  0.00    +0.226 A 
ATOM     17  C   UNL     1      52.581  20.490  18.287  0.00  0.00    -0.050 A 
ATOM     18  C   UNL     1      52.101  21.236  19.358  0.00  0.00    +0.197 A 
ATOM     21  C   UNL     1      50.880  20.934  19.939  0.00  0.00    -0.028 A 
ATOM     22  C   UNL     1      50.122  19.879  19.452  0.00  0.00    +0.195 A 
ATOM     23  O   UNL     1      50.153  17.320  16.931  0.00  0.00    -0.428 OA
ATOM     24  O   UNL     1      48.928  19.575  20.001  0.00  0.00    -0.232 OA
ENDROOT
BRANCH   9  10
ATOM     10  O   UNL     1      47.743  16.752  18.102  0.00  0.00    -0.444 OA
ATOM     11  H   UNL     1      48.186  15.893  18.053  0.00  0.00    +0.400 HD
ENDBRANCH   9  10
BRANCH  14  15
ATOM     15  O   UNL     1      52.307  18.706  16.742  0.00  0.00    -0.471 OA
ATOM     16  H   UNL     1      52.042  19.046  15.877  0.00  0.00    +0.405 HD
ENDBRANCH  14  15
BRANCH  18  19
ATOM     19  O   UNL     1      52.837  22.270  19.841  0.00  0.00    -0.486 OA
ATOM     20  H   UNL     1      53.032  22.955  19.187  0.00  0.00    +0.404 HD
ENDBRANCH  18  19
BRANCH   8   7
ATOM      7  O   UNL     1      46.991  18.314  20.165  0.00  0.00    -0.215 OA
BRANCH   7   6
ATOM      3  C   UNL     1      43.901  20.978  19.538  0.00  0.00    +0.145 A 
ATOM      4  C   UNL     1      44.074  19.903  18.680  0.00  0.00    -0.057 A 
ATOM      5  C   UNL     1      45.108  19.011  18.889  0.00  0.00    +0.063 A 
ATOM      6  C   UNL     1      45.973  19.192  19.958  0.00  0.00    +0.023 A 
ATOM     25  C   UNL     1      45.800  20.268  20.817  0.00  0.00    +0.079 A 
ATOM     26  C   UNL     1      44.768  21.161  20.605  0.00  0.00    +0.006 A 
BRANCH   3   2
ATOM      1  C   UNL     1      41.651  21.317  18.847  0.00  0.00    +0.247 C 
ATOM      2  O   UNL     1      42.882  21.855  19.332  0.00  0.00    -0.311 OA
ENDBRANCH   3   2
ENDBRANCH   7   6
ENDBRANCH   8   7
TORSDOF 6
ENDMDL
MODEL 8
REMARK VINA RESULT:      -5.4      1.867      2.955
REMARK  Name = ZINC95486293
REMARK  7 active torsions:
REMARK  status: ('A' for Active; 'I' for Inactive)
REMARK    1  A    between atoms: C1_1  and  O1_2
REMARK    2  A    between atoms: O1_2  and  C2_3
REMARK    3  A    between atoms: C5_6  and  O2_9
REMARK    4  A    between atoms: O2_9  and  C8_10
REMARK    5  A    between atoms: C9_11  and  O7_23
REMARK    6  A    between atoms: C12_15  and  O6_22
REMARK    7  A    between atoms: C14_17  and  O5_21
REMARK                            x       y       z     vdW  Elec       q    Type
REMARK                         _______ _______ _______ _____ _____    ______ ____
ROOT
ATOM      8  C   UNL     1      45.319  17.890  20.088  0.00  0.00    +0.219 A 
ATOM      9  C   UNL     1      44.631  17.268  21.082  0.00  0.00    -0.066 A 
ATOM     12  C   UNL     1      43.299  17.655  21.356  0.00  0.00    +0.439 A 
ATOM     13  C   UNL     1      42.723  18.731  20.533  0.00  0.00    -0.259 A 
ATOM     14  C   UNL     1      41.411  19.178  20.733  0.00  0.00    +0.226 A 
ATOM     17  C   UNL     1      40.908  20.191  19.939  0.00  0.00    -0.050 A 
ATOM     18  C   UNL     1      41.700  20.760  18.947  0.00  0.00    +0.197 A 
ATOM     21  C   UNL     1      42.999  20.322  18.742  0.00  0.00    -0.028 A 
ATOM     22  C   UNL     1      43.521  19.307  19.529  0.00  0.00    +0.195 A 
ATOM     23  O   UNL     1      42.651  17.118  22.241  0.00  0.00    -0.428 OA
ATOM     24  O   UNL     1      44.786  18.873  19.347  0.00  0.00    -0.232 OA
ENDROOT
BRANCH   9  10
ATOM     10  O   UNL     1      45.222  16.278  21.809  0.00  0.00    -0.444 OA
ATOM     11  H   UNL     1      45.769  15.677  21.284  0.00  0.00    +0.400 HD
ENDBRANCH   9  10
BRANCH  14  15
ATOM     15  O   UNL     1      40.640  18.622  21.702  0.00  0.00    -0.471 OA
ATOM     16  H   UNL     1      41.129  18.070  22.326  0.00  0.00    +0.405 HD
ENDBRANCH  14  15
BRANCH  18  19
ATOM     19  O   UNL     1      41.195  21.754  18.172  0.00  0.00    -0.486 OA
ATOM     20  H   UNL     1      41.807  22.487  18.024  0.00  0.00    +0.404 HD
ENDBRANCH  18  19
BRANCH   8   7
ATOM      7  O   UNL     1      46.591  17.507  19.840  0.00  0.00    -0.215 OA
BRANCH   7   6
ATOM      3  C   UNL     1      47.219  14.614  16.964  0.00  0.00    +0.145 A 
ATOM      4  C   UNL     1      46.703  15.850  16.604  0.00  0.00    -0.057 A 
ATOM      5  C   UNL     1      46.493  16.818  17.566  0.00  0.00    +0.063 A 
ATOM      6  C   UNL     1      46.798  16.554  18.893  0.00  0.00    +0.023 A 
ATOM     25  C   UNL     1      47.314  15.317  19.253  0.00  0.00    +0.079 A 
ATOM     26  C   UNL     1      47.519  14.348  18.291  0.00  0.00    +0.006 A 
BRANCH   3   2
ATOM      1  C   UNL     1      48.783  13.336  15.709  0.00  0.00    +0.247 C 
ATOM      2  O   UNL     1      47.426  13.661  16.016  0.00  0.00    -0.311 OA
ENDBRANCH   3   2
ENDBRANCH   7   6
ENDBRANCH   8   7
TORSDOF 6
ENDMDL
MODEL 9
REMARK VINA RESULT:      -5.3      1.756      2.671
REMARK  Name = ZINC95486293
REMARK  7 active torsions:
REMARK  status: ('A' for Active; 'I' for Inactive)
REMARK    1  A    between atoms: C1_1  and  O1_2
REMARK    2  A    between atoms: O1_2  and  C2_3
REMARK    3  A    between atoms: C5_6  and  O2_9
REMARK    4  A    between atoms: O2_9  and  C8_10
REMARK    5  A    between atoms: C9_11  and  O7_23
REMARK    6  A    between atoms: C12_15  and  O6_22
REMARK    7  A    between atoms: C14_17  and  O5_21
REMARK                            x       y       z     vdW  Elec       q    Type
REMARK                         _______ _______ _______ _____ _____    ______ ____
ROOT
ATOM      8  C   UNL     1      46.148  17.236  19.838  0.00  0.00    +0.219 A 
ATOM      9  C   UNL     1      46.965  18.225  19.390  0.00  0.00    -0.066 A 
ATOM     12  C   UNL     1      46.431  19.510  19.137  0.00  0.00    +0.439 A 
ATOM     13  C   UNL     1      44.992  19.705  19.378  0.00  0.00    -0.259 A 
ATOM     14  C   UNL     1      44.378  20.944  19.155  0.00  0.00    +0.226 A 
ATOM     17  C   UNL     1      43.024  21.085  19.393  0.00  0.00    -0.050 A 
ATOM     18  C   UNL     1      42.279  20.005  19.853  0.00  0.00    +0.197 A 
ATOM     21  C   UNL     1      42.880  18.776  20.076  0.00  0.00    -0.028 A 
ATOM     22  C   UNL     1      44.237  18.615  19.843  0.00  0.00    +0.195 A 
ATOM     23  O   UNL     1      47.137  20.423  18.734  0.00  0.00    -0.428 OA
ATOM     24  O   UNL     1      44.837  17.424  20.049  0.00  0.00    -0.232 OA
ENDROOT
BRANCH   9  10
ATOM     10  O   UNL     1      48.291  17.980  19.187  0.00  0.00    -0.444 OA
ATOM     11  H   UNL     1      48.471  17.154  18.717  0.00  0.00    +0.400 HD
ENDBRANCH   9  10
BRANCH  14  15
ATOM     15  O   UNL     1      45.108  21.998  18.707  0.00  0.00    -0.471 OA
ATOM     16  H   UNL     1      45.942  21.749  18.289  0.00  0.00    +0.405 HD
ENDBRANCH  14  15
BRANCH  18  19
ATOM     19  O   UNL     1      40.949  20.155  20.084  0.00  0.00    -0.486 OA
ATOM     20  H   UNL     1      40.729  20.355  21.003  0.00  0.00    +0.404 HD
ENDBRANCH  18  19
BRANCH   8   7
ATOM      7  O   UNL     1      46.676  16.014  20.074  0.00  0.00    -0.215 OA
BRANCH   7   6
ATOM      3  C   UNL     1      45.722  12.954  17.474  0.00  0.00    +0.145 A 
ATOM      4  C   UNL     1      46.618  13.938  17.087  0.00  0.00    -0.057 A 
ATOM      5  C   UNL     1      46.938  14.963  17.957  0.00  0.00    +0.063 A 
ATOM      6  C   UNL     1      46.361  15.006  19.217  0.00  0.00    +0.023 A 
ATOM     25  C   UNL     1      45.464  14.022  19.604  0.00  0.00    +0.079 A 
ATOM     26  C   UNL     1      45.141  13.000  18.733  0.00  0.00    +0.006 A 
BRANCH   3   2
ATOM      1  C   UNL     1      46.270  10.807  16.612  0.00  0.00    +0.247 C 
ATOM      2  O   UNL     1      45.408  11.945  16.617  0.00  0.00    -0.311 OA
ENDBRANCH   3   2
ENDBRANCH   7   6
ENDBRANCH   8   7
TORSDOF 6
ENDMDL
