MODEL 1
REMARK VINA RESULT:      -7.7      0.000      0.000
REMARK  Name = ZINC95486360
REMARK  17 active torsions:
REMARK  status: ('A' for Active; 'I' for Inactive)
REMARK    1  A    between atoms: C1_1  and  C2_2
REMARK    2  A    between atoms: C3_4  and  O16_52
REMARK    3  A    between atoms: C4_6  and  O15_51
REMARK    4  A    between atoms: C5_8  and  O14_50
REMARK    5  A    between atoms: C6_10  and  O2_13
REMARK    6  A    between atoms: O2_13  and  C7_14
REMARK    7  A    between atoms: C9_16  and  C13_21
REMARK    8  A    between atoms: C12_19  and  O3_20
REMARK    9  A    between atoms: C14_22  and  O13_49
REMARK   10  A    between atoms: C17_26  and  O12_48
REMARK   11  A    between atoms: C19_28  and  O6_32
REMARK   12  A    between atoms: O6_32  and  C22_33
REMARK   13  A    between atoms: C24_37  and  C27_45
REMARK   14  A    between atoms: C25_39  and  O9_44
REMARK   15  A    between atoms: C26_41  and  O8_43
REMARK   16  A    between atoms: C27_45  and  O10_46
REMARK   17  A    between atoms: C27_45  and  O11_47
REMARK                            x       y       z     vdW  Elec       q    Type
REMARK                         _______ _______ _______ _____ _____    ______ ____
ROOT
ATOM     17  C   UNL     1      47.676  16.178  19.134  0.00  0.00    +0.130 A 
ATOM     18  C   UNL     1      48.680  17.097  19.202  0.00  0.00    -0.036 A 
ATOM     21  C   UNL     1      49.859  16.899  18.440  0.00  0.00    +0.403 A 
ATOM     22  C   UNL     1      49.932  15.689  17.606  0.00  0.00    -0.290 A 
ATOM     23  C   UNL     1      51.060  15.414  16.822  0.00  0.00    +0.252 A 
ATOM     26  C   UNL     1      51.090  14.266  16.052  0.00  0.00    -0.120 A 
ATOM     27  C   UNL     1      50.008  13.393  16.056  0.00  0.00    +0.216 A 
ATOM     44  C   UNL     1      48.888  13.659  16.829  0.00  0.00    -0.033 A 
ATOM     45  C   UNL     1      48.839  14.805  17.609  0.00  0.00    +0.210 A 
ATOM     46  O   UNL     1      50.780  17.700  18.476  0.00  0.00    -0.449 OA
ATOM     47  O   UNL     1      47.759  15.075  18.371  0.00  0.00    -0.198 OA
ENDROOT
BRANCH  17  16
ATOM     14  C   UNL     1      44.462  17.667  20.381  0.00  0.00    +0.098 A 
ATOM     15  C   UNL     1      45.604  17.465  19.630  0.00  0.00    -0.001 A 
ATOM     16  C   UNL     1      46.456  16.399  19.933  0.00  0.00    -0.023 A 
ATOM     48  C   UNL     1      46.149  15.542  20.994  0.00  0.00    +0.062 A 
ATOM     49  C   UNL     1      45.007  15.751  21.739  0.00  0.00    +0.035 A 
ATOM     50  C   UNL     1      44.164  16.812  21.441  0.00  0.00    +0.104 A 
BRANCH  50  51
ATOM     51  O   UNL     1      43.043  17.016  22.181  0.00  0.00    -0.483 OA
ATOM     52  H   UNL     1      43.218  17.274  23.097  0.00  0.00    +0.391 HD
ENDBRANCH  50  51
BRANCH  14  13
ATOM     13  O   UNL     1      43.631  18.704  20.089  0.00  0.00    -0.284 OA
BRANCH  13  12
ATOM      1  C   UNL     1      46.182  21.892  22.505  0.00  0.00    +0.078 C 
ATOM      2  C   UNL     1      45.516  21.626  21.153  0.00  0.00    +0.141 C 
ATOM      3  C   UNL     1      44.486  22.722  20.866  0.00  0.00    +0.166 C 
ATOM      6  C   UNL     1      43.783  22.416  19.540  0.00  0.00    +0.200 C 
ATOM      9  C   UNL     1      43.145  21.026  19.621  0.00  0.00    +0.153 C 
ATOM     12  C   UNL     1      44.227  19.995  19.956  0.00  0.00    +0.302 C 
ATOM     53  O   UNL     1      44.863  20.356  21.184  0.00  0.00    -0.382 OA
BRANCH   3   4
ATOM      4  O   UNL     1      45.146  23.986  20.777  0.00  0.00    -0.543 OA
ATOM      5  H   UNL     1      45.065  24.529  21.574  0.00  0.00    +0.383 HD
ENDBRANCH   3   4
BRANCH   6   7
ATOM      7  O   UNL     1      42.770  23.395  19.299  0.00  0.00    -0.542 OA
ATOM      8  H   UNL     1      41.927  23.024  19.002  0.00  0.00    +0.389 HD
ENDBRANCH   6   7
BRANCH   9  10
ATOM     10  O   UNL     1      42.547  20.700  18.365  0.00  0.00    -0.551 OA
ATOM     11  H   UNL     1      43.030  21.041  17.599  0.00  0.00    +0.396 HD
ENDBRANCH   9  10
ENDBRANCH  13  12
ENDBRANCH  14  13
ENDBRANCH  17  16
BRANCH  18  19
ATOM     19  O   UNL     1      48.551  18.197  19.994  0.00  0.00    -0.447 OA
ATOM     20  H   UNL     1      47.690  18.272  20.426  0.00  0.00    +0.408 HD
ENDBRANCH  18  19
BRANCH  23  24
ATOM     24  O   UNL     1      52.116  16.266  16.819  0.00  0.00    -0.473 OA
ATOM     25  H   UNL     1      51.922  17.136  17.193  0.00  0.00    +0.406 HD
ENDBRANCH  23  24
BRANCH  27  28
ATOM     28  O   UNL     1      50.047  12.268  15.296  0.00  0.00    -0.290 OA
BRANCH  28  29
ATOM     29  C   UNL     1      50.774  12.341  14.069  0.00  0.00    +0.118 C 
ATOM     30  C   UNL     1      50.903  10.939  13.467  0.00  0.00    +0.225 C 
ATOM     31  O   UNL     1      51.579  11.022  12.210  0.00  0.00    -0.351 OA
ATOM     32  C   UNL     1      50.902  11.815  11.234  0.00  0.00    +0.138 C 
ATOM     38  C   UNL     1      50.773  13.252  11.746  0.00  0.00    +0.185 C 
ATOM     41  C   UNL     1      50.026  13.245  13.084  0.00  0.00    +0.202 C 
BRANCH  38  39
ATOM     39  O   UNL     1      50.046  14.034  10.796  0.00  0.00    -0.541 OA
ATOM     40  H   UNL     1      50.390  13.978   9.894  0.00  0.00    +0.381 HD
ENDBRANCH  38  39
BRANCH  41  42
ATOM     42  O   UNL     1      48.702  12.748  12.889  0.00  0.00    -0.544 OA
ATOM     43  H   UNL     1      48.552  11.869  13.263  0.00  0.00    +0.388 HD
ENDBRANCH  41  42
BRANCH  32  33
ATOM     33  C   UNL     1      51.699  11.808   9.928  0.00  0.00    +0.389 C 
BRANCH  33  34
ATOM     34  O   UNL     1      50.798  11.775   8.820  0.00  0.00    -0.572 OA
ATOM     35  H   UNL     1      51.093  12.292   8.057  0.00  0.00    +0.392 HD
ENDBRANCH  33  34
BRANCH  33  36
ATOM     36  O   UNL     1      52.542  10.654   9.891  0.00  0.00    -0.575 OA
ATOM     37  H   UNL     1      52.437  10.116   9.096  0.00  0.00    +0.390 HD
ENDBRANCH  33  36
ENDBRANCH  32  33
ENDBRANCH  28  29
ENDBRANCH  27  28
TORSDOF 16
ENDMDL
MODEL 2
REMARK VINA RESULT:      -7.5      1.594      2.454
REMARK  Name = ZINC95486360
REMARK  17 active torsions:
REMARK  status: ('A' for Active; 'I' for Inactive)
REMARK    1  A    between atoms: C1_1  and  C2_2
REMARK    2  A    between atoms: C3_4  and  O16_52
REMARK    3  A    between atoms: C4_6  and  O15_51
REMARK    4  A    between atoms: C5_8  and  O14_50
REMARK    5  A    between atoms: C6_10  and  O2_13
REMARK    6  A    between atoms: O2_13  and  C7_14
REMARK    7  A    between atoms: C9_16  and  C13_21
REMARK    8  A    between atoms: C12_19  and  O3_20
REMARK    9  A    between atoms: C14_22  and  O13_49
REMARK   10  A    between atoms: C17_26  and  O12_48
REMARK   11  A    between atoms: C19_28  and  O6_32
REMARK   12  A    between atoms: O6_32  and  C22_33
REMARK   13  A    between atoms: C24_37  and  C27_45
REMARK   14  A    between atoms: C25_39  and  O9_44
REMARK   15  A    between atoms: C26_41  and  O8_43
REMARK   16  A    between atoms: C27_45  and  O10_46
REMARK   17  A    between atoms: C27_45  and  O11_47
REMARK                            x       y       z     vdW  Elec       q    Type
REMARK                         _______ _______ _______ _____ _____    ______ ____
ROOT
ATOM     17  C   UNL     1      47.601  17.908  19.739  0.00  0.00    +0.130 A 
ATOM     18  C   UNL     1      48.232  19.113  19.663  0.00  0.00    -0.036 A 
ATOM     21  C   UNL     1      49.468  19.210  18.974  0.00  0.00    +0.403 A 
ATOM     22  C   UNL     1      50.006  17.981  18.370  0.00  0.00    -0.290 A 
ATOM     23  C   UNL     1      51.221  17.986  17.672  0.00  0.00    +0.252 A 
ATOM     26  C   UNL     1      51.694  16.810  17.120  0.00  0.00    -0.120 A 
ATOM     27  C   UNL     1      50.967  15.632  17.257  0.00  0.00    +0.216 A 
ATOM     44  C   UNL     1      49.764  15.620  17.946  0.00  0.00    -0.033 A 
ATOM     45  C   UNL     1      49.274  16.790  18.508  0.00  0.00    +0.210 A 
ATOM     46  O   UNL     1      50.063  20.273  18.886  0.00  0.00    -0.449 OA
ATOM     47  O   UNL     1      48.108  16.792  19.186  0.00  0.00    -0.198 OA
ENDROOT
BRANCH  17  16
ATOM     14  C   UNL     1      43.944  18.211  20.539  0.00  0.00    +0.098 A 
ATOM     15  C   UNL     1      45.145  18.294  19.860  0.00  0.00    -0.001 A 
ATOM     16  C   UNL     1      46.317  17.823  20.459  0.00  0.00    -0.023 A 
ATOM     48  C   UNL     1      46.269  17.271  21.743  0.00  0.00    +0.062 A 
ATOM     49  C   UNL     1      45.067  17.192  22.414  0.00  0.00    +0.035 A 
ATOM     50  C   UNL     1      43.904  17.665  21.821  0.00  0.00    +0.104 A 
BRANCH  50  51
ATOM     51  O   UNL     1      42.724  17.590  22.489  0.00  0.00    -0.483 OA
ATOM     52  H   UNL     1      42.045  17.074  22.031  0.00  0.00    +0.391 HD
ENDBRANCH  50  51
BRANCH  14  13
ATOM     13  O   UNL     1      42.802  18.669  19.959  0.00  0.00    -0.284 OA
BRANCH  13  12
ATOM      1  C   UNL     1      44.533  23.050  20.524  0.00  0.00    +0.078 C 
ATOM      2  C   UNL     1      43.732  22.163  19.568  0.00  0.00    +0.141 C 
ATOM      3  C   UNL     1      42.349  22.779  19.339  0.00  0.00    +0.166 C 
ATOM      6  C   UNL     1      41.532  21.856  18.430  0.00  0.00    +0.200 C 
ATOM      9  C   UNL     1      41.451  20.467  19.070  0.00  0.00    +0.153 C 
ATOM     12  C   UNL     1      42.869  19.940  19.310  0.00  0.00    +0.302 C 
ATOM     53  O   UNL     1      43.585  20.861  20.136  0.00  0.00    -0.382 OA
BRANCH   3   4
ATOM      4  O   UNL     1      42.493  24.058  18.717  0.00  0.00    -0.543 OA
ATOM      5  H   UNL     1      43.243  24.118  18.110  0.00  0.00    +0.383 HD
ENDBRANCH   3   4
BRANCH   6   7
ATOM      7  O   UNL     1      40.215  22.387  18.268  0.00  0.00    -0.542 OA
ATOM      8  H   UNL     1      40.196  23.302  17.958  0.00  0.00    +0.389 HD
ENDBRANCH   6   7
BRANCH   9  10
ATOM     10  O   UNL     1      40.752  19.578  18.197  0.00  0.00    -0.551 OA
ATOM     11  H   UNL     1      40.930  19.728  17.258  0.00  0.00    +0.396 HD
ENDBRANCH   9  10
ENDBRANCH  13  12
ENDBRANCH  14  13
ENDBRANCH  17  16
BRANCH  18  19
ATOM     19  O   UNL     1      47.681  20.214  20.243  0.00  0.00    -0.447 OA
ATOM     20  H   UNL     1      47.939  21.048  19.829  0.00  0.00    +0.408 HD
ENDBRANCH  18  19
BRANCH  23  24
ATOM     24  O   UNL     1      51.929  19.136  17.539  0.00  0.00    -0.473 OA
ATOM     25  H   UNL     1      52.402  19.213  16.700  0.00  0.00    +0.406 HD
ENDBRANCH  23  24
BRANCH  27  28
ATOM     28  O   UNL     1      51.440  14.483  16.711  0.00  0.00    -0.290 OA
BRANCH  28  29
ATOM     29  C   UNL     1      51.034  14.185  15.374  0.00  0.00    +0.118 C 
ATOM     30  C   UNL     1      52.268  14.093  14.473  0.00  0.00    +0.225 C 
ATOM     31  O   UNL     1      51.865  13.739  13.149  0.00  0.00    -0.351 OA
ATOM     32  C   UNL     1      51.209  12.473  13.057  0.00  0.00    +0.138 C 
ATOM     38  C   UNL     1      49.931  12.501  13.901  0.00  0.00    +0.185 C 
ATOM     41  C   UNL     1      50.292  12.846  15.349  0.00  0.00    +0.202 C 
BRANCH  38  39
ATOM     39  O   UNL     1      49.303  11.218  13.857  0.00  0.00    -0.541 OA
ATOM     40  H   UNL     1      48.507  11.187  13.308  0.00  0.00    +0.381 HD
ENDBRANCH  38  39
BRANCH  41  42
ATOM     42  O   UNL     1      51.131  11.824  15.889  0.00  0.00    -0.544 OA
ATOM     43  H   UNL     1      51.505  12.038  16.754  0.00  0.00    +0.388 HD
ENDBRANCH  41  42
BRANCH  32  33
ATOM     33  C   UNL     1      50.850  12.188  11.597  0.00  0.00    +0.389 C 
BRANCH  33  34
ATOM     34  O   UNL     1      51.940  12.570  10.756  0.00  0.00    -0.572 OA
ATOM     35  H   UNL     1      52.755  12.076  10.919  0.00  0.00    +0.392 HD
ENDBRANCH  33  34
BRANCH  33  36
ATOM     36  O   UNL     1      49.686  12.934  11.238  0.00  0.00    -0.575 OA
ATOM     37  H   UNL     1      49.338  12.723  10.362  0.00  0.00    +0.390 HD
ENDBRANCH  33  36
ENDBRANCH  32  33
ENDBRANCH  28  29
ENDBRANCH  27  28
TORSDOF 16
ENDMDL
MODEL 3
REMARK VINA RESULT:      -7.3      2.216     10.903
REMARK  Name = ZINC95486360
REMARK  17 active torsions:
REMARK  status: ('A' for Active; 'I' for Inactive)
REMARK    1  A    between atoms: C1_1  and  C2_2
REMARK    2  A    between atoms: C3_4  and  O16_52
REMARK    3  A    between atoms: C4_6  and  O15_51
REMARK    4  A    between atoms: C5_8  and  O14_50
REMARK    5  A    between atoms: C6_10  and  O2_13
REMARK    6  A    between atoms: O2_13  and  C7_14
REMARK    7  A    between atoms: C9_16  and  C13_21
REMARK    8  A    between atoms: C12_19  and  O3_20
REMARK    9  A    between atoms: C14_22  and  O13_49
REMARK   10  A    between atoms: C17_26  and  O12_48
REMARK   11  A    between atoms: C19_28  and  O6_32
REMARK   12  A    between atoms: O6_32  and  C22_33
REMARK   13  A    between atoms: C24_37  and  C27_45
REMARK   14  A    between atoms: C25_39  and  O9_44
REMARK   15  A    between atoms: C26_41  and  O8_43
REMARK   16  A    between atoms: C27_45  and  O10_46
REMARK   17  A    between atoms: C27_45  and  O11_47
REMARK                            x       y       z     vdW  Elec       q    Type
REMARK                         _______ _______ _______ _____ _____    ______ ____
ROOT
ATOM     17  C   UNL     1      47.937  16.009  18.206  0.00  0.00    +0.130 A 
ATOM     18  C   UNL     1      49.201  16.495  18.057  0.00  0.00    -0.036 A 
ATOM     21  C   UNL     1      49.470  17.850  18.380  0.00  0.00    +0.403 A 
ATOM     22  C   UNL     1      48.347  18.667  18.865  0.00  0.00    -0.290 A 
ATOM     23  C   UNL     1      48.523  20.014  19.207  0.00  0.00    +0.252 A 
ATOM     26  C   UNL     1      47.442  20.749  19.658  0.00  0.00    -0.120 A 
ATOM     27  C   UNL     1      46.191  20.153  19.773  0.00  0.00    +0.216 A 
ATOM     44  C   UNL     1      46.010  18.820  19.438  0.00  0.00    -0.033 A 
ATOM     45  C   UNL     1      47.082  18.067  18.982  0.00  0.00    +0.210 A 
ATOM     46  O   UNL     1      50.591  18.321  18.258  0.00  0.00    -0.449 OA
ATOM     47  O   UNL     1      46.919  16.770  18.646  0.00  0.00    -0.198 OA
ENDROOT
BRANCH  17  16
ATOM     14  C   UNL     1      47.515  12.847  16.226  0.00  0.00    +0.098 A 
ATOM     15  C   UNL     1      47.762  14.170  16.539  0.00  0.00    -0.001 A 
ATOM     16  C   UNL     1      47.674  14.599  17.866  0.00  0.00    -0.023 A 
ATOM     48  C   UNL     1      47.335  13.688  18.871  0.00  0.00    +0.062 A 
ATOM     49  C   UNL     1      47.089  12.369  18.550  0.00  0.00    +0.035 A 
ATOM     50  C   UNL     1      47.172  11.945  17.232  0.00  0.00    +0.104 A 
BRANCH  50  51
ATOM     51  O   UNL     1      46.924  10.646  16.921  0.00  0.00    -0.483 OA
ATOM     52  H   UNL     1      46.474  10.153  17.621  0.00  0.00    +0.391 HD
ENDBRANCH  50  51
BRANCH  14  13
ATOM     13  O   UNL     1      47.600  12.426  14.935  0.00  0.00    -0.284 OA
BRANCH  13  12
ATOM      1  C   UNL     1      51.526  10.428  16.695  0.00  0.00    +0.078 C 
ATOM      2  C   UNL     1      50.825  10.810  15.389  0.00  0.00    +0.141 C 
ATOM      3  C   UNL     1      51.715  11.770  14.594  0.00  0.00    +0.166 C 
ATOM      6  C   UNL     1      50.981  12.194  13.318  0.00  0.00    +0.200 C 
ATOM      9  C   UNL     1      49.639  12.825  13.699  0.00  0.00    +0.153 C 
ATOM     12  C   UNL     1      48.829  11.824  14.528  0.00  0.00    +0.302 C 
ATOM     53  O   UNL     1      49.581  11.447  15.684  0.00  0.00    -0.382 OA
BRANCH   3   4
ATOM      4  O   UNL     1      52.937  11.114  14.249  0.00  0.00    -0.543 OA
ATOM      5  H   UNL     1      53.539  10.989  14.995  0.00  0.00    +0.383 HD
ENDBRANCH   3   4
BRANCH   6   7
ATOM      7  O   UNL     1      51.774  13.146  12.605  0.00  0.00    -0.542 OA
ATOM      8  H   UNL     1      52.516  13.499  13.113  0.00  0.00    +0.389 HD
ENDBRANCH   6   7
BRANCH   9  10
ATOM     10  O   UNL     1      48.915  13.160  12.513  0.00  0.00    -0.551 OA
ATOM     11  H   UNL     1      49.477  13.393  11.761  0.00  0.00    +0.396 HD
ENDBRANCH   9  10
ENDBRANCH  13  12
ENDBRANCH  14  13
ENDBRANCH  17  16
BRANCH  18  19
ATOM     19  O   UNL     1      50.198  15.687  17.604  0.00  0.00    -0.447 OA
ATOM     20  H   UNL     1      49.966  14.749  17.585  0.00  0.00    +0.408 HD
ENDBRANCH  18  19
BRANCH  23  24
ATOM     24  O   UNL     1      49.744  20.595  19.094  0.00  0.00    -0.473 OA
ATOM     25  H   UNL     1      49.728  21.560  19.146  0.00  0.00    +0.406 HD
ENDBRANCH  23  24
BRANCH  27  28
ATOM     28  O   UNL     1      45.136  20.883  20.218  0.00  0.00    -0.290 OA
BRANCH  28  29
ATOM     29  C   UNL     1      43.883  20.679  19.561  0.00  0.00    +0.118 C 
ATOM     30  C   UNL     1      42.912  19.983  20.518  0.00  0.00    +0.225 C 
ATOM     31  O   UNL     1      41.642  19.833  19.879  0.00  0.00    -0.351 OA
ATOM     32  C   UNL     1      41.024  21.066  19.510  0.00  0.00    +0.138 C 
ATOM     38  C   UNL     1      41.920  21.805  18.512  0.00  0.00    +0.185 C 
ATOM     41  C   UNL     1      43.298  22.030  19.143  0.00  0.00    +0.202 C 
BRANCH  38  39
ATOM     39  O   UNL     1      41.331  23.065  18.184  0.00  0.00    -0.541 OA
ATOM     40  H   UNL     1      41.339  23.704  18.910  0.00  0.00    +0.381 HD
ENDBRANCH  38  39
BRANCH  41  42
ATOM     42  O   UNL     1      43.165  22.870  20.291  0.00  0.00    -0.544 OA
ATOM     43  H   UNL     1      42.259  22.949  20.618  0.00  0.00    +0.388 HD
ENDBRANCH  41  42
BRANCH  32  33
ATOM     33  C   UNL     1      39.665  20.784  18.865  0.00  0.00    +0.389 C 
BRANCH  33  34
ATOM     34  O   UNL     1      39.863  20.245  17.557  0.00  0.00    -0.572 OA
ATOM     35  H   UNL     1      40.004  20.914  16.873  0.00  0.00    +0.392 HD
ENDBRANCH  33  34
BRANCH  33  36
ATOM     36  O   UNL     1      38.920  22.000  18.772  0.00  0.00    -0.575 OA
ATOM     37  H   UNL     1      38.510  22.274  19.603  0.00  0.00    +0.390 HD
ENDBRANCH  33  36
ENDBRANCH  32  33
ENDBRANCH  28  29
ENDBRANCH  27  28
TORSDOF 16
ENDMDL
MODEL 4
REMARK VINA RESULT:      -7.2      3.262     10.222
REMARK  Name = ZINC95486360
REMARK  17 active torsions:
REMARK  status: ('A' for Active; 'I' for Inactive)
REMARK    1  A    between atoms: C1_1  and  C2_2
REMARK    2  A    between atoms: C3_4  and  O16_52
REMARK    3  A    between atoms: C4_6  and  O15_51
REMARK    4  A    between atoms: C5_8  and  O14_50
REMARK    5  A    between atoms: C6_10  and  O2_13
REMARK    6  A    between atoms: O2_13  and  C7_14
REMARK    7  A    between atoms: C9_16  and  C13_21
REMARK    8  A    between atoms: C12_19  and  O3_20
REMARK    9  A    between atoms: C14_22  and  O13_49
REMARK   10  A    between atoms: C17_26  and  O12_48
REMARK   11  A    between atoms: C19_28  and  O6_32
REMARK   12  A    between atoms: O6_32  and  C22_33
REMARK   13  A    between atoms: C24_37  and  C27_45
REMARK   14  A    between atoms: C25_39  and  O9_44
REMARK   15  A    between atoms: C26_41  and  O8_43
REMARK   16  A    between atoms: C27_45  and  O10_46
REMARK   17  A    between atoms: C27_45  and  O11_47
REMARK                            x       y       z     vdW  Elec       q    Type
REMARK                         _______ _______ _______ _____ _____    ______ ____
ROOT
ATOM     17  C   UNL     1      50.754  16.510  17.480  0.00  0.00    +0.130 A 
ATOM     18  C   UNL     1      51.550  17.276  16.682  0.00  0.00    -0.036 A 
ATOM     21  C   UNL     1      51.540  18.686  16.834  0.00  0.00    +0.403 A 
ATOM     22  C   UNL     1      50.654  19.250  17.865  0.00  0.00    -0.290 A 
ATOM     23  C   UNL     1      50.582  20.632  18.083  0.00  0.00    +0.252 A 
ATOM     26  C   UNL     1      49.736  21.124  19.061  0.00  0.00    -0.120 A 
ATOM     27  C   UNL     1      48.965  20.250  19.821  0.00  0.00    +0.216 A 
ATOM     44  C   UNL     1      49.033  18.882  19.611  0.00  0.00    -0.033 A 
ATOM     45  C   UNL     1      49.874  18.370  18.634  0.00  0.00    +0.210 A 
ATOM     46  O   UNL     1      52.239  19.404  16.136  0.00  0.00    -0.449 OA
ATOM     47  O   UNL     1      49.946  17.041  18.414  0.00  0.00    -0.198 OA
ENDROOT
BRANCH  17  16
ATOM     14  C   UNL     1      49.770  13.034  16.455  0.00  0.00    +0.098 A 
ATOM     15  C   UNL     1      49.745  14.406  16.614  0.00  0.00    -0.001 A 
ATOM     16  C   UNL     1      50.775  15.046  17.309  0.00  0.00    -0.023 A 
ATOM     48  C   UNL     1      51.827  14.294  17.841  0.00  0.00    +0.062 A 
ATOM     49  C   UNL     1      51.845  12.924  17.680  0.00  0.00    +0.035 A 
ATOM     50  C   UNL     1      50.819  12.289  16.994  0.00  0.00    +0.104 A 
BRANCH  50  51
ATOM     51  O   UNL     1      50.838  10.940  16.842  0.00  0.00    -0.483 OA
ATOM     52  H   UNL     1      51.707  10.582  16.610  0.00  0.00    +0.391 HD
ENDBRANCH  50  51
BRANCH  14  13
ATOM     13  O   UNL     1      48.768  12.409  15.781  0.00  0.00    -0.284 OA
BRANCH  13  12
ATOM      1  C   UNL     1      46.104  13.470  19.559  0.00  0.00    +0.078 C 
ATOM      2  C   UNL     1      46.058  13.284  18.041  0.00  0.00    +0.141 C 
ATOM      3  C   UNL     1      45.057  12.178  17.692  0.00  0.00    +0.166 C 
ATOM      6  C   UNL     1      45.061  11.957  16.177  0.00  0.00    +0.200 C 
ATOM      9  C   UNL     1      46.485  11.617  15.725  0.00  0.00    +0.153 C 
ATOM     12  C   UNL     1      47.430  12.745  16.149  0.00  0.00    +0.302 C 
ATOM     53  O   UNL     1      47.355  12.920  17.565  0.00  0.00    -0.382 OA
BRANCH   3   4
ATOM      4  O   UNL     1      43.749  12.566  18.117  0.00  0.00    -0.543 OA
ATOM      5  H   UNL     1      43.289  11.893  18.637  0.00  0.00    +0.383 HD
ENDBRANCH   3   4
BRANCH   6   7
ATOM      7  O   UNL     1      44.183  10.877  15.849  0.00  0.00    -0.542 OA
ATOM      8  H   UNL     1      43.879  10.371  16.615  0.00  0.00    +0.389 HD
ENDBRANCH   6   7
BRANCH   9  10
ATOM     10  O   UNL     1      46.514  11.478  14.303  0.00  0.00    -0.551 OA
ATOM     11  H   UNL     1      47.107  12.100  13.859  0.00  0.00    +0.396 HD
ENDBRANCH   9  10
ENDBRANCH  13  12
ENDBRANCH  14  13
ENDBRANCH  17  16
BRANCH  18  19
ATOM     19  O   UNL     1      52.348  16.692  15.747  0.00  0.00    -0.447 OA
ATOM     20  H   UNL     1      52.974  17.299  15.330  0.00  0.00    +0.408 HD
ENDBRANCH  18  19
BRANCH  23  24
ATOM     24  O   UNL     1      51.334  21.483  17.340  0.00  0.00    -0.473 OA
ATOM     25  H   UNL     1      52.220  21.153  17.139  0.00  0.00    +0.406 HD
ENDBRANCH  23  24
BRANCH  27  28
ATOM     28  O   UNL     1      48.138  20.743  20.779  0.00  0.00    -0.290 OA
BRANCH  28  29
ATOM     29  C   UNL     1      47.095  21.618  20.347  0.00  0.00    +0.118 C 
ATOM     30  C   UNL     1      46.189  20.883  19.356  0.00  0.00    +0.225 C 
ATOM     31  O   UNL     1      45.112  21.740  18.970  0.00  0.00    -0.351 OA
ATOM     32  C   UNL     1      44.273  22.147  20.052  0.00  0.00    +0.138 C 
ATOM     38  C   UNL     1      45.103  22.934  21.071  0.00  0.00    +0.185 C 
ATOM     41  C   UNL     1      46.265  22.062  21.555  0.00  0.00    +0.202 C 
BRANCH  38  39
ATOM     39  O   UNL     1      44.279  23.294  22.181  0.00  0.00    -0.541 OA
ATOM     40  H   UNL     1      44.543  24.115  22.618  0.00  0.00    +0.381 HD
ENDBRANCH  38  39
BRANCH  41  42
ATOM     42  O   UNL     1      45.750  20.913  22.230  0.00  0.00    -0.544 OA
ATOM     43  H   UNL     1      44.796  20.940  22.382  0.00  0.00    +0.388 HD
ENDBRANCH  41  42
BRANCH  32  33
ATOM     33  C   UNL     1      43.146  23.034  19.518  0.00  0.00    +0.389 C 
BRANCH  33  34
ATOM     34  O   UNL     1      42.277  22.254  18.694  0.00  0.00    -0.572 OA
ATOM     35  H   UNL     1      42.082  21.376  19.049  0.00  0.00    +0.392 HD
ENDBRANCH  33  34
BRANCH  33  36
ATOM     36  O   UNL     1      43.703  24.101  18.749  0.00  0.00    -0.575 OA
ATOM     37  H   UNL     1      44.668  24.134  18.763  0.00  0.00    +0.390 HD
ENDBRANCH  33  36
ENDBRANCH  32  33
ENDBRANCH  28  29
ENDBRANCH  27  28
TORSDOF 16
ENDMDL
MODEL 5
REMARK VINA RESULT:      -7.2      2.291     10.607
REMARK  Name = ZINC95486360
REMARK  17 active torsions:
REMARK  status: ('A' for Active; 'I' for Inactive)
REMARK    1  A    between atoms: C1_1  and  C2_2
REMARK    2  A    between atoms: C3_4  and  O16_52
REMARK    3  A    between atoms: C4_6  and  O15_51
REMARK    4  A    between atoms: C5_8  and  O14_50
REMARK    5  A    between atoms: C6_10  and  O2_13
REMARK    6  A    between atoms: O2_13  and  C7_14
REMARK    7  A    between atoms: C9_16  and  C13_21
REMARK    8  A    between atoms: C12_19  and  O3_20
REMARK    9  A    between atoms: C14_22  and  O13_49
REMARK   10  A    between atoms: C17_26  and  O12_48
REMARK   11  A    between atoms: C19_28  and  O6_32
REMARK   12  A    between atoms: O6_32  and  C22_33
REMARK   13  A    between atoms: C24_37  and  C27_45
REMARK   14  A    between atoms: C25_39  and  O9_44
REMARK   15  A    between atoms: C26_41  and  O8_43
REMARK   16  A    between atoms: C27_45  and  O10_46
REMARK   17  A    between atoms: C27_45  and  O11_47
REMARK                            x       y       z     vdW  Elec       q    Type
REMARK                         _______ _______ _______ _____ _____    ______ ____
ROOT
ATOM     17  C   UNL     1      51.214  16.506  19.268  0.00  0.00    +0.130 A 
ATOM     18  C   UNL     1      52.019  17.497  18.792  0.00  0.00    -0.036 A 
ATOM     21  C   UNL     1      51.592  18.846  18.884  0.00  0.00    +0.403 A 
ATOM     22  C   UNL     1      50.280  19.101  19.500  0.00  0.00    -0.290 A 
ATOM     23  C   UNL     1      49.780  20.404  19.631  0.00  0.00    +0.252 A 
ATOM     26  C   UNL     1      48.543  20.603  20.214  0.00  0.00    -0.120 A 
ATOM     27  C   UNL     1      47.802  19.517  20.667  0.00  0.00    +0.216 A 
ATOM     44  C   UNL     1      48.291  18.226  20.542  0.00  0.00    -0.033 A 
ATOM     45  C   UNL     1      49.529  18.006  19.958  0.00  0.00    +0.210 A 
ATOM     46  O   UNL     1      52.286  19.761  18.467  0.00  0.00    -0.449 OA
ATOM     47  O   UNL     1      50.016  16.755  19.823  0.00  0.00    -0.198 OA
ENDROOT
BRANCH  17  16
ATOM     14  C   UNL     1      51.893  13.078  17.894  0.00  0.00    +0.098 A 
ATOM     15  C   UNL     1      51.462  14.387  17.986  0.00  0.00    -0.001 A 
ATOM     16  C   UNL     1      51.673  15.108  19.165  0.00  0.00    -0.023 A 
ATOM     48  C   UNL     1      52.319  14.501  20.245  0.00  0.00    +0.062 A 
ATOM     49  C   UNL     1      52.746  13.194  20.146  0.00  0.00    +0.035 A 
ATOM     50  C   UNL     1      52.532  12.477  18.978  0.00  0.00    +0.104 A 
BRANCH  50  51
ATOM     51  O   UNL     1      52.951  11.188  18.887  0.00  0.00    -0.483 OA
ATOM     52  H   UNL     1      52.622  10.721  18.106  0.00  0.00    +0.391 HD
ENDBRANCH  50  51
BRANCH  14  13
ATOM     13  O   UNL     1      51.689  12.373  16.749  0.00  0.00    -0.284 OA
BRANCH  13  12
ATOM      1  C   UNL     1      47.004  12.319  16.006  0.00  0.00    +0.078 C 
ATOM      2  C   UNL     1      48.326  12.856  15.453  0.00  0.00    +0.141 C 
ATOM      3  C   UNL     1      48.522  12.352  14.019  0.00  0.00    +0.166 C 
ATOM      6  C   UNL     1      49.874  12.844  13.495  0.00  0.00    +0.200 C 
ATOM      9  C   UNL     1      50.982  12.362  14.437  0.00  0.00    +0.153 C 
ATOM     12  C   UNL     1      50.691  12.865  15.854  0.00  0.00    +0.302 C 
ATOM     53  O   UNL     1      49.406  12.399  16.269  0.00  0.00    -0.382 OA
BRANCH   3   4
ATOM      4  O   UNL     1      47.474  12.856  13.189  0.00  0.00    -0.543 OA
ATOM      5  H   UNL     1      47.341  12.351  12.374  0.00  0.00    +0.383 HD
ENDBRANCH   3   4
BRANCH   6   7
ATOM      7  O   UNL     1      50.098  12.320  12.184  0.00  0.00    -0.542 OA
ATOM      8  H   UNL     1      51.027  12.311  11.917  0.00  0.00    +0.389 HD
ENDBRANCH   6   7
BRANCH   9  10
ATOM     10  O   UNL     1      52.240  12.875  13.996  0.00  0.00    -0.551 OA
ATOM     11  H   UNL     1      52.207  13.311  13.133  0.00  0.00    +0.396 HD
ENDBRANCH   9  10
ENDBRANCH  13  12
ENDBRANCH  14  13
ENDBRANCH  17  16
BRANCH  18  19
ATOM     19  O   UNL     1      53.223  17.195  18.234  0.00  0.00    -0.447 OA
ATOM     20  H   UNL     1      53.729  16.532  18.723  0.00  0.00    +0.408 HD
ENDBRANCH  18  19
BRANCH  23  24
ATOM     24  O   UNL     1      50.504  21.463  19.187  0.00  0.00    -0.473 OA
ATOM     25  H   UNL     1      51.442  21.271  19.053  0.00  0.00    +0.406 HD
ENDBRANCH  23  24
BRANCH  27  28
ATOM     28  O   UNL     1      46.587  19.723  21.239  0.00  0.00    -0.290 OA
BRANCH  28  29
ATOM     29  C   UNL     1      45.461  19.787  20.363  0.00  0.00    +0.118 C 
ATOM     30  C   UNL     1      44.477  18.667  20.711  0.00  0.00    +0.225 C 
ATOM     31  O   UNL     1      43.325  18.770  19.872  0.00  0.00    -0.351 OA
ATOM     32  C   UNL     1      42.603  19.994  20.018  0.00  0.00    +0.138 C 
ATOM     38  C   UNL     1      43.512  21.168  19.641  0.00  0.00    +0.185 C 
ATOM     41  C   UNL     1      44.762  21.140  20.526  0.00  0.00    +0.202 C 
BRANCH  38  39
ATOM     39  O   UNL     1      42.811  22.397  19.840  0.00  0.00    -0.541 OA
ATOM     40  H   UNL     1      41.850  22.319  19.762  0.00  0.00    +0.381 HD
ENDBRANCH  38  39
BRANCH  41  42
ATOM     42  O   UNL     1      44.384  21.322  21.892  0.00  0.00    -0.544 OA
ATOM     43  H   UNL     1      44.220  20.497  22.368  0.00  0.00    +0.388 HD
ENDBRANCH  41  42
BRANCH  32  33
ATOM     33  C   UNL     1      41.381  19.979  19.097  0.00  0.00    +0.389 C 
BRANCH  33  34
ATOM     34  O   UNL     1      41.750  20.471  17.808  0.00  0.00    -0.572 OA
ATOM     35  H   UNL     1      42.568  20.988  17.804  0.00  0.00    +0.392 HD
ENDBRANCH  33  34
BRANCH  33  36
ATOM     36  O   UNL     1      40.358  20.810  19.650  0.00  0.00    -0.575 OA
ATOM     37  H   UNL     1      40.591  21.207  20.499  0.00  0.00    +0.390 HD
ENDBRANCH  33  36
ENDBRANCH  32  33
ENDBRANCH  28  29
ENDBRANCH  27  28
TORSDOF 16
ENDMDL
MODEL 6
REMARK VINA RESULT:      -7.0      1.880      3.270
REMARK  Name = ZINC95486360
REMARK  17 active torsions:
REMARK  status: ('A' for Active; 'I' for Inactive)
REMARK    1  A    between atoms: C1_1  and  C2_2
REMARK    2  A    between atoms: C3_4  and  O16_52
REMARK    3  A    between atoms: C4_6  and  O15_51
REMARK    4  A    between atoms: C5_8  and  O14_50
REMARK    5  A    between atoms: C6_10  and  O2_13
REMARK    6  A    between atoms: O2_13  and  C7_14
REMARK    7  A    between atoms: C9_16  and  C13_21
REMARK    8  A    between atoms: C12_19  and  O3_20
REMARK    9  A    between atoms: C14_22  and  O13_49
REMARK   10  A    between atoms: C17_26  and  O12_48
REMARK   11  A    between atoms: C19_28  and  O6_32
REMARK   12  A    between atoms: O6_32  and  C22_33
REMARK   13  A    between atoms: C24_37  and  C27_45
REMARK   14  A    between atoms: C25_39  and  O9_44
REMARK   15  A    between atoms: C26_41  and  O8_43
REMARK   16  A    between atoms: C27_45  and  O10_46
REMARK   17  A    between atoms: C27_45  and  O11_47
REMARK                            x       y       z     vdW  Elec       q    Type
REMARK                         _______ _______ _______ _____ _____    ______ ____
ROOT
ATOM     17  C   UNL     1      46.997  15.272  19.361  0.00  0.00    +0.130 A 
ATOM     18  C   UNL     1      45.782  14.659  19.319  0.00  0.00    -0.036 A 
ATOM     21  C   UNL     1      45.616  13.494  18.526  0.00  0.00    +0.403 A 
ATOM     22  C   UNL     1      46.789  13.008  17.782  0.00  0.00    -0.290 A 
ATOM     23  C   UNL     1      46.714  11.865  16.974  0.00  0.00    +0.252 A 
ATOM     26  C   UNL     1      47.838  11.441  16.291  0.00  0.00    -0.120 A 
ATOM     27  C   UNL     1      49.033  12.144  16.406  0.00  0.00    +0.216 A 
ATOM     44  C   UNL     1      49.114  13.274  17.204  0.00  0.00    -0.033 A 
ATOM     45  C   UNL     1      47.997  13.716  17.896  0.00  0.00    +0.210 A 
ATOM     46  O   UNL     1      44.541  12.918  18.462  0.00  0.00    -0.449 OA
ATOM     47  O   UNL     1      48.059  14.819  18.672  0.00  0.00    -0.198 OA
ENDROOT
BRANCH  17  16
ATOM     14  C   UNL     1      46.202  18.432  21.228  0.00  0.00    +0.098 A 
ATOM     15  C   UNL     1      46.050  17.300  20.450  0.00  0.00    -0.001 A 
ATOM     16  C   UNL     1      47.153  16.482  20.190  0.00  0.00    -0.023 A 
ATOM     48  C   UNL     1      48.405  16.813  20.717  0.00  0.00    +0.062 A 
ATOM     49  C   UNL     1      48.548  17.945  21.492  0.00  0.00    +0.035 A 
ATOM     50  C   UNL     1      47.454  18.760  21.746  0.00  0.00    +0.104 A 
BRANCH  50  51
ATOM     51  O   UNL     1      47.602  19.876  22.505  0.00  0.00    -0.483 OA
ATOM     52  H   UNL     1      47.835  20.668  22.001  0.00  0.00    +0.391 HD
ENDBRANCH  50  51
BRANCH  14  13
ATOM     13  O   UNL     1      45.131  19.231  21.482  0.00  0.00    -0.284 OA
BRANCH  13  12
ATOM      1  C   UNL     1      45.622  23.912  20.889  0.00  0.00    +0.078 C 
ATOM      2  C   UNL     1      45.099  22.640  20.218  0.00  0.00    +0.141 C 
ATOM      3  C   UNL     1      43.604  22.797  19.922  0.00  0.00    +0.166 C 
ATOM      6  C   UNL     1      43.076  21.499  19.305  0.00  0.00    +0.200 C 
ATOM      9  C   UNL     1      43.361  20.338  20.262  0.00  0.00    +0.153 C 
ATOM     12  C   UNL     1      44.864  20.276  20.545  0.00  0.00    +0.302 C 
ATOM     53  O   UNL     1      45.297  21.525  21.088  0.00  0.00    -0.382 OA
BRANCH   3   4
ATOM      4  O   UNL     1      43.410  23.877  19.006  0.00  0.00    -0.543 OA
ATOM      5  H   UNL     1      42.948  24.637  19.386  0.00  0.00    +0.383 HD
ENDBRANCH   3   4
BRANCH   6   7
ATOM      7  O   UNL     1      41.667  21.610  19.091  0.00  0.00    -0.542 OA
ATOM      8  H   UNL     1      41.178  20.794  19.263  0.00  0.00    +0.389 HD
ENDBRANCH   6   7
BRANCH   9  10
ATOM     10  O   UNL     1      42.936  19.111  19.665  0.00  0.00    -0.551 OA
ATOM     11  H   UNL     1      43.252  18.320  20.123  0.00  0.00    +0.396 HD
ENDBRANCH   9  10
ENDBRANCH  13  12
ENDBRANCH  14  13
ENDBRANCH  17  16
BRANCH  18  19
ATOM     19  O   UNL     1      44.735  15.159  20.031  0.00  0.00    -0.447 OA
ATOM     20  H   UNL     1      43.944  14.603  20.011  0.00  0.00    +0.408 HD
ENDBRANCH  18  19
BRANCH  23  24
ATOM     24  O   UNL     1      45.548  11.181  16.863  0.00  0.00    -0.473 OA
ATOM     25  H   UNL     1      45.296  10.698  17.661  0.00  0.00    +0.406 HD
ENDBRANCH  23  24
BRANCH  27  28
ATOM     28  O   UNL     1      50.131  11.718  15.730  0.00  0.00    -0.290 OA
BRANCH  28  29
ATOM     29  C   UNL     1      50.065  11.743  14.303  0.00  0.00    +0.118 C 
ATOM     30  C   UNL     1      50.203  13.186  13.810  0.00  0.00    +0.225 C 
ATOM     31  O   UNL     1      50.195  13.202  12.381  0.00  0.00    -0.351 OA
ATOM     32  C   UNL     1      51.267  12.471  11.782  0.00  0.00    +0.138 C 
ATOM     38  C   UNL     1      51.170  10.999  12.194  0.00  0.00    +0.185 C 
ATOM     41  C   UNL     1      51.204  10.901  13.722  0.00  0.00    +0.202 C 
BRANCH  38  39
ATOM     39  O   UNL     1      52.273  10.277  11.643  0.00  0.00    -0.541 OA
ATOM     40  H   UNL     1      52.202  10.114  10.692  0.00  0.00    +0.381 HD
ENDBRANCH  38  39
BRANCH  41  42
ATOM     42  O   UNL     1      52.456  11.391  14.205  0.00  0.00    -0.544 OA
ATOM     43  H   UNL     1      53.212  11.152  13.652  0.00  0.00    +0.388 HD
ENDBRANCH  41  42
BRANCH  32  33
ATOM     33  C   UNL     1      51.172  12.583  10.259  0.00  0.00    +0.389 C 
BRANCH  33  34
ATOM     34  O   UNL     1      50.934  13.943   9.895  0.00  0.00    -0.572 OA
ATOM     35  H   UNL     1      50.130  14.076   9.374  0.00  0.00    +0.392 HD
ENDBRANCH  33  34
BRANCH  33  36
ATOM     36  O   UNL     1      50.098  11.767   9.787  0.00  0.00    -0.575 OA
ATOM     37  H   UNL     1      49.266  11.902  10.259  0.00  0.00    +0.390 HD
ENDBRANCH  33  36
ENDBRANCH  32  33
ENDBRANCH  28  29
ENDBRANCH  27  28
TORSDOF 16
ENDMDL
MODEL 7
REMARK VINA RESULT:      -7.0      2.193     10.607
REMARK  Name = ZINC95486360
REMARK  17 active torsions:
REMARK  status: ('A' for Active; 'I' for Inactive)
REMARK    1  A    between atoms: C1_1  and  C2_2
REMARK    2  A    between atoms: C3_4  and  O16_52
REMARK    3  A    between atoms: C4_6  and  O15_51
REMARK    4  A    between atoms: C5_8  and  O14_50
REMARK    5  A    between atoms: C6_10  and  O2_13
REMARK    6  A    between atoms: O2_13  and  C7_14
REMARK    7  A    between atoms: C9_16  and  C13_21
REMARK    8  A    between atoms: C12_19  and  O3_20
REMARK    9  A    between atoms: C14_22  and  O13_49
REMARK   10  A    between atoms: C17_26  and  O12_48
REMARK   11  A    between atoms: C19_28  and  O6_32
REMARK   12  A    between atoms: O6_32  and  C22_33
REMARK   13  A    between atoms: C24_37  and  C27_45
REMARK   14  A    between atoms: C25_39  and  O9_44
REMARK   15  A    between atoms: C26_41  and  O8_43
REMARK   16  A    between atoms: C27_45  and  O10_46
REMARK   17  A    between atoms: C27_45  and  O11_47
REMARK                            x       y       z     vdW  Elec       q    Type
REMARK                         _______ _______ _______ _____ _____    ______ ____
ROOT
ATOM     17  C   UNL     1      50.471  16.354  18.332  0.00  0.00    +0.130 A 
ATOM     18  C   UNL     1      51.556  16.988  17.804  0.00  0.00    -0.036 A 
ATOM     21  C   UNL     1      51.588  18.406  17.772  0.00  0.00    +0.403 A 
ATOM     22  C   UNL     1      50.425  19.122  18.321  0.00  0.00    -0.290 A 
ATOM     23  C   UNL     1      50.373  20.523  18.329  0.00  0.00    +0.252 A 
ATOM     26  C   UNL     1      49.262  21.159  18.852  0.00  0.00    -0.120 A 
ATOM     27  C   UNL     1      48.207  20.413  19.367  0.00  0.00    +0.216 A 
ATOM     44  C   UNL     1      48.253  19.028  19.363  0.00  0.00    -0.033 A 
ATOM     45  C   UNL     1      49.358  18.371  18.841  0.00  0.00    +0.210 A 
ATOM     46  O   UNL     1      52.542  19.009  17.307  0.00  0.00    -0.449 OA
ATOM     47  O   UNL     1      49.414  17.023  18.824  0.00  0.00    -0.198 OA
ENDROOT
BRANCH  17  16
ATOM     14  C   UNL     1      49.542  12.795  17.578  0.00  0.00    +0.098 A 
ATOM     15  C   UNL     1      49.554  14.176  17.551  0.00  0.00    -0.001 A 
ATOM     16  C   UNL     1      50.453  14.880  18.357  0.00  0.00    -0.023 A 
ATOM     48  C   UNL     1      51.336  14.183  19.188  0.00  0.00    +0.062 A 
ATOM     49  C   UNL     1      51.317  12.805  19.210  0.00  0.00    +0.035 A 
ATOM     50  C   UNL     1      50.421  12.106  18.413  0.00  0.00    +0.104 A 
BRANCH  50  51
ATOM     51  O   UNL     1      50.403  10.748  18.442  0.00  0.00    -0.483 OA
ATOM     52  H   UNL     1      50.947  10.363  19.144  0.00  0.00    +0.391 HD
ENDBRANCH  50  51
BRANCH  14  13
ATOM     13  O   UNL     1      48.668  12.107  16.796  0.00  0.00    -0.284 OA
BRANCH  13  12
ATOM      1  C   UNL     1      52.506  10.440  14.561  0.00  0.00    +0.078 C 
ATOM      2  C   UNL     1      51.053  10.868  14.346  0.00  0.00    +0.141 C 
ATOM      3  C   UNL     1      51.003  12.012  13.329  0.00  0.00    +0.166 C 
ATOM      6  C   UNL     1      49.553  12.475  13.164  0.00  0.00    +0.200 C 
ATOM      9  C   UNL     1      49.001  12.888  14.532  0.00  0.00    +0.153 C 
ATOM     12  C   UNL     1      49.128  11.711  15.503  0.00  0.00    +0.302 C 
ATOM     53  O   UNL     1      50.497  11.309  15.586  0.00  0.00    -0.382 OA
BRANCH   3   4
ATOM      4  O   UNL     1      51.506  11.555  12.071  0.00  0.00    -0.543 OA
ATOM      5  H   UNL     1      51.273  12.125  11.325  0.00  0.00    +0.383 HD
ENDBRANCH   3   4
BRANCH   6   7
ATOM      7  O   UNL     1      49.504  13.589  12.271  0.00  0.00    -0.542 OA
ATOM      8  H   UNL     1      48.610  13.905  12.083  0.00  0.00    +0.389 HD
ENDBRANCH   6   7
BRANCH   9  10
ATOM     10  O   UNL     1      47.626  13.255  14.402  0.00  0.00    -0.551 OA
ATOM     11  H   UNL     1      47.120  12.681  13.809  0.00  0.00    +0.396 HD
ENDBRANCH   9  10
ENDBRANCH  13  12
ENDBRANCH  14  13
ENDBRANCH  17  16
BRANCH  18  19
ATOM     19  O   UNL     1      52.600  16.267  17.313  0.00  0.00    -0.447 OA
ATOM     20  H   UNL     1      52.541  16.085  16.366  0.00  0.00    +0.408 HD
ENDBRANCH  18  19
BRANCH  23  24
ATOM     24  O   UNL     1      51.402  21.249  17.826  0.00  0.00    -0.473 OA
ATOM     25  H   UNL     1      51.873  20.816  17.101  0.00  0.00    +0.406 HD
ENDBRANCH  23  24
BRANCH  27  28
ATOM     28  O   UNL     1      47.121  21.048  19.879  0.00  0.00    -0.290 OA
BRANCH  28  29
ATOM     29  C   UNL     1      45.929  20.275  20.026  0.00  0.00    +0.118 C 
ATOM     30  C   UNL     1      45.306  20.551  21.397  0.00  0.00    +0.225 C 
ATOM     31  O   UNL     1      44.083  19.823  21.519  0.00  0.00    -0.351 OA
ATOM     32  C   UNL     1      43.093  20.178  20.552  0.00  0.00    +0.138 C 
ATOM     38  C   UNL     1      43.627  19.886  19.147  0.00  0.00    +0.185 C 
ATOM     41  C   UNL     1      44.930  20.663  18.932  0.00  0.00    +0.202 C 
BRANCH  38  39
ATOM     39  O   UNL     1      42.660  20.293  18.176  0.00  0.00    -0.541 OA
ATOM     40  H   UNL     1      41.766  19.969  18.349  0.00  0.00    +0.381 HD
ENDBRANCH  38  39
BRANCH  41  42
ATOM     42  O   UNL     1      44.666  22.065  18.999  0.00  0.00    -0.544 OA
ATOM     43  H   UNL     1      44.428  22.462  18.151  0.00  0.00    +0.388 HD
ENDBRANCH  41  42
BRANCH  32  33
ATOM     33  C   UNL     1      41.823  19.359  20.796  0.00  0.00    +0.389 C 
BRANCH  33  34
ATOM     34  O   UNL     1      40.695  20.063  20.276  0.00  0.00    -0.572 OA
ATOM     35  H   UNL     1      40.540  19.916  19.333  0.00  0.00    +0.392 HD
ENDBRANCH  33  34
BRANCH  33  36
ATOM     36  O   UNL     1      41.652  19.153  22.200  0.00  0.00    -0.575 OA
ATOM     37  H   UNL     1      41.756  19.954  22.730  0.00  0.00    +0.390 HD
ENDBRANCH  33  36
ENDBRANCH  32  33
ENDBRANCH  28  29
ENDBRANCH  27  28
TORSDOF 16
ENDMDL
MODEL 8
REMARK VINA RESULT:      -7.0      1.856      3.447
REMARK  Name = ZINC95486360
REMARK  17 active torsions:
REMARK  status: ('A' for Active; 'I' for Inactive)
REMARK    1  A    between atoms: C1_1  and  C2_2
REMARK    2  A    between atoms: C3_4  and  O16_52
REMARK    3  A    between atoms: C4_6  and  O15_51
REMARK    4  A    between atoms: C5_8  and  O14_50
REMARK    5  A    between atoms: C6_10  and  O2_13
REMARK    6  A    between atoms: O2_13  and  C7_14
REMARK    7  A    between atoms: C9_16  and  C13_21
REMARK    8  A    between atoms: C12_19  and  O3_20
REMARK    9  A    between atoms: C14_22  and  O13_49
REMARK   10  A    between atoms: C17_26  and  O12_48
REMARK   11  A    between atoms: C19_28  and  O6_32
REMARK   12  A    between atoms: O6_32  and  C22_33
REMARK   13  A    between atoms: C24_37  and  C27_45
REMARK   14  A    between atoms: C25_39  and  O9_44
REMARK   15  A    between atoms: C26_41  and  O8_43
REMARK   16  A    between atoms: C27_45  and  O10_46
REMARK   17  A    between atoms: C27_45  and  O11_47
REMARK                            x       y       z     vdW  Elec       q    Type
REMARK                         _______ _______ _______ _____ _____    ______ ____
ROOT
ATOM     17  C   UNL     1      50.329  16.720  19.006  0.00  0.00    +0.130 A 
ATOM     18  C   UNL     1      51.394  16.347  19.769  0.00  0.00    -0.036 A 
ATOM     21  C   UNL     1      52.078  15.141  19.471  0.00  0.00    +0.403 A 
ATOM     22  C   UNL     1      51.586  14.347  18.333  0.00  0.00    -0.290 A 
ATOM     23  C   UNL     1      52.202  13.142  17.969  0.00  0.00    +0.252 A 
ATOM     26  C   UNL     1      51.710  12.424  16.894  0.00  0.00    -0.120 A 
ATOM     27  C   UNL     1      50.613  12.897  16.182  0.00  0.00    +0.216 A 
ATOM     44  C   UNL     1      50.000  14.089  16.536  0.00  0.00    -0.033 A 
ATOM     45  C   UNL     1      50.478  14.822  17.612  0.00  0.00    +0.210 A 
ATOM     46  O   UNL     1      53.036  14.774  20.133  0.00  0.00    -0.449 OA
ATOM     47  O   UNL     1      49.888  15.981  17.973  0.00  0.00    -0.198 OA
ENDROOT
BRANCH  17  16
ATOM     14  C   UNL     1      47.890  19.148  20.509  0.00  0.00    +0.098 A 
ATOM     15  C   UNL     1      48.542  17.968  20.209  0.00  0.00    -0.001 A 
ATOM     16  C   UNL     1      49.628  17.977  19.329  0.00  0.00    -0.023 A 
ATOM     48  C   UNL     1      50.049  19.180  18.756  0.00  0.00    +0.062 A 
ATOM     49  C   UNL     1      49.393  20.354  19.059  0.00  0.00    +0.035 A 
ATOM     50  C   UNL     1      48.312  20.344  19.929  0.00  0.00    +0.104 A 
BRANCH  50  51
ATOM     51  O   UNL     1      47.666  21.503  20.221  0.00  0.00    -0.483 OA
ATOM     52  H   UNL     1      46.702  21.444  20.156  0.00  0.00    +0.391 HD
ENDBRANCH  50  51
BRANCH  14  13
ATOM     13  O   UNL     1      46.833  19.143  21.364  0.00  0.00    -0.284 OA
BRANCH  13  12
ATOM      1  C   UNL     1      43.095  21.322  19.418  0.00  0.00    +0.078 C 
ATOM      2  C   UNL     1      43.643  19.950  19.816  0.00  0.00    +0.141 C 
ATOM      3  C   UNL     1      42.690  19.290  20.818  0.00  0.00    +0.166 C 
ATOM      6  C   UNL     1      43.275  17.945  21.256  0.00  0.00    +0.200 C 
ATOM      9  C   UNL     1      44.671  18.173  21.844  0.00  0.00    +0.153 C 
ATOM     12  C   UNL     1      45.547  18.875  20.803  0.00  0.00    +0.302 C 
ATOM     53  O   UNL     1      44.930  20.105  20.415  0.00  0.00    -0.382 OA
BRANCH   3   4
ATOM      4  O   UNL     1      41.418  19.082  20.201  0.00  0.00    -0.543 OA
ATOM      5  H   UNL     1      40.686  19.001  20.828  0.00  0.00    +0.383 HD
ENDBRANCH   3   4
BRANCH   6   7
ATOM      7  O   UNL     1      42.428  17.355  22.245  0.00  0.00    -0.542 OA
ATOM      8  H   UNL     1      42.852  17.237  23.106  0.00  0.00    +0.389 HD
ENDBRANCH   6   7
BRANCH   9  10
ATOM     10  O   UNL     1      45.254  16.916  22.191  0.00  0.00    -0.551 OA
ATOM     11  H   UNL     1      46.076  16.720  21.720  0.00  0.00    +0.396 HD
ENDBRANCH   9  10
ENDBRANCH  13  12
ENDBRANCH  14  13
ENDBRANCH  17  16
BRANCH  18  19
ATOM     19  O   UNL     1      51.799  17.127  20.808  0.00  0.00    -0.447 OA
ATOM     20  H   UNL     1      52.520  16.746  21.328  0.00  0.00    +0.408 HD
ENDBRANCH  18  19
BRANCH  23  24
ATOM     24  O   UNL     1      53.271  12.681  18.666  0.00  0.00    -0.473 OA
ATOM     25  H   UNL     1      53.318  13.005  19.575  0.00  0.00    +0.406 HD
ENDBRANCH  23  24
BRANCH  27  28
ATOM     28  O   UNL     1      50.138  12.184  15.128  0.00  0.00    -0.290 OA
BRANCH  28  29
ATOM     29  C   UNL     1      50.857  12.290  13.898  0.00  0.00    +0.118 C 
ATOM     30  C   UNL     1      50.951  10.910  13.241  0.00  0.00    +0.225 C 
ATOM     31  O   UNL     1      51.619  11.027  11.983  0.00  0.00    -0.351 OA
ATOM     32  C   UNL     1      50.952  11.872  11.043  0.00  0.00    +0.138 C 
ATOM     38  C   UNL     1      50.859  13.291  11.613  0.00  0.00    +0.185 C 
ATOM     41  C   UNL     1      50.122  13.248  12.955  0.00  0.00    +0.202 C 
BRANCH  38  39
ATOM     39  O   UNL     1      50.142  14.125  10.700  0.00  0.00    -0.541 OA
ATOM     40  H   UNL     1      50.540  14.181   9.821  0.00  0.00    +0.381 HD
ENDBRANCH  38  39
BRANCH  41  42
ATOM     42  O   UNL     1      48.785  12.787  12.752  0.00  0.00    -0.544 OA
ATOM     43  H   UNL     1      48.519  12.750  11.824  0.00  0.00    +0.388 HD
ENDBRANCH  41  42
BRANCH  32  33
ATOM     33  C   UNL     1      51.739  11.899   9.731  0.00  0.00    +0.389 C 
BRANCH  33  34
ATOM     34  O   UNL     1      50.837  11.758   8.633  0.00  0.00    -0.572 OA
ATOM     35  H   UNL     1      51.208  11.279   7.879  0.00  0.00    +0.392 HD
ENDBRANCH  33  34
BRANCH  33  36
ATOM     36  O   UNL     1      52.680  10.824   9.718  0.00  0.00    -0.575 OA
ATOM     37  H   UNL     1      53.511  11.023  10.168  0.00  0.00    +0.390 HD
ENDBRANCH  33  36
ENDBRANCH  32  33
ENDBRANCH  28  29
ENDBRANCH  27  28
TORSDOF 16
ENDMDL
MODEL 9
REMARK VINA RESULT:      -6.8      3.028     10.030
REMARK  Name = ZINC95486360
REMARK  17 active torsions:
REMARK  status: ('A' for Active; 'I' for Inactive)
REMARK    1  A    between atoms: C1_1  and  C2_2
REMARK    2  A    between atoms: C3_4  and  O16_52
REMARK    3  A    between atoms: C4_6  and  O15_51
REMARK    4  A    between atoms: C5_8  and  O14_50
REMARK    5  A    between atoms: C6_10  and  O2_13
REMARK    6  A    between atoms: O2_13  and  C7_14
REMARK    7  A    between atoms: C9_16  and  C13_21
REMARK    8  A    between atoms: C12_19  and  O3_20
REMARK    9  A    between atoms: C14_22  and  O13_49
REMARK   10  A    between atoms: C17_26  and  O12_48
REMARK   11  A    between atoms: C19_28  and  O6_32
REMARK   12  A    between atoms: O6_32  and  C22_33
REMARK   13  A    between atoms: C24_37  and  C27_45
REMARK   14  A    between atoms: C25_39  and  O9_44
REMARK   15  A    between atoms: C26_41  and  O8_43
REMARK   16  A    between atoms: C27_45  and  O10_46
REMARK   17  A    between atoms: C27_45  and  O11_47
REMARK                            x       y       z     vdW  Elec       q    Type
REMARK                         _______ _______ _______ _____ _____    ______ ____
ROOT
ATOM     17  C   UNL     1      50.418  16.412  17.552  0.00  0.00    +0.130 A 
ATOM     18  C   UNL     1      51.403  17.252  17.127  0.00  0.00    -0.036 A 
ATOM     21  C   UNL     1      51.322  18.634  17.436  0.00  0.00    +0.403 A 
ATOM     22  C   UNL     1      50.158  19.088  18.212  0.00  0.00    -0.290 A 
ATOM     23  C   UNL     1      49.999  20.436  18.561  0.00  0.00    +0.252 A 
ATOM     26  C   UNL     1      48.890  20.824  19.290  0.00  0.00    -0.120 A 
ATOM     27  C   UNL     1      47.942  19.882  19.675  0.00  0.00    +0.216 A 
ATOM     44  C   UNL     1      48.094  18.547  19.334  0.00  0.00    -0.033 A 
ATOM     45  C   UNL     1      49.199  18.139  18.602  0.00  0.00    +0.210 A 
ATOM     46  O   UNL     1      52.186  19.417  17.070  0.00  0.00    -0.449 OA
ATOM     47  O   UNL     1      49.357  16.844  18.257  0.00  0.00    -0.198 OA
ENDROOT
BRANCH  17  16
ATOM     14  C   UNL     1      49.975  12.687  17.716  0.00  0.00    +0.098 A 
ATOM     15  C   UNL     1      49.881  14.029  18.030  0.00  0.00    -0.001 A 
ATOM     16  C   UNL     1      50.516  14.978  17.223  0.00  0.00    -0.023 A 
ATOM     48  C   UNL     1      51.243  14.565  16.103  0.00  0.00    +0.062 A 
ATOM     49  C   UNL     1      51.333  13.223  15.797  0.00  0.00    +0.035 A 
ATOM     50  C   UNL     1      50.707  12.281  16.601  0.00  0.00    +0.104 A 
BRANCH  50  51
ATOM     51  O   UNL     1      50.803  10.960  16.298  0.00  0.00    -0.483 OA
ATOM     52  H   UNL     1      51.697  10.674  16.064  0.00  0.00    +0.391 HD
ENDBRANCH  50  51
BRANCH  14  13
ATOM     13  O   UNL     1      49.360  11.761  18.500  0.00  0.00    -0.284 OA
BRANCH  13  12
ATOM      1  C   UNL     1      46.233  10.832  15.055  0.00  0.00    +0.078 C 
ATOM      2  C   UNL     1      46.361  11.081  16.560  0.00  0.00    +0.141 C 
ATOM      3  C   UNL     1      45.514  12.296  16.950  0.00  0.00    +0.166 C 
ATOM      6  C   UNL     1      45.694  12.574  18.445  0.00  0.00    +0.200 C 
ATOM      9  C   UNL     1      47.183  12.784  18.740  0.00  0.00    +0.153 C 
ATOM     12  C   UNL     1      47.965  11.550  18.280  0.00  0.00    +0.302 C 
ATOM     53  O   UNL     1      47.729  11.329  16.888  0.00  0.00    -0.382 OA
BRANCH   3   4
ATOM      4  O   UNL     1      44.138  12.028  16.675  0.00  0.00    -0.543 OA
ATOM      5  H   UNL     1      43.877  11.110  16.836  0.00  0.00    +0.383 HD
ENDBRANCH   3   4
BRANCH   6   7
ATOM      7  O   UNL     1      44.964  13.750  18.804  0.00  0.00    -0.542 OA
ATOM      8  H   UNL     1      45.481  14.565  18.750  0.00  0.00    +0.389 HD
ENDBRANCH   6   7
BRANCH   9  10
ATOM     10  O   UNL     1      47.370  12.974  20.143  0.00  0.00    -0.551 OA
ATOM     11  H   UNL     1      47.480  13.899  20.404  0.00  0.00    +0.396 HD
ENDBRANCH   9  10
ENDBRANCH  13  12
ENDBRANCH  14  13
ENDBRANCH  17  16
BRANCH  18  19
ATOM     19  O   UNL     1      52.455  16.769  16.412  0.00  0.00    -0.447 OA
ATOM     20  H   UNL     1      52.627  17.249  15.591  0.00  0.00    +0.408 HD
ENDBRANCH  18  19
BRANCH  23  24
ATOM     24  O   UNL     1      50.924  21.355  18.184  0.00  0.00    -0.473 OA
ATOM     25  H   UNL     1      51.769  21.276  18.648  0.00  0.00    +0.406 HD
ENDBRANCH  23  24
BRANCH  27  28
ATOM     28  O   UNL     1      46.857  20.273  20.392  0.00  0.00    -0.290 OA
BRANCH  28  29
ATOM     29  C   UNL     1      45.578  20.097  19.779  0.00  0.00    +0.118 C 
ATOM     30  C   UNL     1      44.800  19.010  20.524  0.00  0.00    +0.225 C 
ATOM     31  O   UNL     1      43.499  18.877  19.947  0.00  0.00    -0.351 OA
ATOM     32  C   UNL     1      42.703  20.061  20.022  0.00  0.00    +0.138 C 
ATOM     38  C   UNL     1      43.398  21.190  19.256  0.00  0.00    +0.185 C 
ATOM     41  C   UNL     1      44.795  21.412  19.844  0.00  0.00    +0.202 C 
BRANCH  38  39
ATOM     39  O   UNL     1      42.631  22.391  19.377  0.00  0.00    -0.541 OA
ATOM     40  H   UNL     1      41.676  22.247  19.408  0.00  0.00    +0.381 HD
ENDBRANCH  38  39
BRANCH  41  42
ATOM     42  O   UNL     1      44.680  21.834  21.203  0.00  0.00    -0.544 OA
ATOM     43  H   UNL     1      44.723  21.113  21.845  0.00  0.00    +0.388 HD
ENDBRANCH  41  42
BRANCH  32  33
ATOM     33  C   UNL     1      41.330  19.793  19.402  0.00  0.00    +0.389 C 
BRANCH  33  34
ATOM     34  O   UNL     1      41.382  20.054  17.999  0.00  0.00    -0.572 OA
ATOM     35  H   UNL     1      42.062  19.551  17.530  0.00  0.00    +0.392 HD
ENDBRANCH  33  34
BRANCH  33  36
ATOM     36  O   UNL     1      40.358  20.646  20.010  0.00  0.00    -0.575 OA
ATOM     37  H   UNL     1      39.587  20.179  20.358  0.00  0.00    +0.390 HD
ENDBRANCH  33  36
ENDBRANCH  32  33
ENDBRANCH  28  29
ENDBRANCH  27  28
TORSDOF 16
ENDMDL
