MODEL 1
REMARK VINA RESULT:      -5.4      0.000      0.000
REMARK  Name = ZINC00120276
REMARK  0 active torsions:
REMARK  status: ('A' for Active; 'I' for Inactive)
REMARK                            x       y       z     vdW  Elec       q    Type
REMARK                         _______ _______ _______ _____ _____    ______ ____
ROOT
ATOM      1  C   UNL     1      46.418  23.185  21.378  0.00  0.00    +0.044 A 
ATOM      2  C   UNL     1      46.632  21.901  21.847  0.00  0.00    +0.046 A 
ATOM      3  C   UNL     1      45.726  20.893  21.567  0.00  0.00    +0.079 A 
ATOM      4  C   UNL     1      44.593  21.169  20.807  0.00  0.00    -0.119 A 
ATOM      5  C   UNL     1      44.377  22.474  20.330  0.00  0.00    -0.123 A 
ATOM      6  C   UNL     1      43.176  22.778  19.522  0.00  0.00    +0.436 C 
ATOM      7  C   UNL     1      42.206  21.705  19.221  0.00  0.00    -0.073 A 
ATOM      8  C   UNL     1      41.066  21.954  18.463  0.00  0.00    +0.035 A 
ATOM      9  C   UNL     1      40.191  20.906  18.211  0.00  0.00    +0.306 A 
ATOM     10  N   UNL     1      40.426  19.695  18.674  0.00  0.00    -0.469 NA
ATOM     11  C   UNL     1      41.492  19.408  19.396  0.00  0.00    +0.336 A 
ATOM     12  C   UNL     1      42.423  20.398  19.698  0.00  0.00    -0.178 A 
ATOM     13  O   UNL     1      42.987  23.904  19.110  0.00  0.00    -0.417 OA
ATOM     14  C   UNL     1      43.621  20.097  20.504  0.00  0.00    +0.441 C 
ATOM     15  O   UNL     1      43.810  18.969  20.917  0.00  0.00    -0.422 OA
ATOM     16  C   UNL     1      45.294  23.478  20.627  0.00  0.00    +0.079 A 
ENDROOT
TORSDOF 0
ENDMDL
MODEL 2
REMARK VINA RESULT:      -5.3      2.054      4.617
REMARK  Name = ZINC00120276
REMARK  0 active torsions:
REMARK  status: ('A' for Active; 'I' for Inactive)
REMARK                            x       y       z     vdW  Elec       q    Type
REMARK                         _______ _______ _______ _____ _____    ______ ____
ROOT
ATOM      1  C   UNL     1      40.534  21.707  18.465  0.00  0.00    +0.044 A 
ATOM      2  C   UNL     1      40.372  20.350  18.677  0.00  0.00    +0.046 A 
ATOM      3  C   UNL     1      41.390  19.602  19.242  0.00  0.00    +0.079 A 
ATOM      4  C   UNL     1      42.586  20.217  19.601  0.00  0.00    -0.119 A 
ATOM      5  C   UNL     1      42.751  21.597  19.385  0.00  0.00    -0.123 A 
ATOM      6  C   UNL     1      44.018  22.260  19.763  0.00  0.00    +0.436 C 
ATOM      7  C   UNL     1      45.108  21.465  20.366  0.00  0.00    -0.073 A 
ATOM      8  C   UNL     1      46.312  22.056  20.735  0.00  0.00    +0.035 A 
ATOM      9  C   UNL     1      47.300  21.259  21.298  0.00  0.00    +0.306 A 
ATOM     10  N   UNL     1      47.112  19.969  21.486  0.00  0.00    -0.469 NA
ATOM     11  C   UNL     1      45.987  19.363  21.155  0.00  0.00    +0.336 A 
ATOM     12  C   UNL     1      44.943  20.084  20.583  0.00  0.00    -0.178 A 
ATOM     13  O   UNL     1      44.162  23.451  19.577  0.00  0.00    -0.417 OA
ATOM     14  C   UNL     1      43.679  19.424  20.205  0.00  0.00    +0.441 C 
ATOM     15  O   UNL     1      43.535  18.232  20.391  0.00  0.00    -0.422 OA
ATOM     16  C   UNL     1      41.719  22.333  18.809  0.00  0.00    +0.079 A 
ENDROOT
TORSDOF 0
ENDMDL
MODEL 3
REMARK VINA RESULT:      -5.2      2.112      5.336
REMARK  Name = ZINC00120276
REMARK  0 active torsions:
REMARK  status: ('A' for Active; 'I' for Inactive)
REMARK                            x       y       z     vdW  Elec       q    Type
REMARK                         _______ _______ _______ _____ _____    ______ ____
ROOT
ATOM      1  C   UNL     1      40.394  20.280  18.715  0.00  0.00    +0.044 A 
ATOM      2  C   UNL     1      40.559  21.630  18.464  0.00  0.00    +0.046 A 
ATOM      3  C   UNL     1      41.736  22.269  18.812  0.00  0.00    +0.079 A 
ATOM      4  C   UNL     1      42.762  21.550  19.419  0.00  0.00    -0.119 A 
ATOM      5  C   UNL     1      42.594  20.177  19.674  0.00  0.00    -0.123 A 
ATOM      6  C   UNL     1      43.679  19.405  20.317  0.00  0.00    +0.436 C 
ATOM      7  C   UNL     1      44.937  20.083  20.692  0.00  0.00    -0.073 A 
ATOM      8  C   UNL     1      45.979  19.388  21.298  0.00  0.00    +0.035 A 
ATOM      9  C   UNL     1      47.138  20.078  21.626  0.00  0.00    +0.306 A 
ATOM     10  N   UNL     1      47.261  21.365  21.373  0.00  0.00    -0.469 NA
ATOM     11  C   UNL     1      46.303  22.067  20.799  0.00  0.00    +0.336 A 
ATOM     12  C   UNL     1      45.106  21.457  20.437  0.00  0.00    -0.178 A 
ATOM     13  O   UNL     1      43.535  18.220  20.538  0.00  0.00    -0.417 OA
ATOM     14  C   UNL     1      44.023  22.226  19.794  0.00  0.00    +0.441 C 
ATOM     15  O   UNL     1      44.167  23.413  19.574  0.00  0.00    -0.422 OA
ATOM     16  C   UNL     1      41.401  19.552  19.323  0.00  0.00    +0.079 A 
ENDROOT
TORSDOF 0
ENDMDL
MODEL 4
REMARK VINA RESULT:      -5.1      1.136      2.916
REMARK  Name = ZINC00120276
REMARK  0 active torsions:
REMARK  status: ('A' for Active; 'I' for Inactive)
REMARK                            x       y       z     vdW  Elec       q    Type
REMARK                         _______ _______ _______ _____ _____    ______ ____
ROOT
ATOM      1  C   UNL     1      47.227  20.016  21.364  0.00  0.00    +0.044 A 
ATOM      2  C   UNL     1      47.375  21.381  21.195  0.00  0.00    +0.046 A 
ATOM      3  C   UNL     1      46.345  22.137  20.664  0.00  0.00    +0.079 A 
ATOM      4  C   UNL     1      45.151  21.523  20.297  0.00  0.00    -0.119 A 
ATOM      5  C   UNL     1      45.001  20.135  20.469  0.00  0.00    -0.123 A 
ATOM      6  C   UNL     1      43.736  19.473  20.083  0.00  0.00    +0.436 C 
ATOM      7  C   UNL     1      42.633  20.276  19.515  0.00  0.00    -0.073 A 
ATOM      8  C   UNL     1      41.430  19.687  19.141  0.00  0.00    +0.035 A 
ATOM      9  C   UNL     1      40.429  20.492  18.614  0.00  0.00    +0.306 A 
ATOM     10  N   UNL     1      40.604  21.790  18.467  0.00  0.00    -0.469 NA
ATOM     11  C   UNL     1      41.726  22.395  18.807  0.00  0.00    +0.336 A 
ATOM     12  C   UNL     1      42.783  21.665  19.342  0.00  0.00    -0.178 A 
ATOM     13  O   UNL     1      43.605  18.275  20.231  0.00  0.00    -0.417 OA
ATOM     14  C   UNL     1      44.046  22.324  19.728  0.00  0.00    +0.441 C 
ATOM     15  O   UNL     1      44.176  23.523  19.580  0.00  0.00    -0.422 OA
ATOM     16  C   UNL     1      46.050  19.388  20.999  0.00  0.00    +0.079 A 
ENDROOT
TORSDOF 0
ENDMDL
MODEL 5
REMARK VINA RESULT:      -5.0     21.092     22.587
REMARK  Name = ZINC00120276
REMARK  0 active torsions:
REMARK  status: ('A' for Active; 'I' for Inactive)
REMARK                            x       y       z     vdW  Elec       q    Type
REMARK                         _______ _______ _______ _____ _____    ______ ____
ROOT
ATOM      1  C   UNL     1      51.756  33.969   6.643  0.00  0.00    +0.044 A 
ATOM      2  C   UNL     1      51.113  33.321   5.605  0.00  0.00    +0.046 A 
ATOM      3  C   UNL     1      51.843  32.700   4.606  0.00  0.00    +0.079 A 
ATOM      4  C   UNL     1      53.234  32.726   4.646  0.00  0.00    -0.119 A 
ATOM      5  C   UNL     1      53.888  33.385   5.702  0.00  0.00    -0.123 A 
ATOM      6  C   UNL     1      55.366  33.418   5.754  0.00  0.00    +0.436 C 
ATOM      7  C   UNL     1      56.150  32.756   4.689  0.00  0.00    -0.073 A 
ATOM      8  C   UNL     1      57.541  32.766   4.706  0.00  0.00    +0.035 A 
ATOM      9  C   UNL     1      58.224  32.127   3.680  0.00  0.00    +0.306 A 
ATOM     10  N   UNL     1      57.579  31.519   2.706  0.00  0.00    -0.469 NA
ATOM     11  C   UNL     1      56.261  31.481   2.646  0.00  0.00    +0.336 A 
ATOM     12  C   UNL     1      55.495  32.096   3.632  0.00  0.00    -0.178 A 
ATOM     13  O   UNL     1      55.932  33.986   6.665  0.00  0.00    -0.417 OA
ATOM     14  C   UNL     1      54.021  32.065   3.583  0.00  0.00    +0.441 C 
ATOM     15  O   UNL     1      53.455  31.495   2.670  0.00  0.00    -0.422 OA
ATOM     16  C   UNL     1      53.138  34.010   6.695  0.00  0.00    +0.079 A 
ENDROOT
TORSDOF 0
ENDMDL
MODEL 6
REMARK VINA RESULT:      -4.9     21.038     22.344
REMARK  Name = ZINC00120276
REMARK  0 active torsions:
REMARK  status: ('A' for Active; 'I' for Inactive)
REMARK                            x       y       z     vdW  Elec       q    Type
REMARK                         _______ _______ _______ _____ _____    ______ ____
ROOT
ATOM      1  C   UNL     1      57.676  31.443   2.901  0.00  0.00    +0.044 A 
ATOM      2  C   UNL     1      58.268  32.115   3.955  0.00  0.00    +0.046 A 
ATOM      3  C   UNL     1      57.490  32.771   4.893  0.00  0.00    +0.079 A 
ATOM      4  C   UNL     1      56.103  32.757   4.777  0.00  0.00    -0.119 A 
ATOM      5  C   UNL     1      55.501  32.074   3.705  0.00  0.00    -0.123 A 
ATOM      6  C   UNL     1      54.029  32.052   3.574  0.00  0.00    +0.436 C 
ATOM      7  C   UNL     1      53.194  32.753   4.573  0.00  0.00    -0.073 A 
ATOM      8  C   UNL     1      51.806  32.753   4.481  0.00  0.00    +0.035 A 
ATOM      9  C   UNL     1      51.074  33.427   5.449  0.00  0.00    +0.306 A 
ATOM     10  N   UNL     1      51.671  34.057   6.440  0.00  0.00    -0.469 NA
ATOM     11  C   UNL     1      52.984  34.085   6.571  0.00  0.00    +0.336 A 
ATOM     12  C   UNL     1      53.796  33.436   5.646  0.00  0.00    -0.178 A 
ATOM     13  O   UNL     1      53.508  31.463   2.649  0.00  0.00    -0.417 OA
ATOM     14  C   UNL     1      55.266  33.457   5.776  0.00  0.00    +0.441 C 
ATOM     15  O   UNL     1      55.787  34.047   6.701  0.00  0.00    -0.422 OA
ATOM     16  C   UNL     1      56.299  31.424   2.767  0.00  0.00    +0.079 A 
ENDROOT
TORSDOF 0
ENDMDL
MODEL 7
REMARK VINA RESULT:      -4.9     21.177     22.662
REMARK  Name = ZINC00120276
REMARK  0 active torsions:
REMARK  status: ('A' for Active; 'I' for Inactive)
REMARK                            x       y       z     vdW  Elec       q    Type
REMARK                         _______ _______ _______ _____ _____    ______ ____
ROOT
ATOM      1  C   UNL     1      51.184  33.380   5.635  0.00  0.00    +0.044 A 
ATOM      2  C   UNL     1      51.869  34.029   6.647  0.00  0.00    +0.046 A 
ATOM      3  C   UNL     1      53.253  34.044   6.659  0.00  0.00    +0.079 A 
ATOM      4  C   UNL     1      53.962  33.403   5.647  0.00  0.00    -0.119 A 
ATOM      5  C   UNL     1      53.266  32.743   4.619  0.00  0.00    -0.123 A 
ATOM      6  C   UNL     1      54.010  32.059   3.539  0.00  0.00    +0.436 C 
ATOM      7  C   UNL     1      55.488  32.072   3.548  0.00  0.00    -0.073 A 
ATOM      8  C   UNL     1      56.221  31.440   2.549  0.00  0.00    +0.035 A 
ATOM      9  C   UNL     1      57.607  31.486   2.609  0.00  0.00    +0.306 A 
ATOM     10  N   UNL     1      58.228  32.114   3.587  0.00  0.00    -0.469 NA
ATOM     11  C   UNL     1      57.577  32.729   4.557  0.00  0.00    +0.336 A 
ATOM     12  C   UNL     1      56.186  32.732   4.577  0.00  0.00    -0.178 A 
ATOM     13  O   UNL     1      53.410  31.489   2.651  0.00  0.00    -0.417 OA
ATOM     14  C   UNL     1      55.441  33.414   5.653  0.00  0.00    +0.441 C 
ATOM     15  O   UNL     1      56.042  33.985   6.542  0.00  0.00    -0.422 OA
ATOM     16  C   UNL     1      51.874  32.732   4.626  0.00  0.00    +0.079 A 
ENDROOT
TORSDOF 0
ENDMDL
MODEL 8
REMARK VINA RESULT:      -4.9      6.442      7.720
REMARK  Name = ZINC00120276
REMARK  0 active torsions:
REMARK  status: ('A' for Active; 'I' for Inactive)
REMARK                            x       y       z     vdW  Elec       q    Type
REMARK                         _______ _______ _______ _____ _____    ______ ____
ROOT
ATOM      1  C   UNL     1      51.831  21.049  16.453  0.00  0.00    +0.044 A 
ATOM      2  C   UNL     1      52.076  19.882  15.751  0.00  0.00    +0.046 A 
ATOM      3  C   UNL     1      51.506  18.688  16.156  0.00  0.00    +0.079 A 
ATOM      4  C   UNL     1      50.679  18.658  17.274  0.00  0.00    -0.119 A 
ATOM      5  C   UNL     1      50.429  19.844  17.988  0.00  0.00    -0.123 A 
ATOM      6  C   UNL     1      49.551  19.823  19.178  0.00  0.00    +0.436 C 
ATOM      7  C   UNL     1      48.940  18.549  19.614  0.00  0.00    -0.073 A 
ATOM      8  C   UNL     1      48.109  18.492  20.727  0.00  0.00    +0.035 A 
ATOM      9  C   UNL     1      47.562  17.268  21.089  0.00  0.00    +0.306 A 
ATOM     10  N   UNL     1      47.818  16.176  20.397  0.00  0.00    -0.469 NA
ATOM     11  C   UNL     1      48.599  16.179  19.333  0.00  0.00    +0.336 A 
ATOM     12  C   UNL     1      49.190  17.362  18.900  0.00  0.00    -0.178 A 
ATOM     13  O   UNL     1      49.335  20.846  19.794  0.00  0.00    -0.417 OA
ATOM     14  C   UNL     1      50.066  17.385  17.713  0.00  0.00    +0.441 C 
ATOM     15  O   UNL     1      50.282  16.360  17.096  0.00  0.00    -0.422 OA
ATOM     16  C   UNL     1      51.016  21.036  17.571  0.00  0.00    +0.079 A 
ENDROOT
TORSDOF 0
ENDMDL
MODEL 9
REMARK VINA RESULT:      -4.9      6.491      8.059
REMARK  Name = ZINC00120276
REMARK  0 active torsions:
REMARK  status: ('A' for Active; 'I' for Inactive)
REMARK                            x       y       z     vdW  Elec       q    Type
REMARK                         _______ _______ _______ _____ _____    ______ ____
ROOT
ATOM      1  C   UNL     1      52.111  19.935  15.752  0.00  0.00    +0.044 A 
ATOM      2  C   UNL     1      51.838  21.095  16.454  0.00  0.00    +0.046 A 
ATOM      3  C   UNL     1      51.014  21.064  17.566  0.00  0.00    +0.079 A 
ATOM      4  C   UNL     1      50.456  19.859  17.981  0.00  0.00    -0.119 A 
ATOM      5  C   UNL     1      50.733  18.679  17.267  0.00  0.00    -0.123 A 
ATOM      6  C   UNL     1      50.144  17.394  17.701  0.00  0.00    +0.436 C 
ATOM      7  C   UNL     1      49.263  17.356  18.887  0.00  0.00    -0.073 A 
ATOM      8  C   UNL     1      48.693  16.165  19.324  0.00  0.00    +0.035 A 
ATOM      9  C   UNL     1      47.874  16.190  20.445  0.00  0.00    +0.306 A 
ATOM     10  N   UNL     1      47.636  17.314  21.091  0.00  0.00    -0.469 NA
ATOM     11  C   UNL     1      48.154  18.468  20.716  0.00  0.00    +0.336 A 
ATOM     12  C   UNL     1      48.985  18.536  19.602  0.00  0.00    -0.178 A 
ATOM     13  O   UNL     1      50.382  16.375  17.085  0.00  0.00    -0.417 OA
ATOM     14  C   UNL     1      49.574  19.818  19.168  0.00  0.00    +0.441 C 
ATOM     15  O   UNL     1      49.335  20.837  19.785  0.00  0.00    -0.422 OA
ATOM     16  C   UNL     1      51.558  18.730  16.147  0.00  0.00    +0.079 A 
ENDROOT
TORSDOF 0
ENDMDL
