MODEL 1
REMARK VINA RESULT:      -6.2      0.000      0.000
REMARK  Name = ZINC01721693
REMARK  5 active torsions:
REMARK  status: ('A' for Active; 'I' for Inactive)
REMARK    1  A    between atoms: C3_3  and  O5_22
REMARK    2  A    between atoms: C6_6  and  C7_7
REMARK    3  A    between atoms: C8_9  and  O4_21
REMARK    4  A    between atoms: C11_13  and  O3_20
REMARK    5  A    between atoms: C13_15  and  O2_19
REMARK                            x       y       z     vdW  Elec       q    Type
REMARK                         _______ _______ _______ _____ _____    ______ ____
ROOT
ATOM      9  C   UNL     1      44.089  18.685  19.958  0.00  0.00    +0.236 C 
ATOM     10  C   UNL     1      44.648  19.817  20.829  0.00  0.00    +0.155 C 
ATOM     13  C   UNL     1      44.493  21.134  20.063  0.00  0.00    +0.076 C 
ATOM     14  C   UNL     1      43.090  21.243  19.520  0.00  0.00    -0.195 A 
ATOM     15  C   UNL     1      42.622  22.492  19.129  0.00  0.00    +0.160 A 
ATOM     18  C   UNL     1      41.339  22.629  18.621  0.00  0.00    -0.060 A 
ATOM     19  C   UNL     1      40.520  21.516  18.504  0.00  0.00    +0.159 A 
ATOM     22  C   UNL     1      40.986  20.272  18.895  0.00  0.00    -0.038 A 
ATOM     23  C   UNL     1      42.272  20.133  19.407  0.00  0.00    +0.162 A 
ATOM     24  O   UNL     1      42.687  18.897  19.788  0.00  0.00    -0.295 OA
ENDROOT
BRANCH   9   8
ATOM      1  C   UNL     1      45.087  16.391  20.011  0.00  0.00    +0.059 A 
ATOM      2  C   UNL     1      45.304  15.175  20.631  0.00  0.00    -0.014 A 
ATOM      3  C   UNL     1      44.756  14.928  21.881  0.00  0.00    +0.112 A 
ATOM      6  C   UNL     1      43.990  15.902  22.505  0.00  0.00    -0.017 A 
ATOM      7  C   UNL     1      43.777  17.116  21.881  0.00  0.00    +0.051 A 
ATOM      8  C   UNL     1      44.324  17.360  20.636  0.00  0.00    -0.090 A 
BRANCH   3   4
ATOM      4  O   UNL     1      44.968  13.733  22.492  0.00  0.00    -0.500 OA
ATOM      5  H   UNL     1      44.159  13.234  22.673  0.00  0.00    +0.393 HD
ENDBRANCH   3   4
ENDBRANCH   9   8
BRANCH  10  11
ATOM     11  O   UNL     1      46.030  19.578  21.102  0.00  0.00    -0.549 OA
ATOM     12  H   UNL     1      46.366  20.052  21.875  0.00  0.00    +0.386 HD
ENDBRANCH  10  11
BRANCH  15  16
ATOM     16  O   UNL     1      43.424  23.583  19.243  0.00  0.00    -0.491 OA
ATOM     17  H   UNL     1      44.368  23.377  19.250  0.00  0.00    +0.395 HD
ENDBRANCH  15  16
BRANCH  19  20
ATOM     20  O   UNL     1      39.263  21.646  18.006  0.00  0.00    -0.492 OA
ATOM     21  H   UNL     1      38.564  21.484  18.654  0.00  0.00    +0.397 HD
ENDBRANCH  19  20
TORSDOF 5
ENDMDL
MODEL 2
REMARK VINA RESULT:      -5.8      5.160      8.114
REMARK  Name = ZINC01721693
REMARK  5 active torsions:
REMARK  status: ('A' for Active; 'I' for Inactive)
REMARK    1  A    between atoms: C3_3  and  O5_22
REMARK    2  A    between atoms: C6_6  and  C7_7
REMARK    3  A    between atoms: C8_9  and  O4_21
REMARK    4  A    between atoms: C11_13  and  O3_20
REMARK    5  A    between atoms: C13_15  and  O2_19
REMARK                            x       y       z     vdW  Elec       q    Type
REMARK                         _______ _______ _______ _____ _____    ______ ____
ROOT
ATOM      9  C   UNL     1      47.891  20.219  19.402  0.00  0.00    +0.236 C 
ATOM     10  C   UNL     1      48.590  19.280  20.392  0.00  0.00    +0.155 C 
ATOM     13  C   UNL     1      49.523  18.358  19.604  0.00  0.00    +0.076 C 
ATOM     14  C   UNL     1      50.356  19.175  18.648  0.00  0.00    -0.195 A 
ATOM     15  C   UNL     1      51.511  18.610  18.118  0.00  0.00    +0.160 A 
ATOM     18  C   UNL     1      52.298  19.331  17.234  0.00  0.00    -0.060 A 
ATOM     19  C   UNL     1      51.932  20.621  16.877  0.00  0.00    +0.159 A 
ATOM     22  C   UNL     1      50.784  21.184  17.407  0.00  0.00    -0.038 A 
ATOM     23  C   UNL     1      49.994  20.463  18.296  0.00  0.00    +0.162 A 
ATOM     24  O   UNL     1      48.879  21.056  18.800  0.00  0.00    -0.295 OA
ENDROOT
BRANCH   9   8
ATOM      1  C   UNL     1      45.557  21.053  19.742  0.00  0.00    +0.059 A 
ATOM      2  C   UNL     1      44.630  21.832  20.411  0.00  0.00    -0.014 A 
ATOM      3  C   UNL     1      45.033  22.627  21.473  0.00  0.00    +0.112 A 
ATOM      6  C   UNL     1      46.365  22.640  21.862  0.00  0.00    -0.017 A 
ATOM      7  C   UNL     1      47.286  21.861  21.190  0.00  0.00    +0.051 A 
ATOM      8  C   UNL     1      46.883  21.069  20.132  0.00  0.00    -0.090 A 
BRANCH   3   4
ATOM      4  O   UNL     1      44.124  23.393  22.131  0.00  0.00    -0.500 OA
ATOM      5  H   UNL     1      43.219  23.299  21.803  0.00  0.00    +0.393 HD
ENDBRANCH   3   4
ENDBRANCH   9   8
BRANCH  10  11
ATOM     11  O   UNL     1      47.615  18.499  21.086  0.00  0.00    -0.549 OA
ATOM     12  H   UNL     1      47.164  17.848  20.531  0.00  0.00    +0.386 HD
ENDBRANCH  10  11
BRANCH  15  16
ATOM     16  O   UNL     1      51.869  17.346  18.467  0.00  0.00    -0.491 OA
ATOM     17  H   UNL     1      52.542  17.306  19.159  0.00  0.00    +0.395 HD
ENDBRANCH  15  16
BRANCH  19  20
ATOM     20  O   UNL     1      52.701  21.330  16.010  0.00  0.00    -0.492 OA
ATOM     21  H   UNL     1      53.599  20.987  15.908  0.00  0.00    +0.397 HD
ENDBRANCH  19  20
TORSDOF 5
ENDMDL
MODEL 3
REMARK VINA RESULT:      -5.8      1.557      6.823
REMARK  Name = ZINC01721693
REMARK  5 active torsions:
REMARK  status: ('A' for Active; 'I' for Inactive)
REMARK    1  A    between atoms: C3_3  and  O5_22
REMARK    2  A    between atoms: C6_6  and  C7_7
REMARK    3  A    between atoms: C8_9  and  O4_21
REMARK    4  A    between atoms: C11_13  and  O3_20
REMARK    5  A    between atoms: C13_15  and  O2_19
REMARK                            x       y       z     vdW  Elec       q    Type
REMARK                         _______ _______ _______ _____ _____    ______ ____
ROOT
ATOM      9  C   UNL     1      43.269  18.793  20.106  0.00  0.00    +0.236 C 
ATOM     10  C   UNL     1      43.471  18.638  21.619  0.00  0.00    +0.155 C 
ATOM     13  C   UNL     1      43.551  17.144  21.942  0.00  0.00    +0.076 C 
ATOM     14  C   UNL     1      44.512  16.470  20.996  0.00  0.00    -0.195 A 
ATOM     15  C   UNL     1      45.020  15.221  21.336  0.00  0.00    +0.160 A 
ATOM     18  C   UNL     1      45.902  14.571  20.488  0.00  0.00    -0.060 A 
ATOM     19  C   UNL     1      46.281  15.169  19.296  0.00  0.00    +0.159 A 
ATOM     22  C   UNL     1      45.777  16.414  18.957  0.00  0.00    -0.038 A 
ATOM     23  C   UNL     1      44.893  17.068  19.808  0.00  0.00    +0.162 A 
ATOM     24  O   UNL     1      44.429  18.293  19.442  0.00  0.00    -0.295 OA
ENDROOT
BRANCH   9   8
ATOM      1  C   UNL     1      44.077  21.160  20.046  0.00  0.00    +0.059 A 
ATOM      2  C   UNL     1      43.904  22.496  19.735  0.00  0.00    -0.014 A 
ATOM      3  C   UNL     1      42.725  22.919  19.140  0.00  0.00    +0.112 A 
ATOM      6  C   UNL     1      41.723  22.002  18.860  0.00  0.00    -0.017 A 
ATOM      7  C   UNL     1      41.901  20.669  19.173  0.00  0.00    +0.051 A 
ATOM      8  C   UNL     1      43.077  20.248  19.766  0.00  0.00    -0.090 A 
BRANCH   3   4
ATOM      4  O   UNL     1      42.552  24.232  18.833  0.00  0.00    -0.500 OA
ATOM      5  H   UNL     1      42.523  24.816  19.603  0.00  0.00    +0.393 HD
ENDBRANCH   3   4
ENDBRANCH   9   8
BRANCH  10  11
ATOM     11  O   UNL     1      42.369  19.224  22.315  0.00  0.00    -0.549 OA
ATOM     12  H   UNL     1      42.366  19.049  23.266  0.00  0.00    +0.386 HD
ENDBRANCH  10  11
BRANCH  15  16
ATOM     16  O   UNL     1      44.648  14.635  22.505  0.00  0.00    -0.491 OA
ATOM     17  H   UNL     1      43.693  14.522  22.602  0.00  0.00    +0.395 HD
ENDBRANCH  15  16
BRANCH  19  20
ATOM     20  O   UNL     1      47.145  14.535  18.461  0.00  0.00    -0.492 OA
ATOM     21  H   UNL     1      46.770  13.759  18.021  0.00  0.00    +0.397 HD
ENDBRANCH  19  20
TORSDOF 5
ENDMDL
MODEL 4
REMARK VINA RESULT:      -5.7      2.701      3.961
REMARK  Name = ZINC01721693
REMARK  5 active torsions:
REMARK  status: ('A' for Active; 'I' for Inactive)
REMARK    1  A    between atoms: C3_3  and  O5_22
REMARK    2  A    between atoms: C6_6  and  C7_7
REMARK    3  A    between atoms: C8_9  and  O4_21
REMARK    4  A    between atoms: C11_13  and  O3_20
REMARK    5  A    between atoms: C13_15  and  O2_19
REMARK                            x       y       z     vdW  Elec       q    Type
REMARK                         _______ _______ _______ _____ _____    ______ ____
ROOT
ATOM      9  C   UNL     1      45.011  18.995  19.662  0.00  0.00    +0.236 C 
ATOM     10  C   UNL     1      44.296  17.764  20.233  0.00  0.00    +0.155 C 
ATOM     13  C   UNL     1      43.099  18.243  21.058  0.00  0.00    +0.076 C 
ATOM     14  C   UNL     1      42.309  19.254  20.266  0.00  0.00    -0.195 A 
ATOM     15  C   UNL     1      41.003  19.533  20.653  0.00  0.00    +0.160 A 
ATOM     18  C   UNL     1      40.249  20.460  19.951  0.00  0.00    -0.060 A 
ATOM     19  C   UNL     1      40.800  21.111  18.857  0.00  0.00    +0.159 A 
ATOM     22  C   UNL     1      42.100  20.833  18.470  0.00  0.00    -0.038 A 
ATOM     23  C   UNL     1      42.857  19.901  19.173  0.00  0.00    +0.162 A 
ATOM     24  O   UNL     1      44.125  19.650  18.754  0.00  0.00    -0.295 OA
ENDROOT
BRANCH   9   8
ATOM      1  C   UNL     1      47.498  18.972  19.390  0.00  0.00    +0.059 A 
ATOM      2  C   UNL     1      48.644  18.580  18.724  0.00  0.00    -0.014 A 
ATOM      3  C   UNL     1      48.548  17.776  17.598  0.00  0.00    +0.112 A 
ATOM      6  C   UNL     1      47.302  17.370  17.142  0.00  0.00    -0.017 A 
ATOM      7  C   UNL     1      46.161  17.765  17.812  0.00  0.00    +0.051 A 
ATOM      8  C   UNL     1      46.258  18.566  18.934  0.00  0.00    -0.090 A 
BRANCH   3   4
ATOM      4  O   UNL     1      49.673  17.389  16.941  0.00  0.00    -0.500 OA
ATOM      5  H   UNL     1      50.217  16.757  17.432  0.00  0.00    +0.393 HD
ENDBRANCH   3   4
ENDBRANCH   9   8
BRANCH  10  11
ATOM     11  O   UNL     1      45.194  17.030  21.069  0.00  0.00    -0.549 OA
ATOM     12  H   UNL     1      44.762  16.367  21.624  0.00  0.00    +0.386 HD
ENDBRANCH  10  11
BRANCH  15  16
ATOM     16  O   UNL     1      40.464  18.895  21.725  0.00  0.00    -0.491 OA
ATOM     17  H   UNL     1      39.531  18.667  21.618  0.00  0.00    +0.395 HD
ENDBRANCH  15  16
BRANCH  19  20
ATOM     20  O   UNL     1      40.064  22.021  18.167  0.00  0.00    -0.492 OA
ATOM     21  H   UNL     1      40.164  22.930  18.482  0.00  0.00    +0.397 HD
ENDBRANCH  19  20
TORSDOF 5
ENDMDL
MODEL 5
REMARK VINA RESULT:      -5.6      4.206      6.027
REMARK  Name = ZINC01721693
REMARK  5 active torsions:
REMARK  status: ('A' for Active; 'I' for Inactive)
REMARK    1  A    between atoms: C3_3  and  O5_22
REMARK    2  A    between atoms: C6_6  and  C7_7
REMARK    3  A    between atoms: C8_9  and  O4_21
REMARK    4  A    between atoms: C11_13  and  O3_20
REMARK    5  A    between atoms: C13_15  and  O2_19
REMARK                            x       y       z     vdW  Elec       q    Type
REMARK                         _______ _______ _______ _____ _____    ______ ____
ROOT
ATOM      9  C   UNL     1      47.955  20.361  20.263  0.00  0.00    +0.236 C 
ATOM     10  C   UNL     1      47.531  19.086  19.525  0.00  0.00    +0.155 C 
ATOM     13  C   UNL     1      46.100  18.740  19.947  0.00  0.00    +0.076 C 
ATOM     14  C   UNL     1      45.232  19.970  19.855  0.00  0.00    -0.195 A 
ATOM     15  C   UNL     1      43.851  19.812  19.824  0.00  0.00    +0.160 A 
ATOM     18  C   UNL     1      43.023  20.920  19.744  0.00  0.00    -0.060 A 
ATOM     19  C   UNL     1      43.574  22.192  19.695  0.00  0.00    +0.159 A 
ATOM     22  C   UNL     1      44.950  22.350  19.724  0.00  0.00    -0.038 A 
ATOM     23  C   UNL     1      45.783  21.238  19.802  0.00  0.00    +0.162 A 
ATOM     24  O   UNL     1      47.127  21.436  19.819  0.00  0.00    -0.295 OA
ENDROOT
BRANCH   9   8
ATOM      1  C   UNL     1      49.788  20.905  18.649  0.00  0.00    +0.059 A 
ATOM      2  C   UNL     1      51.111  21.189  18.363  0.00  0.00    -0.014 A 
ATOM      3  C   UNL     1      52.044  21.240  19.388  0.00  0.00    +0.112 A 
ATOM      6  C   UNL     1      51.649  21.004  20.696  0.00  0.00    -0.017 A 
ATOM      7  C   UNL     1      50.326  20.720  20.976  0.00  0.00    +0.051 A 
ATOM      8  C   UNL     1      49.397  20.671  19.954  0.00  0.00    -0.090 A 
BRANCH   3   4
ATOM      4  O   UNL     1      53.345  21.519  19.109  0.00  0.00    -0.500 OA
ATOM      5  H   UNL     1      53.465  22.164  18.399  0.00  0.00    +0.393 HD
ENDBRANCH   3   4
ENDBRANCH   9   8
BRANCH  10  11
ATOM     11  O   UNL     1      48.408  18.013  19.872  0.00  0.00    -0.549 OA
ATOM     12  H   UNL     1      47.957  17.176  20.045  0.00  0.00    +0.386 HD
ENDBRANCH  10  11
BRANCH  15  16
ATOM     16  O   UNL     1      43.311  18.566  19.872  0.00  0.00    -0.491 OA
ATOM     17  H   UNL     1      43.818  17.938  20.404  0.00  0.00    +0.395 HD
ENDBRANCH  15  16
BRANCH  19  20
ATOM     20  O   UNL     1      42.766  23.281  19.618  0.00  0.00    -0.492 OA
ATOM     21  H   UNL     1      41.938  23.193  20.111  0.00  0.00    +0.397 HD
ENDBRANCH  19  20
TORSDOF 5
ENDMDL
MODEL 6
REMARK VINA RESULT:      -5.5      2.668      4.596
REMARK  Name = ZINC01721693
REMARK  5 active torsions:
REMARK  status: ('A' for Active; 'I' for Inactive)
REMARK    1  A    between atoms: C3_3  and  O5_22
REMARK    2  A    between atoms: C6_6  and  C7_7
REMARK    3  A    between atoms: C8_9  and  O4_21
REMARK    4  A    between atoms: C11_13  and  O3_20
REMARK    5  A    between atoms: C13_15  and  O2_19
REMARK                            x       y       z     vdW  Elec       q    Type
REMARK                         _______ _______ _______ _____ _____    ______ ____
ROOT
ATOM      9  C   UNL     1      45.317  20.337  20.785  0.00  0.00    +0.236 C 
ATOM     10  C   UNL     1      44.957  18.849  20.882  0.00  0.00    +0.155 C 
ATOM     13  C   UNL     1      43.496  18.737  21.327  0.00  0.00    +0.076 C 
ATOM     14  C   UNL     1      42.638  19.651  20.490  0.00  0.00    -0.195 A 
ATOM     15  C   UNL     1      41.265  19.436  20.461  0.00  0.00    +0.160 A 
ATOM     18  C   UNL     1      40.445  20.260  19.706  0.00  0.00    -0.060 A 
ATOM     19  C   UNL     1      40.997  21.302  18.976  0.00  0.00    +0.159 A 
ATOM     22  C   UNL     1      42.365  21.515  19.003  0.00  0.00    -0.038 A 
ATOM     23  C   UNL     1      43.189  20.688  19.759  0.00  0.00    +0.162 A 
ATOM     24  O   UNL     1      44.528  20.926  19.751  0.00  0.00    -0.295 OA
ENDROOT
BRANCH   9   8
ATOM      1  C   UNL     1      47.664  20.925  21.419  0.00  0.00    +0.059 A 
ATOM      2  C   UNL     1      49.007  21.062  21.118  0.00  0.00    -0.014 A 
ATOM      3  C   UNL     1      49.464  20.755  19.845  0.00  0.00    +0.112 A 
ATOM      6  C   UNL     1      48.574  20.313  18.877  0.00  0.00    -0.017 A 
ATOM      7  C   UNL     1      47.233  20.179  19.184  0.00  0.00    +0.051 A 
ATOM      8  C   UNL     1      46.779  20.485  20.453  0.00  0.00    -0.090 A 
BRANCH   3   4
ATOM      4  O   UNL     1      50.783  20.888  19.546  0.00  0.00    -0.500 OA
ATOM      5  H   UNL     1      51.040  21.784  19.288  0.00  0.00    +0.393 HD
ENDBRANCH   3   4
ENDBRANCH   9   8
BRANCH  10  11
ATOM     11  O   UNL     1      45.803  18.209  21.839  0.00  0.00    -0.549 OA
ATOM     12  H   UNL     1      46.630  18.680  22.010  0.00  0.00    +0.386 HD
ENDBRANCH  10  11
BRANCH  15  16
ATOM     16  O   UNL     1      40.724  18.415  21.176  0.00  0.00    -0.491 OA
ATOM     17  H   UNL     1      40.073  18.698  21.833  0.00  0.00    +0.395 HD
ENDBRANCH  15  16
BRANCH  19  20
ATOM     20  O   UNL     1      40.197  22.112  18.235  0.00  0.00    -0.492 OA
ATOM     21  H   UNL     1      39.472  22.514  18.734  0.00  0.00    +0.397 HD
ENDBRANCH  19  20
TORSDOF 5
ENDMDL
MODEL 7
REMARK VINA RESULT:      -5.4      2.864      6.275
REMARK  Name = ZINC01721693
REMARK  5 active torsions:
REMARK  status: ('A' for Active; 'I' for Inactive)
REMARK    1  A    between atoms: C3_3  and  O5_22
REMARK    2  A    between atoms: C6_6  and  C7_7
REMARK    3  A    between atoms: C8_9  and  O4_21
REMARK    4  A    between atoms: C11_13  and  O3_20
REMARK    5  A    between atoms: C13_15  and  O2_19
REMARK                            x       y       z     vdW  Elec       q    Type
REMARK                         _______ _______ _______ _____ _____    ______ ____
ROOT
ATOM      9  C   UNL     1      43.822  19.659  19.991  0.00  0.00    +0.236 C 
ATOM     10  C   UNL     1      44.672  20.690  20.744  0.00  0.00    +0.155 C 
ATOM     13  C   UNL     1      45.968  20.010  21.191  0.00  0.00    +0.076 C 
ATOM     14  C   UNL     1      46.574  19.260  20.031  0.00  0.00    -0.195 A 
ATOM     15  C   UNL     1      47.913  18.893  20.100  0.00  0.00    +0.160 A 
ATOM     18  C   UNL     1      48.501  18.198  19.055  0.00  0.00    -0.060 A 
ATOM     19  C   UNL     1      47.751  17.868  17.936  0.00  0.00    +0.159 A 
ATOM     22  C   UNL     1      46.417  18.235  17.867  0.00  0.00    -0.038 A 
ATOM     23  C   UNL     1      45.826  18.934  18.914  0.00  0.00    +0.162 A 
ATOM     24  O   UNL     1      44.517  19.283  18.802  0.00  0.00    -0.295 OA
ENDROOT
BRANCH   9   8
ATOM      1  C   UNL     1      41.321  19.610  19.970  0.00  0.00    +0.059 A 
ATOM      2  C   UNL     1      40.097  20.164  19.641  0.00  0.00    -0.014 A 
ATOM      3  C   UNL     1      40.045  21.377  18.970  0.00  0.00    +0.112 A 
ATOM      6  C   UNL     1      41.221  22.031  18.631  0.00  0.00    -0.017 A 
ATOM      7  C   UNL     1      42.440  21.473  18.963  0.00  0.00    +0.051 A 
ATOM      8  C   UNL     1      42.490  20.264  19.631  0.00  0.00    -0.090 A 
BRANCH   3   4
ATOM      4  O   UNL     1      38.844  21.923  18.645  0.00  0.00    -0.500 OA
ATOM      5  H   UNL     1      38.216  21.957  19.380  0.00  0.00    +0.393 HD
ENDBRANCH   3   4
ENDBRANCH   9   8
BRANCH  10  11
ATOM     11  O   UNL     1      43.956  21.162  21.888  0.00  0.00    -0.549 OA
ATOM     12  H   UNL     1      42.995  21.136  21.789  0.00  0.00    +0.386 HD
ENDBRANCH  10  11
BRANCH  15  16
ATOM     16  O   UNL     1      48.649  19.215  21.196  0.00  0.00    -0.491 OA
ATOM     17  H   UNL     1      49.531  18.821  21.207  0.00  0.00    +0.395 HD
ENDBRANCH  15  16
BRANCH  19  20
ATOM     20  O   UNL     1      48.323  17.187  16.910  0.00  0.00    -0.492 OA
ATOM     21  H   UNL     1      49.281  17.304  16.844  0.00  0.00    +0.397 HD
ENDBRANCH  19  20
TORSDOF 5
ENDMDL
MODEL 8
REMARK VINA RESULT:      -5.3      2.385      3.062
REMARK  Name = ZINC01721693
REMARK  5 active torsions:
REMARK  status: ('A' for Active; 'I' for Inactive)
REMARK    1  A    between atoms: C3_3  and  O5_22
REMARK    2  A    between atoms: C6_6  and  C7_7
REMARK    3  A    between atoms: C8_9  and  O4_21
REMARK    4  A    between atoms: C11_13  and  O3_20
REMARK    5  A    between atoms: C13_15  and  O2_19
REMARK                            x       y       z     vdW  Elec       q    Type
REMARK                         _______ _______ _______ _____ _____    ______ ____
ROOT
ATOM      9  C   UNL     1      45.738  18.769  18.200  0.00  0.00    +0.236 C 
ATOM     10  C   UNL     1      46.543  19.358  19.365  0.00  0.00    +0.155 C 
ATOM     13  C   UNL     1      46.316  20.872  19.389  0.00  0.00    +0.076 C 
ATOM     14  C   UNL     1      44.841  21.166  19.288  0.00  0.00    -0.195 A 
ATOM     15  C   UNL     1      44.383  22.424  19.664  0.00  0.00    +0.160 A 
ATOM     18  C   UNL     1      43.034  22.730  19.580  0.00  0.00    -0.060 A 
ATOM     19  C   UNL     1      42.137  21.778  19.120  0.00  0.00    +0.159 A 
ATOM     22  C   UNL     1      42.592  20.524  18.746  0.00  0.00    -0.038 A 
ATOM     23  C   UNL     1      43.946  20.215  18.832  0.00  0.00    +0.162 A 
ATOM     24  O   UNL     1      44.350  18.970  18.465  0.00  0.00    -0.295 OA
ENDROOT
BRANCH   9   8
ATOM      1  C   UNL     1      45.655  16.435  19.099  0.00  0.00    +0.059 A 
ATOM      2  C   UNL     1      45.916  15.082  18.991  0.00  0.00    -0.014 A 
ATOM      3  C   UNL     1      46.547  14.587  17.859  0.00  0.00    +0.112 A 
ATOM      6  C   UNL     1      46.915  15.451  16.839  0.00  0.00    -0.017 A 
ATOM      7  C   UNL     1      46.652  16.803  16.952  0.00  0.00    +0.051 A 
ATOM      8  C   UNL     1      46.024  17.294  18.081  0.00  0.00    -0.090 A 
BRANCH   3   4
ATOM      4  O   UNL     1      46.804  13.257  17.751  0.00  0.00    -0.500 OA
ATOM      5  H   UNL     1      46.145  12.693  18.179  0.00  0.00    +0.393 HD
ENDBRANCH   3   4
ENDBRANCH   9   8
BRANCH  10  11
ATOM     11  O   UNL     1      47.933  19.082  19.179  0.00  0.00    -0.549 OA
ATOM     12  H   UNL     1      48.295  18.443  19.807  0.00  0.00    +0.386 HD
ENDBRANCH  10  11
BRANCH  15  16
ATOM     16  O   UNL     1      45.262  23.357  20.115  0.00  0.00    -0.491 OA
ATOM     17  H   UNL     1      46.188  23.146  19.933  0.00  0.00    +0.395 HD
ENDBRANCH  15  16
BRANCH  19  20
ATOM     20  O   UNL     1      40.815  22.074  19.035  0.00  0.00    -0.492 OA
ATOM     21  H   UNL     1      40.240  21.450  19.500  0.00  0.00    +0.397 HD
ENDBRANCH  19  20
TORSDOF 5
ENDMDL
MODEL 9
REMARK VINA RESULT:      -5.3      7.679      9.941
REMARK  Name = ZINC01721693
REMARK  5 active torsions:
REMARK  status: ('A' for Active; 'I' for Inactive)
REMARK    1  A    between atoms: C3_3  and  O5_22
REMARK    2  A    between atoms: C6_6  and  C7_7
REMARK    3  A    between atoms: C8_9  and  O4_21
REMARK    4  A    between atoms: C11_13  and  O3_20
REMARK    5  A    between atoms: C13_15  and  O2_19
REMARK                            x       y       z     vdW  Elec       q    Type
REMARK                         _______ _______ _______ _____ _____    ______ ____
ROOT
ATOM      9  C   UNL     1      50.582  16.936  17.767  0.00  0.00    +0.236 C 
ATOM     10  C   UNL     1      51.753  15.962  17.587  0.00  0.00    +0.155 C 
ATOM     13  C   UNL     1      51.367  14.624  18.221  0.00  0.00    +0.076 C 
ATOM     14  C   UNL     1      49.991  14.219  17.755  0.00  0.00    -0.195 A 
ATOM     15  C   UNL     1      49.603  12.891  17.897  0.00  0.00    +0.160 A 
ATOM     18  C   UNL     1      48.344  12.485  17.483  0.00  0.00    -0.060 A 
ATOM     19  C   UNL     1      47.470  13.405  16.925  0.00  0.00    +0.159 A 
ATOM     22  C   UNL     1      47.857  14.727  16.782  0.00  0.00    -0.038 A 
ATOM     23  C   UNL     1      49.121  15.136  17.195  0.00  0.00    +0.162 A 
ATOM     24  O   UNL     1      49.466  16.440  17.028  0.00  0.00    -0.295 OA
ENDROOT
BRANCH   9   8
ATOM      1  C   UNL     1      51.553  18.421  16.003  0.00  0.00    +0.059 A 
ATOM      2  C   UNL     1      51.909  19.669  15.526  0.00  0.00    -0.014 A 
ATOM      3  C   UNL     1      51.679  20.796  16.300  0.00  0.00    +0.112 A 
ATOM      6  C   UNL     1      51.092  20.669  17.550  0.00  0.00    -0.017 A 
ATOM      7  C   UNL     1      50.739  19.420  18.022  0.00  0.00    +0.051 A 
ATOM      8  C   UNL     1      50.969  18.297  17.249  0.00  0.00    -0.090 A 
BRANCH   3   4
ATOM      4  O   UNL     1      52.028  22.024  15.832  0.00  0.00    -0.500 OA
ATOM      5  H   UNL     1      51.339  22.695  15.935  0.00  0.00    +0.393 HD
ENDBRANCH   3   4
ENDBRANCH   9   8
BRANCH  10  11
ATOM     11  O   UNL     1      52.917  16.483  18.232  0.00  0.00    -0.549 OA
ATOM     12  H   UNL     1      53.683  15.894  18.199  0.00  0.00    +0.386 HD
ENDBRANCH  10  11
BRANCH  15  16
ATOM     16  O   UNL     1      50.459  11.989  18.444  0.00  0.00    -0.491 OA
ATOM     17  H   UNL     1      50.661  11.240  17.868  0.00  0.00    +0.395 HD
ENDBRANCH  15  16
BRANCH  19  20
ATOM     20  O   UNL     1      46.235  13.011  16.519  0.00  0.00    -0.492 OA
ATOM     21  H   UNL     1      46.107  13.039  15.560  0.00  0.00    +0.397 HD
ENDBRANCH  19  20
TORSDOF 5
ENDMDL
