MODEL 1
REMARK VINA RESULT:      -5.9      0.000      0.000
REMARK  Name = ZINC00135449
REMARK  7 active torsions:
REMARK  status: ('A' for Active; 'I' for Inactive)
REMARK    1  A    between atoms: C1_1  and  N1_2
REMARK    2  A    between atoms: C6_7  and  O4_25
REMARK    3  A    between atoms: C7_8  and  O3_23
REMARK    4  A    between atoms: C15_17  and  O2_21
REMARK    5  A    between atoms: C16_18  and  O1_20
REMARK    6  A    between atoms: O2_21  and  C18_22
REMARK    7  A    between atoms: O3_23  and  C19_24
REMARK                            x       y       z     vdW  Elec       q    Type
REMARK                         _______ _______ _______ _____ _____    ______ ____
ROOT
ATOM      1  C   UNL     1      45.403  13.179  22.505  0.00  0.00    +0.198 C 
ATOM      2  N   UNL     1      46.009  13.857  21.352  0.00  0.00    -0.535 NA
ATOM      3  C   UNL     1      46.380  12.897  20.312  0.00  0.00    +0.178 C 
ATOM      4  C   UNL     1      47.227  13.559  19.239  0.00  0.00    +0.093 C 
ATOM      5  C   UNL     1      46.771  14.959  18.934  0.00  0.00    -0.049 A 
ATOM      6  C   UNL     1      47.366  15.620  17.865  0.00  0.00    +0.003 A 
ATOM      7  C   UNL     1      46.976  16.900  17.517  0.00  0.00    +0.095 A 
ATOM     10  C   UNL     1      45.981  17.541  18.245  0.00  0.00    +0.078 A 
ATOM     13  C   UNL     1      45.398  16.888  19.329  0.00  0.00    -0.037 A 
ATOM     14  C   UNL     1      44.339  17.556  20.123  0.00  0.00    -0.019 A 
ATOM     15  C   UNL     1      43.667  18.666  19.618  0.00  0.00    -0.012 A 
ATOM     16  C   UNL     1      42.670  19.264  20.369  0.00  0.00    +0.096 A 
ATOM     19  C   UNL     1      42.342  18.754  21.622  0.00  0.00    +0.084 A 
ATOM     22  C   UNL     1      43.017  17.653  22.126  0.00  0.00    +0.033 A 
ATOM     23  C   UNL     1      44.018  17.059  21.385  0.00  0.00    -0.089 A 
ATOM     24  C   UNL     1      44.770  15.876  21.931  0.00  0.00    +0.106 C 
ATOM     25  C   UNL     1      45.789  15.590  19.667  0.00  0.00    -0.056 A 
ATOM     26  C   UNL     1      45.111  14.890  20.815  0.00  0.00    +0.192 C 
ENDROOT
BRANCH   7   8
ATOM      8  O   UNL     1      47.565  17.530  16.464  0.00  0.00    -0.490 OA
ATOM      9  H   UNL     1      48.025  16.935  15.857  0.00  0.00    +0.394 HD
ENDBRANCH   7   8
BRANCH  10  11
ATOM     11  O   UNL     1      45.580  18.794  17.902  0.00  0.00    -0.327 OA
ATOM     12  C   UNL     1      46.387  19.881  18.361  0.00  0.00    +0.231 C 
ENDBRANCH  10  11
BRANCH  16  17
ATOM     17  O   UNL     1      42.012  20.350  19.882  0.00  0.00    -0.307 OA
ATOM     18  C   UNL     1      41.559  20.282  18.529  0.00  0.00    +0.239 C 
ENDBRANCH  16  17
BRANCH  19  20
ATOM     20  O   UNL     1      41.357  19.339  22.356  0.00  0.00    -0.486 OA
ATOM     21  H   UNL     1      41.645  19.646  23.226  0.00  0.00    +0.388 HD
ENDBRANCH  19  20
TORSDOF 4
ENDMDL
MODEL 2
REMARK VINA RESULT:      -5.8      3.916      7.178
REMARK  Name = ZINC00135449
REMARK  7 active torsions:
REMARK  status: ('A' for Active; 'I' for Inactive)
REMARK    1  A    between atoms: C1_1  and  N1_2
REMARK    2  A    between atoms: C6_7  and  O4_25
REMARK    3  A    between atoms: C7_8  and  O3_23
REMARK    4  A    between atoms: C15_17  and  O2_21
REMARK    5  A    between atoms: C16_18  and  O1_20
REMARK    6  A    between atoms: O2_21  and  C18_22
REMARK    7  A    between atoms: O3_23  and  C19_24
REMARK                            x       y       z     vdW  Elec       q    Type
REMARK                         _______ _______ _______ _____ _____    ______ ____
ROOT
ATOM      1  C   UNL     1      46.528  22.280  22.272  0.00  0.00    +0.198 C 
ATOM      2  N   UNL     1      46.239  21.159  21.367  0.00  0.00    -0.535 NA
ATOM      3  C   UNL     1      44.899  21.281  20.791  0.00  0.00    +0.178 C 
ATOM      4  C   UNL     1      44.505  20.008  20.062  0.00  0.00    +0.093 C 
ATOM      5  C   UNL     1      45.659  19.392  19.322  0.00  0.00    -0.049 A 
ATOM      6  C   UNL     1      45.398  18.308  18.492  0.00  0.00    +0.003 A 
ATOM      7  C   UNL     1      46.411  17.710  17.766  0.00  0.00    +0.095 A 
ATOM     10  C   UNL     1      47.711  18.191  17.868  0.00  0.00    +0.078 A 
ATOM     13  C   UNL     1      47.979  19.264  18.716  0.00  0.00    -0.037 A 
ATOM     14  C   UNL     1      49.359  19.789  18.844  0.00  0.00    -0.019 A 
ATOM     15  C   UNL     1      50.329  19.476  17.895  0.00  0.00    -0.012 A 
ATOM     16  C   UNL     1      51.607  19.991  18.025  0.00  0.00    +0.096 A 
ATOM     19  C   UNL     1      51.918  20.818  19.100  0.00  0.00    +0.084 A 
ATOM     22  C   UNL     1      50.952  21.123  20.048  0.00  0.00    +0.033 A 
ATOM     23  C   UNL     1      49.679  20.605  19.927  0.00  0.00    -0.089 A 
ATOM     24  C   UNL     1      48.630  20.913  20.961  0.00  0.00    +0.106 C 
ATOM     25  C   UNL     1      46.947  19.871  19.436  0.00  0.00    -0.056 A 
ATOM     26  C   UNL     1      47.256  21.057  20.310  0.00  0.00    +0.192 C 
ENDROOT
BRANCH   7   8
ATOM      8  O   UNL     1      46.136  16.654  16.953  0.00  0.00    -0.490 OA
ATOM      9  H   UNL     1      45.921  15.839  17.426  0.00  0.00    +0.394 HD
ENDBRANCH   7   8
BRANCH  10  11
ATOM     11  O   UNL     1      48.712  17.619  17.147  0.00  0.00    -0.327 OA
ATOM     12  C   UNL     1      49.147  16.322  17.559  0.00  0.00    +0.231 C 
ENDBRANCH  10  11
BRANCH  16  17
ATOM     17  O   UNL     1      52.559  19.687  17.102  0.00  0.00    -0.307 OA
ATOM     18  C   UNL     1      52.148  19.649  15.735  0.00  0.00    +0.239 C 
ENDBRANCH  16  17
BRANCH  19  20
ATOM     20  O   UNL     1      53.172  21.329  19.223  0.00  0.00    -0.486 OA
ATOM     21  H   UNL     1      53.768  20.784  19.756  0.00  0.00    +0.388 HD
ENDBRANCH  19  20
TORSDOF 4
ENDMDL
MODEL 3
REMARK VINA RESULT:      -5.4      4.285      6.750
REMARK  Name = ZINC00135449
REMARK  7 active torsions:
REMARK  status: ('A' for Active; 'I' for Inactive)
REMARK    1  A    between atoms: C1_1  and  N1_2
REMARK    2  A    between atoms: C6_7  and  O4_25
REMARK    3  A    between atoms: C7_8  and  O3_23
REMARK    4  A    between atoms: C15_17  and  O2_21
REMARK    5  A    between atoms: C16_18  and  O1_20
REMARK    6  A    between atoms: O2_21  and  C18_22
REMARK    7  A    between atoms: O3_23  and  C19_24
REMARK                            x       y       z     vdW  Elec       q    Type
REMARK                         _______ _______ _______ _____ _____    ______ ____
ROOT
ATOM      1  C   UNL     1      44.302  20.051  19.578  0.00  0.00    +0.198 C 
ATOM      2  N   UNL     1      45.745  20.320  19.525  0.00  0.00    -0.535 NA
ATOM      3  C   UNL     1      46.199  20.995  20.742  0.00  0.00    +0.178 C 
ATOM      4  C   UNL     1      47.624  21.496  20.583  0.00  0.00    +0.093 C 
ATOM      5  C   UNL     1      48.486  20.535  19.813  0.00  0.00    -0.049 A 
ATOM      6  C   UNL     1      49.848  20.803  19.729  0.00  0.00    +0.003 A 
ATOM      7  C   UNL     1      50.699  19.948  19.055  0.00  0.00    +0.095 A 
ATOM     10  C   UNL     1      50.191  18.806  18.446  0.00  0.00    +0.078 A 
ATOM     13  C   UNL     1      48.824  18.546  18.511  0.00  0.00    -0.037 A 
ATOM     14  C   UNL     1      48.260  17.337  17.864  0.00  0.00    -0.019 A 
ATOM     15  C   UNL     1      49.087  16.280  17.493  0.00  0.00    -0.012 A 
ATOM     16  C   UNL     1      48.538  15.154  16.905  0.00  0.00    +0.096 A 
ATOM     19  C   UNL     1      47.165  15.081  16.690  0.00  0.00    +0.084 A 
ATOM     22  C   UNL     1      46.344  16.137  17.054  0.00  0.00    +0.033 A 
ATOM     23  C   UNL     1      46.888  17.266  17.632  0.00  0.00    -0.089 A 
ATOM     24  C   UNL     1      46.009  18.427  18.012  0.00  0.00    +0.106 C 
ATOM     25  C   UNL     1      47.972  19.410  19.205  0.00  0.00    -0.056 A 
ATOM     26  C   UNL     1      46.505  19.081  19.299  0.00  0.00    +0.192 C 
ENDROOT
BRANCH   7   8
ATOM      8  O   UNL     1      52.030  20.223  18.987  0.00  0.00    -0.490 OA
ATOM      9  H   UNL     1      52.470  20.249  19.847  0.00  0.00    +0.394 HD
ENDBRANCH   7   8
BRANCH  10  11
ATOM     11  O   UNL     1      51.021  17.951  17.793  0.00  0.00    -0.327 OA
ATOM     12  C   UNL     1      51.509  18.369  16.515  0.00  0.00    +0.231 C 
ENDBRANCH  10  11
BRANCH  16  17
ATOM     17  O   UNL     1      49.341  14.119  16.539  0.00  0.00    -0.307 OA
ATOM     18  C   UNL     1      50.750  14.352  16.557  0.00  0.00    +0.239 C 
ENDBRANCH  16  17
BRANCH  19  20
ATOM     20  O   UNL     1      46.626  13.970  16.119  0.00  0.00    -0.486 OA
ATOM     21  H   UNL     1      47.007  13.747  15.258  0.00  0.00    +0.388 HD
ENDBRANCH  19  20
TORSDOF 4
ENDMDL
MODEL 4
REMARK VINA RESULT:      -5.3      3.431      5.175
REMARK  Name = ZINC00135449
REMARK  7 active torsions:
REMARK  status: ('A' for Active; 'I' for Inactive)
REMARK    1  A    between atoms: C1_1  and  N1_2
REMARK    2  A    between atoms: C6_7  and  O4_25
REMARK    3  A    between atoms: C7_8  and  O3_23
REMARK    4  A    between atoms: C15_17  and  O2_21
REMARK    5  A    between atoms: C16_18  and  O1_20
REMARK    6  A    between atoms: O2_21  and  C18_22
REMARK    7  A    between atoms: O3_23  and  C19_24
REMARK                            x       y       z     vdW  Elec       q    Type
REMARK                         _______ _______ _______ _____ _____    ______ ____
ROOT
ATOM      1  C   UNL     1      51.910  21.281  19.125  0.00  0.00    +0.198 C 
ATOM      2  N   UNL     1      51.345  20.085  18.487  0.00  0.00    -0.535 NA
ATOM      3  C   UNL     1      52.311  18.986  18.479  0.00  0.00    +0.178 C 
ATOM      4  C   UNL     1      51.825  17.843  17.604  0.00  0.00    +0.093 C 
ATOM      5  C   UNL     1      50.343  17.626  17.719  0.00  0.00    -0.049 A 
ATOM      6  C   UNL     1      49.796  16.514  17.087  0.00  0.00    +0.003 A 
ATOM      7  C   UNL     1      48.443  16.244  17.173  0.00  0.00    +0.095 A 
ATOM     10  C   UNL     1      47.613  17.094  17.895  0.00  0.00    +0.078 A 
ATOM     13  C   UNL     1      48.155  18.220  18.511  0.00  0.00    -0.037 A 
ATOM     14  C   UNL     1      47.287  19.143  19.280  0.00  0.00    -0.019 A 
ATOM     15  C   UNL     1      46.020  18.743  19.697  0.00  0.00    -0.012 A 
ATOM     16  C   UNL     1      45.232  19.615  20.429  0.00  0.00    +0.096 A 
ATOM     19  C   UNL     1      45.709  20.883  20.747  0.00  0.00    +0.084 A 
ATOM     22  C   UNL     1      46.969  21.281  20.326  0.00  0.00    +0.033 A 
ATOM     23  C   UNL     1      47.754  20.419  19.588  0.00  0.00    -0.089 A 
ATOM     24  C   UNL     1      49.114  20.848  19.109  0.00  0.00    +0.106 C 
ATOM     25  C   UNL     1      49.526  18.478  18.430  0.00  0.00    -0.056 A 
ATOM     26  C   UNL     1      50.094  19.677  19.144  0.00  0.00    +0.192 C 
ENDROOT
BRANCH   7   8
ATOM      8  O   UNL     1      47.925  15.149  16.553  0.00  0.00    -0.490 OA
ATOM      9  H   UNL     1      48.316  14.313  16.840  0.00  0.00    +0.394 HD
ENDBRANCH   7   8
BRANCH  10  11
ATOM     11  O   UNL     1      46.283  16.830  17.997  0.00  0.00    -0.327 OA
ATOM     12  C   UNL     1      45.907  15.680  18.758  0.00  0.00    +0.231 C 
ENDBRANCH  10  11
BRANCH  16  17
ATOM     17  O   UNL     1      43.993  19.231  20.836  0.00  0.00    -0.307 OA
ATOM     18  C   UNL     1      42.949  19.266  19.862  0.00  0.00    +0.239 C 
ENDBRANCH  16  17
BRANCH  19  20
ATOM     20  O   UNL     1      44.937  21.736  21.473  0.00  0.00    -0.486 OA
ATOM     21  H   UNL     1      44.395  22.329  20.934  0.00  0.00    +0.388 HD
ENDBRANCH  19  20
TORSDOF 4
ENDMDL
MODEL 5
REMARK VINA RESULT:      -5.3      3.431      4.566
REMARK  Name = ZINC00135449
REMARK  7 active torsions:
REMARK  status: ('A' for Active; 'I' for Inactive)
REMARK    1  A    between atoms: C1_1  and  N1_2
REMARK    2  A    between atoms: C6_7  and  O4_25
REMARK    3  A    between atoms: C7_8  and  O3_23
REMARK    4  A    between atoms: C15_17  and  O2_21
REMARK    5  A    between atoms: C16_18  and  O1_20
REMARK    6  A    between atoms: O2_21  and  C18_22
REMARK    7  A    between atoms: O3_23  and  C19_24
REMARK                            x       y       z     vdW  Elec       q    Type
REMARK                         _______ _______ _______ _____ _____    ______ ____
ROOT
ATOM      1  C   UNL     1      46.616  15.917  16.947  0.00  0.00    +0.198 C 
ATOM      2  N   UNL     1      47.534  16.693  17.791  0.00  0.00    -0.535 NA
ATOM      3  C   UNL     1      48.896  16.656  17.258  0.00  0.00    +0.178 C 
ATOM      4  C   UNL     1      49.884  17.240  18.254  0.00  0.00    +0.093 C 
ATOM      5  C   UNL     1      49.324  18.429  18.984  0.00  0.00    -0.049 A 
ATOM      6  C   UNL     1      50.179  19.148  19.812  0.00  0.00    +0.003 A 
ATOM      7  C   UNL     1      49.734  20.265  20.494  0.00  0.00    +0.095 A 
ATOM     10  C   UNL     1      48.413  20.677  20.357  0.00  0.00    +0.078 A 
ATOM     13  C   UNL     1      47.549  19.946  19.544  0.00  0.00    -0.037 A 
ATOM     14  C   UNL     1      46.135  20.364  19.389  0.00  0.00    -0.019 A 
ATOM     15  C   UNL     1      45.731  21.647  19.748  0.00  0.00    -0.012 A 
ATOM     16  C   UNL     1      44.409  22.022  19.579  0.00  0.00    +0.096 A 
ATOM     19  C   UNL     1      43.492  21.118  19.050  0.00  0.00    +0.084 A 
ATOM     22  C   UNL     1      43.895  19.839  18.700  0.00  0.00    +0.033 A 
ATOM     23  C   UNL     1      45.210  19.457  18.875  0.00  0.00    -0.089 A 
ATOM     24  C   UNL     1      45.653  18.065  18.517  0.00  0.00    +0.106 C 
ATOM     25  C   UNL     1      48.011  18.825  18.849  0.00  0.00    -0.056 A 
ATOM     26  C   UNL     1      47.068  18.080  17.941  0.00  0.00    +0.192 C 
ENDROOT
BRANCH   7   8
ATOM      8  O   UNL     1      50.585  20.960  21.296  0.00  0.00    -0.490 OA
ATOM      9  H   UNL     1      50.157  21.385  22.050  0.00  0.00    +0.394 HD
ENDBRANCH   7   8
BRANCH  10  11
ATOM     11  O   UNL     1      47.968  21.782  21.011  0.00  0.00    -0.327 OA
ATOM     12  C   UNL     1      47.793  21.671  22.426  0.00  0.00    +0.231 C 
ENDBRANCH  10  11
BRANCH  16  17
ATOM     17  O   UNL     1      44.008  23.273  19.930  0.00  0.00    -0.307 OA
ATOM     18  C   UNL     1      44.437  24.350  19.096  0.00  0.00    +0.239 C 
ENDBRANCH  16  17
BRANCH  19  20
ATOM     20  O   UNL     1      42.195  21.491  18.878  0.00  0.00    -0.486 OA
ATOM     21  H   UNL     1      41.558  20.904  19.309  0.00  0.00    +0.388 HD
ENDBRANCH  19  20
TORSDOF 4
ENDMDL
MODEL 6
REMARK VINA RESULT:      -5.3      2.108      2.703
REMARK  Name = ZINC00135449
REMARK  7 active torsions:
REMARK  status: ('A' for Active; 'I' for Inactive)
REMARK    1  A    between atoms: C1_1  and  N1_2
REMARK    2  A    between atoms: C6_7  and  O4_25
REMARK    3  A    between atoms: C7_8  and  O3_23
REMARK    4  A    between atoms: C15_17  and  O2_21
REMARK    5  A    between atoms: C16_18  and  O1_20
REMARK    6  A    between atoms: O2_21  and  C18_22
REMARK    7  A    between atoms: O3_23  and  C19_24
REMARK                            x       y       z     vdW  Elec       q    Type
REMARK                         _______ _______ _______ _____ _____    ______ ____
ROOT
ATOM      1  C   UNL     1      45.445  13.797  19.080  0.00  0.00    +0.198 C 
ATOM      2  N   UNL     1      46.538  14.771  18.955  0.00  0.00    -0.535 NA
ATOM      3  C   UNL     1      47.449  14.402  17.869  0.00  0.00    +0.178 C 
ATOM      4  C   UNL     1      48.704  15.258  17.901  0.00  0.00    +0.093 C 
ATOM      5  C   UNL     1      48.414  16.684  18.275  0.00  0.00    -0.049 A 
ATOM      6  C   UNL     1      49.454  17.604  18.193  0.00  0.00    +0.003 A 
ATOM      7  C   UNL     1      49.249  18.936  18.500  0.00  0.00    +0.095 A 
ATOM     10  C   UNL     1      47.990  19.366  18.904  0.00  0.00    +0.078 A 
ATOM     13  C   UNL     1      46.952  18.442  19.008  0.00  0.00    -0.037 A 
ATOM     14  C   UNL     1      45.603  18.878  19.442  0.00  0.00    -0.019 A 
ATOM     15  C   UNL     1      45.251  20.225  19.416  0.00  0.00    -0.012 A 
ATOM     16  C   UNL     1      43.981  20.608  19.810  0.00  0.00    +0.096 A 
ATOM     19  C   UNL     1      43.062  19.649  20.227  0.00  0.00    +0.084 A 
ATOM     22  C   UNL     1      43.418  18.309  20.258  0.00  0.00    +0.033 A 
ATOM     23  C   UNL     1      44.686  17.923  19.875  0.00  0.00    -0.089 A 
ATOM     24  C   UNL     1      45.088  16.474  19.925  0.00  0.00    +0.106 C 
ATOM     25  C   UNL     1      47.165  17.100  18.682  0.00  0.00    -0.056 A 
ATOM     26  C   UNL     1      46.014  16.131  18.759  0.00  0.00    +0.192 C 
ENDROOT
BRANCH   7   8
ATOM      8  O   UNL     1      50.276  19.823  18.408  0.00  0.00    -0.490 OA
ATOM      9  H   UNL     1      51.080  19.544  18.867  0.00  0.00    +0.394 HD
ENDBRANCH   7   8
BRANCH  10  11
ATOM     11  O   UNL     1      47.774  20.676  19.195  0.00  0.00    -0.327 OA
ATOM     12  C   UNL     1      48.265  21.150  20.451  0.00  0.00    +0.231 C 
ENDBRANCH  10  11
BRANCH  16  17
ATOM     17  O   UNL     1      43.631  21.922  19.790  0.00  0.00    -0.307 OA
ATOM     18  C   UNL     1      44.692  22.877  19.805  0.00  0.00    +0.239 C 
ENDBRANCH  16  17
BRANCH  19  20
ATOM     20  O   UNL     1      41.811  20.027  20.607  0.00  0.00    -0.486 OA
ATOM     21  H   UNL     1      41.580  20.930  20.350  0.00  0.00    +0.388 HD
ENDBRANCH  19  20
TORSDOF 4
ENDMDL
MODEL 7
REMARK VINA RESULT:      -5.2      2.986      6.067
REMARK  Name = ZINC00135449
REMARK  7 active torsions:
REMARK  status: ('A' for Active; 'I' for Inactive)
REMARK    1  A    between atoms: C1_1  and  N1_2
REMARK    2  A    between atoms: C6_7  and  O4_25
REMARK    3  A    between atoms: C7_8  and  O3_23
REMARK    4  A    between atoms: C15_17  and  O2_21
REMARK    5  A    between atoms: C16_18  and  O1_20
REMARK    6  A    between atoms: O2_21  and  C18_22
REMARK    7  A    between atoms: O3_23  and  C19_24
REMARK                            x       y       z     vdW  Elec       q    Type
REMARK                         _______ _______ _______ _____ _____    ______ ____
ROOT
ATOM      1  C   UNL     1      48.238  13.297  17.399  0.00  0.00    +0.198 C 
ATOM      2  N   UNL     1      47.342  14.304  17.984  0.00  0.00    -0.535 NA
ATOM      3  C   UNL     1      46.583  13.745  19.104  0.00  0.00    +0.178 C 
ATOM      4  C   UNL     1      45.485  14.698  19.543  0.00  0.00    +0.093 C 
ATOM      5  C   UNL     1      45.920  16.136  19.488  0.00  0.00    -0.049 A 
ATOM      6  C   UNL     1      45.060  17.098  20.008  0.00  0.00    +0.003 A 
ATOM      7  C   UNL     1      45.410  18.435  20.009  0.00  0.00    +0.095 A 
ATOM     10  C   UNL     1      46.633  18.830  19.479  0.00  0.00    +0.078 A 
ATOM     13  C   UNL     1      47.486  17.871  18.938  0.00  0.00    -0.037 A 
ATOM     14  C   UNL     1      48.792  18.270  18.362  0.00  0.00    -0.019 A 
ATOM     15  C   UNL     1      49.344  19.516  18.652  0.00  0.00    -0.012 A 
ATOM     16  C   UNL     1      50.573  19.862  18.118  0.00  0.00    +0.096 A 
ATOM     19  C   UNL     1      51.252  18.967  17.296  0.00  0.00    +0.084 A 
ATOM     22  C   UNL     1      50.697  17.730  17.003  0.00  0.00    +0.033 A 
ATOM     23  C   UNL     1      49.468  17.383  17.527  0.00  0.00    -0.089 A 
ATOM     24  C   UNL     1      48.848  16.052  17.198  0.00  0.00    +0.106 C 
ATOM     25  C   UNL     1      47.131  16.519  18.953  0.00  0.00    -0.056 A 
ATOM     26  C   UNL     1      48.091  15.498  18.403  0.00  0.00    +0.192 C 
ENDROOT
BRANCH   7   8
ATOM      8  O   UNL     1      44.559  19.362  20.527  0.00  0.00    -0.490 OA
ATOM      9  H   UNL     1      44.481  20.165  19.995  0.00  0.00    +0.394 HD
ENDBRANCH   7   8
BRANCH  10  11
ATOM     11  O   UNL     1      46.992  20.141  19.487  0.00  0.00    -0.327 OA
ATOM     12  C   UNL     1      46.226  21.029  18.670  0.00  0.00    +0.231 C 
ENDBRANCH  10  11
BRANCH  16  17
ATOM     17  O   UNL     1      51.116  21.077  18.395  0.00  0.00    -0.307 OA
ATOM     18  C   UNL     1      51.815  21.208  19.634  0.00  0.00    +0.239 C 
ENDBRANCH  16  17
BRANCH  19  20
ATOM     20  O   UNL     1      52.463  19.306  16.777  0.00  0.00    -0.486 OA
ATOM     21  H   UNL     1      52.413  19.939  16.047  0.00  0.00    +0.388 HD
ENDBRANCH  19  20
TORSDOF 4
ENDMDL
MODEL 8
REMARK VINA RESULT:      -5.1      3.395      7.233
REMARK  Name = ZINC00135449
REMARK  7 active torsions:
REMARK  status: ('A' for Active; 'I' for Inactive)
REMARK    1  A    between atoms: C1_1  and  N1_2
REMARK    2  A    between atoms: C6_7  and  O4_25
REMARK    3  A    between atoms: C7_8  and  O3_23
REMARK    4  A    between atoms: C15_17  and  O2_21
REMARK    5  A    between atoms: C16_18  and  O1_20
REMARK    6  A    between atoms: O2_21  and  C18_22
REMARK    7  A    between atoms: O3_23  and  C19_24
REMARK                            x       y       z     vdW  Elec       q    Type
REMARK                         _______ _______ _______ _____ _____    ______ ____
ROOT
ATOM      1  C   UNL     1      52.569  19.186  18.113  0.00  0.00    +0.198 C 
ATOM      2  N   UNL     1      51.168  19.297  18.539  0.00  0.00    -0.535 NA
ATOM      3  C   UNL     1      50.677  20.667  18.382  0.00  0.00    +0.178 C 
ATOM      4  C   UNL     1      49.324  20.838  19.051  0.00  0.00    +0.093 C 
ATOM      5  C   UNL     1      48.445  19.631  18.878  0.00  0.00    -0.049 A 
ATOM      6  C   UNL     1      47.126  19.718  19.312  0.00  0.00    +0.003 A 
ATOM      7  C   UNL     1      46.259  18.652  19.161  0.00  0.00    +0.095 A 
ATOM     10  C   UNL     1      46.707  17.474  18.575  0.00  0.00    +0.078 A 
ATOM     13  C   UNL     1      48.033  17.378  18.160  0.00  0.00    -0.037 A 
ATOM     14  C   UNL     1      48.534  16.129  17.538  0.00  0.00    -0.019 A 
ATOM     15  C   UNL     1      47.645  15.178  17.042  0.00  0.00    -0.012 A 
ATOM     16  C   UNL     1      48.134  14.026  16.450  0.00  0.00    +0.096 A 
ATOM     19  C   UNL     1      49.508  13.824  16.350  0.00  0.00    +0.084 A 
ATOM     22  C   UNL     1      50.390  14.769  16.851  0.00  0.00    +0.033 A 
ATOM     23  C   UNL     1      49.908  15.915  17.450  0.00  0.00    -0.089 A 
ATOM     24  C   UNL     1      50.857  16.936  18.015  0.00  0.00    +0.106 C 
ATOM     25  C   UNL     1      48.900  18.464  18.303  0.00  0.00    -0.056 A 
ATOM     26  C   UNL     1      50.316  18.349  17.804  0.00  0.00    +0.192 C 
ENDROOT
BRANCH   7   8
ATOM      8  O   UNL     1      44.970  18.756  19.586  0.00  0.00    -0.490 OA
ATOM      9  H   UNL     1      44.852  18.586  20.530  0.00  0.00    +0.394 HD
ENDBRANCH   7   8
BRANCH  10  11
ATOM     11  O   UNL     1      45.858  16.425  18.410  0.00  0.00    -0.327 OA
ATOM     12  C   UNL     1      45.505  15.686  19.582  0.00  0.00    +0.231 C 
ENDBRANCH  10  11
BRANCH  16  17
ATOM     17  O   UNL     1      47.272  13.093  15.966  0.00  0.00    -0.307 OA
ATOM     18  C   UNL     1      46.258  12.621  16.855  0.00  0.00    +0.239 C 
ENDBRANCH  16  17
BRANCH  19  20
ATOM     20  O   UNL     1      49.986  12.695  15.762  0.00  0.00    -0.486 OA
ATOM     21  H   UNL     1      49.533  12.458  14.940  0.00  0.00    +0.388 HD
ENDBRANCH  19  20
TORSDOF 4
ENDMDL
MODEL 9
REMARK VINA RESULT:      -5.0      3.416      6.484
REMARK  Name = ZINC00135449
REMARK  7 active torsions:
REMARK  status: ('A' for Active; 'I' for Inactive)
REMARK    1  A    between atoms: C1_1  and  N1_2
REMARK    2  A    between atoms: C6_7  and  O4_25
REMARK    3  A    between atoms: C7_8  and  O3_23
REMARK    4  A    between atoms: C15_17  and  O2_21
REMARK    5  A    between atoms: C16_18  and  O1_20
REMARK    6  A    between atoms: O2_21  and  C18_22
REMARK    7  A    between atoms: O3_23  and  C19_24
REMARK                            x       y       z     vdW  Elec       q    Type
REMARK                         _______ _______ _______ _____ _____    ______ ____
ROOT
ATOM      1  C   UNL     1      47.059  14.374  17.259  0.00  0.00    +0.198 C 
ATOM      2  N   UNL     1      46.562  15.463  18.110  0.00  0.00    -0.535 NA
ATOM      3  C   UNL     1      45.885  14.936  19.295  0.00  0.00    +0.178 C 
ATOM      4  C   UNL     1      45.157  16.043  20.040  0.00  0.00    +0.093 C 
ATOM      5  C   UNL     1      45.930  17.332  20.046  0.00  0.00    -0.049 A 
ATOM      6  C   UNL     1      45.445  18.379  20.822  0.00  0.00    +0.003 A 
ATOM      7  C   UNL     1      46.121  19.583  20.890  0.00  0.00    +0.095 A 
ATOM     10  C   UNL     1      47.297  19.757  20.170  0.00  0.00    +0.078 A 
ATOM     13  C   UNL     1      47.773  18.717  19.375  0.00  0.00    -0.037 A 
ATOM     14  C   UNL     1      49.023  18.882  18.595  0.00  0.00    -0.019 A 
ATOM     15  C   UNL     1      49.916  19.908  18.895  0.00  0.00    -0.012 A 
ATOM     16  C   UNL     1      51.084  20.035  18.164  0.00  0.00    +0.096 A 
ATOM     19  C   UNL     1      51.364  19.138  17.137  0.00  0.00    +0.084 A 
ATOM     22  C   UNL     1      50.470  18.122  16.836  0.00  0.00    +0.033 A 
ATOM     23  C   UNL     1      49.299  17.997  17.555  0.00  0.00    -0.089 A 
ATOM     24  C   UNL     1      48.313  16.910  17.223  0.00  0.00    +0.106 C 
ATOM     25  C   UNL     1      47.091  17.498  19.322  0.00  0.00    -0.056 A 
ATOM     26  C   UNL     1      47.652  16.374  18.491  0.00  0.00    +0.192 C 
ENDROOT
BRANCH   7   8
ATOM      8  O   UNL     1      45.636  20.595  21.659  0.00  0.00    -0.490 OA
ATOM      9  H   UNL     1      46.006  20.623  22.551  0.00  0.00    +0.394 HD
ENDBRANCH   7   8
BRANCH  10  11
ATOM     11  O   UNL     1      47.977  20.932  20.241  0.00  0.00    -0.327 OA
ATOM     12  C   UNL     1      48.575  21.261  21.497  0.00  0.00    +0.231 C 
ENDBRANCH  10  11
BRANCH  16  17
ATOM     17  O   UNL     1      51.960  21.035  18.451  0.00  0.00    -0.307 OA
ATOM     18  C   UNL     1      52.407  21.139  19.803  0.00  0.00    +0.239 C 
ENDBRANCH  16  17
BRANCH  19  20
ATOM     20  O   UNL     1      52.516  19.259  16.424  0.00  0.00    -0.486 OA
ATOM     21  H   UNL     1      52.991  20.087  16.584  0.00  0.00    +0.388 HD
ENDBRANCH  19  20
TORSDOF 4
ENDMDL
