MODEL 1
REMARK VINA RESULT:      -5.0      0.000      0.000
REMARK  Name = ZINC95486300
REMARK  5 active torsions:
REMARK  status: ('A' for Active; 'I' for Inactive)
REMARK    1  A    between atoms: C1_1  and  C2_2
REMARK    2  A    between atoms: C3_3  and  C4_4
REMARK    3  A    between atoms: C5_5  and  C6_6
REMARK    4  A    between atoms: C7_7  and  C8_8
REMARK    5  A    between atoms: C13_13  and  O1_14
REMARK                            x       y       z     vdW  Elec       q    Type
REMARK                         _______ _______ _______ _____ _____    ______ ____
ROOT
ATOM      8  C   UNL     1      43.295  20.024  19.789  0.00  0.00    -0.007 A 
ATOM      9  C   UNL     1      42.384  20.779  19.044  0.00  0.00    +0.080 A 
ATOM     10  C   UNL     1      41.029  20.624  19.253  0.00  0.00    -0.046 A 
ATOM     11 CL   UNL     1      39.900  21.563  18.327  0.00  0.00    -0.055 Cl
ATOM     12  C   UNL     1      40.566  19.723  20.199  0.00  0.00    +0.068 A 
ATOM     13  C   UNL     1      41.457  18.970  20.941  0.00  0.00    +0.018 A 
ATOM     14  C   UNL     1      42.820  19.108  20.742  0.00  0.00    +0.143 A 
ENDROOT
BRANCH   8   7
ATOM      6  C   UNL     1      45.857  20.305  19.409  0.00  0.00    -0.041 C 
ATOM      7  C   UNL     1      44.703  20.179  19.580  0.00  0.00    -0.067 C 
BRANCH   6   5
ATOM      4  C   UNL     1      48.366  20.579  19.037  0.00  0.00    -0.001 C 
ATOM      5  C   UNL     1      47.211  20.453  19.207  0.00  0.00    -0.034 C 
BRANCH   4   3
ATOM      1  C   UNL     1      52.323  21.007  18.451  0.00  0.00    +0.228 C 
ATOM      2  C   UNL     1      50.875  20.850  18.665  0.00  0.00    -0.091 C 
ATOM      3  C   UNL     1      49.720  20.726  18.836  0.00  0.00    -0.108 C 
ENDBRANCH   4   3
ENDBRANCH   6   5
ENDBRANCH   8   7
BRANCH  14  15
ATOM     15  O   UNL     1      43.695  18.365  21.469  0.00  0.00    -0.488 OA
ATOM     16  H   UNL     1      44.136  18.856  22.175  0.00  0.00    +0.399 HD
ENDBRANCH  14  15
TORSDOF 4
ENDMDL
MODEL 2
REMARK VINA RESULT:      -4.8      3.824      8.234
REMARK  Name = ZINC95486300
REMARK  5 active torsions:
REMARK  status: ('A' for Active; 'I' for Inactive)
REMARK    1  A    between atoms: C1_1  and  C2_2
REMARK    2  A    between atoms: C3_3  and  C4_4
REMARK    3  A    between atoms: C5_5  and  C6_6
REMARK    4  A    between atoms: C7_7  and  C8_8
REMARK    5  A    between atoms: C13_13  and  O1_14
REMARK                            x       y       z     vdW  Elec       q    Type
REMARK                         _______ _______ _______ _____ _____    ______ ____
ROOT
ATOM      8  C   UNL     1      49.411  20.776  19.122  0.00  0.00    -0.007 A 
ATOM      9  C   UNL     1      50.113  20.819  17.914  0.00  0.00    +0.080 A 
ATOM     10  C   UNL     1      51.493  20.795  17.920  0.00  0.00    -0.046 A 
ATOM     11 CL   UNL     1      52.364  20.849  16.419  0.00  0.00    -0.055 Cl
ATOM     12  C   UNL     1      52.185  20.727  19.118  0.00  0.00    +0.068 A 
ATOM     13  C   UNL     1      51.502  20.684  20.319  0.00  0.00    +0.018 A 
ATOM     14  C   UNL     1      50.118  20.712  20.333  0.00  0.00    +0.143 A 
ENDROOT
BRANCH   8   7
ATOM      6  C   UNL     1      46.806  20.821  19.127  0.00  0.00    -0.041 C 
ATOM      7  C   UNL     1      47.979  20.800  19.125  0.00  0.00    -0.067 C 
BRANCH   6   5
ATOM      4  C   UNL     1      44.255  20.867  19.130  0.00  0.00    -0.001 C 
ATOM      5  C   UNL     1      45.429  20.845  19.128  0.00  0.00    -0.034 C 
BRANCH   4   3
ATOM      1  C   UNL     1      40.232  20.941  19.131  0.00  0.00    +0.228 C 
ATOM      2  C   UNL     1      41.704  20.914  19.130  0.00  0.00    -0.091 C 
ATOM      3  C   UNL     1      42.878  20.892  19.130  0.00  0.00    -0.108 C 
ENDBRANCH   4   3
ENDBRANCH   6   5
ENDBRANCH   8   7
BRANCH  14  15
ATOM     15  O   UNL     1      49.446  20.675  21.513  0.00  0.00    -0.488 OA
ATOM     16  H   UNL     1      49.525  19.834  21.984  0.00  0.00    +0.399 HD
ENDBRANCH  14  15
TORSDOF 4
ENDMDL
MODEL 3
REMARK VINA RESULT:      -4.7      4.037      8.452
REMARK  Name = ZINC95486300
REMARK  5 active torsions:
REMARK  status: ('A' for Active; 'I' for Inactive)
REMARK    1  A    between atoms: C1_1  and  C2_2
REMARK    2  A    between atoms: C3_3  and  C4_4
REMARK    3  A    between atoms: C5_5  and  C6_6
REMARK    4  A    between atoms: C7_7  and  C8_8
REMARK    5  A    between atoms: C13_13  and  O1_14
REMARK                            x       y       z     vdW  Elec       q    Type
REMARK                         _______ _______ _______ _____ _____    ______ ____
ROOT
ATOM      8  C   UNL     1      49.805  20.176  18.772  0.00  0.00    -0.007 A 
ATOM      9  C   UNL     1      50.604  21.121  19.422  0.00  0.00    +0.080 A 
ATOM     10  C   UNL     1      51.979  21.023  19.352  0.00  0.00    -0.046 A 
ATOM     11 CL   UNL     1      52.970  22.198  20.160  0.00  0.00    -0.055 Cl
ATOM     12  C   UNL     1      52.571  19.992  18.641  0.00  0.00    +0.068 A 
ATOM     13  C   UNL     1      51.791  19.051  17.994  0.00  0.00    +0.018 A 
ATOM     14  C   UNL     1      50.410  19.130  18.057  0.00  0.00    +0.143 A 
ENDROOT
BRANCH   8   7
ATOM      6  C   UNL     1      47.208  20.347  18.891  0.00  0.00    -0.041 C 
ATOM      7  C   UNL     1      48.377  20.270  18.838  0.00  0.00    -0.067 C 
BRANCH   6   5
ATOM      4  C   UNL     1      44.665  20.514  19.008  0.00  0.00    -0.001 C 
ATOM      5  C   UNL     1      45.835  20.437  18.954  0.00  0.00    -0.034 C 
BRANCH   4   3
ATOM      1  C   UNL     1      40.654  20.779  19.189  0.00  0.00    +0.228 C 
ATOM      2  C   UNL     1      42.122  20.682  19.123  0.00  0.00    -0.091 C 
ATOM      3  C   UNL     1      43.292  20.604  19.070  0.00  0.00    -0.108 C 
ENDBRANCH   4   3
ENDBRANCH   6   5
ENDBRANCH   8   7
BRANCH  14  15
ATOM     15  O   UNL     1      49.644  18.202  17.426  0.00  0.00    -0.488 OA
ATOM     16  H   UNL     1      48.998  18.578  16.812  0.00  0.00    +0.399 HD
ENDBRANCH  14  15
TORSDOF 4
ENDMDL
MODEL 4
REMARK VINA RESULT:      -4.4      4.190      8.058
REMARK  Name = ZINC95486300
REMARK  5 active torsions:
REMARK  status: ('A' for Active; 'I' for Inactive)
REMARK    1  A    between atoms: C1_1  and  C2_2
REMARK    2  A    between atoms: C3_3  and  C4_4
REMARK    3  A    between atoms: C5_5  and  C6_6
REMARK    4  A    between atoms: C7_7  and  C8_8
REMARK    5  A    between atoms: C13_13  and  O1_14
REMARK                            x       y       z     vdW  Elec       q    Type
REMARK                         _______ _______ _______ _____ _____    ______ ____
ROOT
ATOM      8  C   UNL     1      48.036  18.248  18.281  0.00  0.00    -0.007 A 
ATOM      9  C   UNL     1      48.998  18.672  19.204  0.00  0.00    +0.080 A 
ATOM     10  C   UNL     1      50.287  18.185  19.125  0.00  0.00    -0.046 A 
ATOM     11 CL   UNL     1      51.480  18.712  20.271  0.00  0.00    -0.055 Cl
ATOM     12  C   UNL     1      50.632  17.277  18.137  0.00  0.00    +0.068 A 
ATOM     13  C   UNL     1      49.690  16.851  17.219  0.00  0.00    +0.018 A 
ATOM     14  C   UNL     1      48.391  17.324  17.285  0.00  0.00    +0.143 A 
ENDROOT
BRANCH   8   7
ATOM      6  C   UNL     1      45.600  19.162  18.414  0.00  0.00    -0.041 C 
ATOM      7  C   UNL     1      46.697  18.750  18.354  0.00  0.00    -0.067 C 
BRANCH   6   5
ATOM      4  C   UNL     1      43.215  20.058  18.542  0.00  0.00    -0.001 C 
ATOM      5  C   UNL     1      44.313  19.645  18.484  0.00  0.00    -0.034 C 
BRANCH   4   3
ATOM      1  C   UNL     1      39.453  21.470  18.741  0.00  0.00    +0.228 C 
ATOM      2  C   UNL     1      40.829  20.953  18.668  0.00  0.00    -0.091 C 
ATOM      3  C   UNL     1      41.927  20.541  18.610  0.00  0.00    -0.108 C 
ENDBRANCH   4   3
ENDBRANCH   6   5
ENDBRANCH   8   7
BRANCH  14  15
ATOM     15  O   UNL     1      47.464  16.902  16.387  0.00  0.00    -0.488 OA
ATOM     16  H   UNL     1      47.549  15.970  16.143  0.00  0.00    +0.399 HD
ENDBRANCH  14  15
TORSDOF 4
ENDMDL
MODEL 5
REMARK VINA RESULT:      -4.3      3.494      7.773
REMARK  Name = ZINC95486300
REMARK  5 active torsions:
REMARK  status: ('A' for Active; 'I' for Inactive)
REMARK    1  A    between atoms: C1_1  and  C2_2
REMARK    2  A    between atoms: C3_3  and  C4_4
REMARK    3  A    between atoms: C5_5  and  C6_6
REMARK    4  A    between atoms: C7_7  and  C8_8
REMARK    5  A    between atoms: C13_13  and  O1_14
REMARK                            x       y       z     vdW  Elec       q    Type
REMARK                         _______ _______ _______ _____ _____    ______ ____
ROOT
ATOM      8  C   UNL     1      48.063  19.552  19.323  0.00  0.00    -0.007 A 
ATOM      9  C   UNL     1      49.023  20.502  18.959  0.00  0.00    +0.080 A 
ATOM     10  C   UNL     1      50.365  20.203  19.080  0.00  0.00    -0.046 A 
ATOM     11 CL   UNL     1      51.555  21.384  18.628  0.00  0.00    -0.055 Cl
ATOM     12  C   UNL     1      50.765  18.967  19.559  0.00  0.00    +0.068 A 
ATOM     13  C   UNL     1      49.826  18.020  19.921  0.00  0.00    +0.018 A 
ATOM     14  C   UNL     1      48.475  18.302  19.813  0.00  0.00    +0.143 A 
ENDROOT
BRANCH   8   7
ATOM      6  C   UNL     1      45.525  20.098  19.100  0.00  0.00    -0.041 C 
ATOM      7  C   UNL     1      46.668  19.853  19.200  0.00  0.00    -0.067 C 
BRANCH   6   5
ATOM      4  C   UNL     1      43.040  20.633  18.884  0.00  0.00    -0.001 C 
ATOM      5  C   UNL     1      44.184  20.386  18.984  0.00  0.00    -0.034 C 
BRANCH   4   3
ATOM      1  C   UNL     1      39.120  21.473  18.542  0.00  0.00    +0.228 C 
ATOM      2  C   UNL     1      40.554  21.166  18.667  0.00  0.00    -0.091 C 
ATOM      3  C   UNL     1      41.698  20.921  18.767  0.00  0.00    -0.108 C 
ENDBRANCH   4   3
ENDBRANCH   6   5
ENDBRANCH   8   7
BRANCH  14  15
ATOM     15  O   UNL     1      47.552  17.373  20.174  0.00  0.00    -0.488 OA
ATOM     16  H   UNL     1      47.928  16.514  20.405  0.00  0.00    +0.399 HD
ENDBRANCH  14  15
TORSDOF 4
ENDMDL
MODEL 6
REMARK VINA RESULT:      -4.1      4.111      8.038
REMARK  Name = ZINC95486300
REMARK  5 active torsions:
REMARK  status: ('A' for Active; 'I' for Inactive)
REMARK    1  A    between atoms: C1_1  and  C2_2
REMARK    2  A    between atoms: C3_3  and  C4_4
REMARK    3  A    between atoms: C5_5  and  C6_6
REMARK    4  A    between atoms: C7_7  and  C8_8
REMARK    5  A    between atoms: C13_13  and  O1_14
REMARK                            x       y       z     vdW  Elec       q    Type
REMARK                         _______ _______ _______ _____ _____    ______ ____
ROOT
ATOM      8  C   UNL     1      48.106  18.324  18.312  0.00  0.00    -0.007 A 
ATOM      9  C   UNL     1      48.366  17.051  17.794  0.00  0.00    +0.080 A 
ATOM     10  C   UNL     1      49.665  16.588  17.731  0.00  0.00    -0.046 A 
ATOM     11 CL   UNL     1      49.987  15.008  17.088  0.00  0.00    -0.055 Cl
ATOM     12  C   UNL     1      50.712  17.378  18.178  0.00  0.00    +0.068 A 
ATOM     13  C   UNL     1      50.466  18.638  18.692  0.00  0.00    +0.018 A 
ATOM     14  C   UNL     1      49.171  19.122  18.759  0.00  0.00    +0.143 A 
ENDROOT
BRANCH   8   7
ATOM      6  C   UNL     1      45.660  19.211  18.441  0.00  0.00    -0.041 C 
ATOM      7  C   UNL     1      46.761  18.812  18.383  0.00  0.00    -0.067 C 
BRANCH   6   5
ATOM      4  C   UNL     1      43.264  20.079  18.569  0.00  0.00    -0.001 C 
ATOM      5  C   UNL     1      44.366  19.679  18.510  0.00  0.00    -0.034 C 
BRANCH   4   3
ATOM      1  C   UNL     1      39.485  21.447  18.767  0.00  0.00    +0.228 C 
ATOM      2  C   UNL     1      40.868  20.947  18.694  0.00  0.00    -0.091 C 
ATOM      3  C   UNL     1      41.970  20.547  18.637  0.00  0.00    -0.108 C 
ENDBRANCH   4   3
ENDBRANCH   6   5
ENDBRANCH   8   7
BRANCH  14  15
ATOM     15  O   UNL     1      48.930  20.362  19.259  0.00  0.00    -0.488 OA
ATOM     16  H   UNL     1      48.096  20.436  19.743  0.00  0.00    +0.399 HD
ENDBRANCH  14  15
TORSDOF 4
ENDMDL
MODEL 7
REMARK VINA RESULT:      -4.0      4.404      5.235
REMARK  Name = ZINC95486300
REMARK  5 active torsions:
REMARK  status: ('A' for Active; 'I' for Inactive)
REMARK    1  A    between atoms: C1_1  and  C2_2
REMARK    2  A    between atoms: C3_3  and  C4_4
REMARK    3  A    between atoms: C5_5  and  C6_6
REMARK    4  A    between atoms: C7_7  and  C8_8
REMARK    5  A    between atoms: C13_13  and  O1_14
REMARK                            x       y       z     vdW  Elec       q    Type
REMARK                         _______ _______ _______ _____ _____    ______ ____
ROOT
ATOM      8  C   UNL     1      44.858  20.790  19.215  0.00  0.00    -0.007 A 
ATOM      9  C   UNL     1      45.754  21.615  19.903  0.00  0.00    +0.080 A 
ATOM     10  C   UNL     1      45.320  22.818  20.421  0.00  0.00    -0.046 A 
ATOM     11 CL   UNL     1      46.433  23.841  21.276  0.00  0.00    -0.055 Cl
ATOM     12  C   UNL     1      44.001  23.213  20.263  0.00  0.00    +0.068 A 
ATOM     13  C   UNL     1      43.107  22.406  19.584  0.00  0.00    +0.018 A 
ATOM     14  C   UNL     1      43.524  21.198  19.053  0.00  0.00    +0.143 A 
ENDROOT
BRANCH   8   7
ATOM      6  C   UNL     1      45.660  18.514  18.233  0.00  0.00    -0.041 C 
ATOM      7  C   UNL     1      45.299  19.539  18.674  0.00  0.00    -0.067 C 
BRANCH   6   5
ATOM      4  C   UNL     1      46.444  16.285  17.271  0.00  0.00    -0.001 C 
ATOM      5  C   UNL     1      46.083  17.311  17.714  0.00  0.00    -0.034 C 
BRANCH   4   3
ATOM      1  C   UNL     1      47.681  12.768  15.757  0.00  0.00    +0.228 C 
ATOM      2  C   UNL     1      47.228  14.055  16.311  0.00  0.00    -0.091 C 
ATOM      3  C   UNL     1      46.868  15.081  16.753  0.00  0.00    -0.108 C 
ENDBRANCH   4   3
ENDBRANCH   6   5
ENDBRANCH   8   7
BRANCH  14  15
ATOM     15  O   UNL     1      42.647  20.407  18.381  0.00  0.00    -0.488 OA
ATOM     16  H   UNL     1      42.429  19.584  18.839  0.00  0.00    +0.399 HD
ENDBRANCH  14  15
TORSDOF 4
ENDMDL
MODEL 8
REMARK VINA RESULT:      -3.9      4.138      8.346
REMARK  Name = ZINC95486300
REMARK  5 active torsions:
REMARK  status: ('A' for Active; 'I' for Inactive)
REMARK    1  A    between atoms: C1_1  and  C2_2
REMARK    2  A    between atoms: C3_3  and  C4_4
REMARK    3  A    between atoms: C5_5  and  C6_6
REMARK    4  A    between atoms: C7_7  and  C8_8
REMARK    5  A    between atoms: C13_13  and  O1_14
REMARK                            x       y       z     vdW  Elec       q    Type
REMARK                         _______ _______ _______ _____ _____    ______ ____
ROOT
ATOM      8  C   UNL     1      49.438  19.016  18.578  0.00  0.00    -0.007 A 
ATOM      9  C   UNL     1      49.895  17.993  17.741  0.00  0.00    +0.080 A 
ATOM     10  C   UNL     1      51.244  17.710  17.676  0.00  0.00    -0.046 A 
ATOM     11 CL   UNL     1      51.810  16.439  16.636  0.00  0.00    -0.055 Cl
ATOM     12  C   UNL     1      52.148  18.434  18.436  0.00  0.00    +0.068 A 
ATOM     13  C   UNL     1      51.708  19.448  19.266  0.00  0.00    +0.018 A 
ATOM     14  C   UNL     1      50.359  19.750  19.342  0.00  0.00    +0.143 A 
ENDROOT
BRANCH   8   7
ATOM      6  C   UNL     1      46.894  19.560  18.716  0.00  0.00    -0.041 C 
ATOM      7  C   UNL     1      48.039  19.315  18.653  0.00  0.00    -0.067 C 
BRANCH   6   5
ATOM      4  C   UNL     1      44.403  20.093  18.853  0.00  0.00    -0.001 C 
ATOM      5  C   UNL     1      45.549  19.848  18.789  0.00  0.00    -0.034 C 
BRANCH   4   3
ATOM      1  C   UNL     1      40.474  20.936  19.073  0.00  0.00    +0.228 C 
ATOM      2  C   UNL     1      41.912  20.627  18.993  0.00  0.00    -0.091 C 
ATOM      3  C   UNL     1      43.058  20.381  18.928  0.00  0.00    -0.108 C 
ENDBRANCH   4   3
ENDBRANCH   6   5
ENDBRANCH   8   7
BRANCH  14  15
ATOM     15  O   UNL     1      49.927  20.750  20.154  0.00  0.00    -0.488 OA
ATOM     16  H   UNL     1      50.283  21.620  19.930  0.00  0.00    +0.399 HD
ENDBRANCH  14  15
TORSDOF 4
ENDMDL
MODEL 9
REMARK VINA RESULT:      -3.9     21.755     22.899
REMARK  Name = ZINC95486300
REMARK  5 active torsions:
REMARK  status: ('A' for Active; 'I' for Inactive)
REMARK    1  A    between atoms: C1_1  and  C2_2
REMARK    2  A    between atoms: C3_3  and  C4_4
REMARK    3  A    between atoms: C5_5  and  C6_6
REMARK    4  A    between atoms: C7_7  and  C8_8
REMARK    5  A    between atoms: C13_13  and  O1_14
REMARK                            x       y       z     vdW  Elec       q    Type
REMARK                         _______ _______ _______ _____ _____    ______ ____
ROOT
ATOM      8  C   UNL     1      52.145  33.847   4.469  0.00  0.00    -0.007 A 
ATOM      9  C   UNL     1      52.941  32.964   3.734  0.00  0.00    +0.080 A 
ATOM     10  C   UNL     1      54.246  32.733   4.118  0.00  0.00    -0.046 A 
ATOM     11 CL   UNL     1      55.234  31.636   3.204  0.00  0.00    -0.055 Cl
ATOM     12  C   UNL     1      54.772  33.374   5.229  0.00  0.00    +0.068 A 
ATOM     13  C   UNL     1      53.994  34.249   5.963  0.00  0.00    +0.018 A 
ATOM     14  C   UNL     1      52.684  34.497   5.591  0.00  0.00    +0.143 A 
ENDROOT
BRANCH   8   7
ATOM      6  C   UNL     1      49.678  34.290   3.757  0.00  0.00    -0.041 C 
ATOM      7  C   UNL     1      50.789  34.092   4.078  0.00  0.00    -0.067 C 
BRANCH   6   5
ATOM      4  C   UNL     1      47.262  34.722   3.061  0.00  0.00    -0.001 C 
ATOM      5  C   UNL     1      48.374  34.524   3.381  0.00  0.00    -0.034 C 
BRANCH   4   3
ATOM      1  C   UNL     1      43.451  35.401   1.966  0.00  0.00    +0.228 C 
ATOM      2  C   UNL     1      44.845  35.153   2.367  0.00  0.00    -0.091 C 
ATOM      3  C   UNL     1      45.957  34.955   2.686  0.00  0.00    -0.108 C 
ENDBRANCH   4   3
ENDBRANCH   6   5
ENDBRANCH   8   7
BRANCH  14  15
ATOM     15  O   UNL     1      51.921  35.362   6.310  0.00  0.00    -0.488 OA
ATOM     16  H   UNL     1      52.112  35.359   7.258  0.00  0.00    +0.399 HD
ENDBRANCH  14  15
TORSDOF 4
ENDMDL
