MODEL 1
REMARK VINA RESULT:      -7.6      0.000      0.000
REMARK  Name = ZINC02026346
REMARK  9 active torsions:
REMARK  status: ('A' for Active; 'I' for Inactive)
REMARK    1  A    between atoms: C4_4  and  C7_7
REMARK    2  A    between atoms: C7_7  and  C8_8
REMARK    3  A    between atoms: C8_8  and  C9_9
REMARK    4  A    between atoms: C9_9  and  C10_11
REMARK    5  A    between atoms: C11_12  and  O5_34
REMARK    6  A    between atoms: C14_15  and  C16_18
REMARK    7  A    between atoms: C15_16  and  O2_17
REMARK    8  A    between atoms: C16_18  and  C17_19
REMARK    9  A    between atoms: C22_24  and  O3_25
REMARK                            x       y       z     vdW  Elec       q    Type
REMARK                         _______ _______ _______ _____ _____    ______ ____
ROOT
ATOM      8  C   UNL     1      46.794  19.726  19.362  0.00  0.00    -0.253 A 
ATOM      9  C   UNL     1      46.219  18.695  18.596  0.00  0.00    +0.219 A 
ATOM     12  C   UNL     1      47.027  17.755  17.981  0.00  0.00    -0.203 A 
ATOM     13  C   UNL     1      48.407  17.826  18.118  0.00  0.00    +0.189 A 
ATOM     14  O   UNL     1      49.212  16.916  17.524  0.00  0.00    -0.232 OA
ATOM     15  C   UNL     1      48.717  15.714  17.143  0.00  0.00    +0.107 A 
ATOM     16  C   UNL     1      49.593  14.653  16.940  0.00  0.00    +0.008 A 
ATOM     17  C   UNL     1      49.109  13.421  16.551  0.00  0.00    +0.046 A 
ATOM     18  C   UNL     1      47.751  13.239  16.363  0.00  0.00    -0.004 A 
ATOM     19  C   UNL     1      46.878  14.290  16.565  0.00  0.00    +0.047 A 
ATOM     20  C   UNL     1      47.358  15.530  16.955  0.00  0.00    -0.141 A 
ATOM     21  C   UNL     1      48.985  18.842  18.876  0.00  0.00    -0.145 A 
ATOM     31  C   UNL     1      46.391  16.662  17.166  0.00  0.00    +0.164 C 
ATOM     32  C   UNL     1      48.194  19.792  19.493  0.00  0.00    +0.219 A 
ENDROOT
BRANCH   8   7
ATOM      7  C   UNL     1      45.946  20.721  20.013  0.00  0.00    +0.400 C 
ATOM     35  O   UNL     1      45.850  20.741  21.223  0.00  0.00    -0.443 OA
BRANCH   7   6
ATOM      6  C   UNL     1      45.188  21.724  19.181  0.00  0.00    +0.061 C 
BRANCH   6   5
ATOM      5  C   UNL     1      44.004  22.264  19.987  0.00  0.00    +0.076 C 
BRANCH   5   4
ATOM      1  C   UNL     1      40.384  20.517  18.542  0.00  0.00    -0.005 A 
ATOM      2  C   UNL     1      41.305  19.739  19.219  0.00  0.00    +0.004 A 
ATOM      3  C   UNL     1      42.477  20.304  19.686  0.00  0.00    +0.006 A 
ATOM      4  C   UNL     1      42.727  21.648  19.477  0.00  0.00    -0.079 A 
ATOM     36  C   UNL     1      41.803  22.426  18.805  0.00  0.00    +0.002 A 
ATOM     37  C   UNL     1      40.635  21.860  18.332  0.00  0.00    +0.003 A 
ENDBRANCH   5   4
ENDBRANCH   6   5
ENDBRANCH   7   6
ENDBRANCH   8   7
BRANCH   9  10
ATOM     10  O   UNL     1      44.871  18.623  18.460  0.00  0.00    -0.472 OA
ATOM     11  H   UNL     1      44.442  19.481  18.340  0.00  0.00    +0.400 HD
ENDBRANCH   9  10
BRANCH  32  33
ATOM     33  O   UNL     1      48.763  20.783  20.223  0.00  0.00    -0.454 OA
ATOM     34  H   UNL     1      48.668  21.663  19.834  0.00  0.00    +0.391 HD
ENDBRANCH  32  33
BRANCH  21  22
ATOM     22  C   UNL     1      50.483  18.911  19.019  0.00  0.00    +0.153 C 
BRANCH  22  23
ATOM     23  C   UNL     1      51.076  19.555  17.793  0.00  0.00    -0.108 A 
ATOM     24  C   UNL     1      50.870  20.899  17.550  0.00  0.00    +0.031 A 
ATOM     25  C   UNL     1      51.419  21.492  16.428  0.00  0.00    -0.009 A 
ATOM     26  C   UNL     1      52.167  20.740  15.541  0.00  0.00    +0.019 A 
ATOM     27  C   UNL     1      52.371  19.394  15.777  0.00  0.00    -0.024 A 
ATOM     28  C   UNL     1      51.826  18.798  16.905  0.00  0.00    +0.119 A 
BRANCH  28  29
ATOM     29  O   UNL     1      52.026  17.474  17.139  0.00  0.00    -0.471 OA
ATOM     30  H   UNL     1      51.337  16.902  16.774  0.00  0.00    +0.381 HD
ENDBRANCH  28  29
ENDBRANCH  22  23
ENDBRANCH  21  22
TORSDOF 9
ENDMDL
MODEL 2
REMARK VINA RESULT:      -7.3      1.951      5.003
REMARK  Name = ZINC02026346
REMARK  9 active torsions:
REMARK  status: ('A' for Active; 'I' for Inactive)
REMARK    1  A    between atoms: C4_4  and  C7_7
REMARK    2  A    between atoms: C7_7  and  C8_8
REMARK    3  A    between atoms: C8_8  and  C9_9
REMARK    4  A    between atoms: C9_9  and  C10_11
REMARK    5  A    between atoms: C11_12  and  O5_34
REMARK    6  A    between atoms: C14_15  and  C16_18
REMARK    7  A    between atoms: C15_16  and  O2_17
REMARK    8  A    between atoms: C16_18  and  C17_19
REMARK    9  A    between atoms: C22_24  and  O3_25
REMARK                            x       y       z     vdW  Elec       q    Type
REMARK                         _______ _______ _______ _____ _____    ______ ____
ROOT
ATOM      8  C   UNL     1      46.324  19.657  20.567  0.00  0.00    -0.253 A 
ATOM      9  C   UNL     1      47.515  20.376  20.361  0.00  0.00    +0.219 A 
ATOM     12  C   UNL     1      48.505  19.859  19.543  0.00  0.00    -0.203 A 
ATOM     13  C   UNL     1      48.323  18.629  18.924  0.00  0.00    +0.189 A 
ATOM     14  O   UNL     1      49.279  18.107  18.121  0.00  0.00    -0.232 OA
ATOM     15  C   UNL     1      50.223  18.911  17.575  0.00  0.00    +0.107 A 
ATOM     16  C   UNL     1      50.916  18.477  16.450  0.00  0.00    +0.008 A 
ATOM     17  C   UNL     1      51.881  19.280  15.878  0.00  0.00    +0.046 A 
ATOM     18  C   UNL     1      52.161  20.520  16.424  0.00  0.00    -0.004 A 
ATOM     19  C   UNL     1      51.475  20.955  17.541  0.00  0.00    +0.047 A 
ATOM     20  C   UNL     1      50.505  20.153  18.119  0.00  0.00    -0.141 A 
ATOM     21  C   UNL     1      47.146  17.911  19.122  0.00  0.00    -0.145 A 
ATOM     31  C   UNL     1      49.771  20.644  19.336  0.00  0.00    +0.164 C 
ATOM     32  C   UNL     1      46.151  18.410  19.939  0.00  0.00    +0.219 A 
ENDROOT
BRANCH   8   7
ATOM      7  C   UNL     1      45.277  20.199  21.431  0.00  0.00    +0.400 C 
ATOM     35  O   UNL     1      45.011  19.650  22.480  0.00  0.00    -0.443 OA
BRANCH   7   6
ATOM      6  C   UNL     1      44.528  21.440  21.019  0.00  0.00    +0.061 C 
BRANCH   6   5
ATOM      5  C   UNL     1      44.306  21.422  19.505  0.00  0.00    +0.076 C 
BRANCH   5   4
ATOM      1  C   UNL     1      40.189  20.642  18.677  0.00  0.00    -0.005 A 
ATOM      2  C   UNL     1      41.033  19.604  19.025  0.00  0.00    +0.004 A 
ATOM      3  C   UNL     1      42.365  19.856  19.292  0.00  0.00    +0.006 A 
ATOM      4  C   UNL     1      42.854  21.146  19.213  0.00  0.00    -0.079 A 
ATOM     36  C   UNL     1      42.008  22.185  18.869  0.00  0.00    +0.002 A 
ATOM     37  C   UNL     1      40.678  21.932  18.596  0.00  0.00    +0.003 A 
ENDBRANCH   5   4
ENDBRANCH   6   5
ENDBRANCH   7   6
ENDBRANCH   8   7
BRANCH   9  10
ATOM     10  O   UNL     1      47.695  21.578  20.965  0.00  0.00    -0.472 OA
ATOM     11  H   UNL     1      47.768  22.320  20.350  0.00  0.00    +0.400 HD
ENDBRANCH   9  10
BRANCH  32  33
ATOM     33  O   UNL     1      45.010  17.703  20.133  0.00  0.00    -0.454 OA
ATOM     34  H   UNL     1      45.117  16.933  20.709  0.00  0.00    +0.391 HD
ENDBRANCH  32  33
BRANCH  21  22
ATOM     22  C   UNL     1      46.960  16.578  18.446  0.00  0.00    +0.153 C 
BRANCH  22  23
ATOM     23  C   UNL     1      47.289  15.472  19.414  0.00  0.00    -0.108 A 
ATOM     24  C   UNL     1      48.595  15.278  19.825  0.00  0.00    +0.031 A 
ATOM     25  C   UNL     1      48.898  14.267  20.717  0.00  0.00    -0.009 A 
ATOM     26  C   UNL     1      47.897  13.441  21.195  0.00  0.00    +0.019 A 
ATOM     27  C   UNL     1      46.591  13.627  20.784  0.00  0.00    -0.024 A 
ATOM     28  C   UNL     1      46.284  14.645  19.892  0.00  0.00    +0.119 A 
BRANCH  28  29
ATOM     29  O   UNL     1      45.000  14.829  19.486  0.00  0.00    -0.471 OA
ATOM     30  H   UNL     1      44.863  14.689  18.539  0.00  0.00    +0.381 HD
ENDBRANCH  28  29
ENDBRANCH  22  23
ENDBRANCH  21  22
TORSDOF 9
ENDMDL
MODEL 3
REMARK VINA RESULT:      -7.2      1.772      7.664
REMARK  Name = ZINC02026346
REMARK  9 active torsions:
REMARK  status: ('A' for Active; 'I' for Inactive)
REMARK    1  A    between atoms: C4_4  and  C7_7
REMARK    2  A    between atoms: C7_7  and  C8_8
REMARK    3  A    between atoms: C8_8  and  C9_9
REMARK    4  A    between atoms: C9_9  and  C10_11
REMARK    5  A    between atoms: C11_12  and  O5_34
REMARK    6  A    between atoms: C14_15  and  C16_18
REMARK    7  A    between atoms: C15_16  and  O2_17
REMARK    8  A    between atoms: C16_18  and  C17_19
REMARK    9  A    between atoms: C22_24  and  O3_25
REMARK                            x       y       z     vdW  Elec       q    Type
REMARK                         _______ _______ _______ _____ _____    ______ ____
ROOT
ATOM      8  C   UNL     1      49.823  17.534  19.700  0.00  0.00    -0.253 A 
ATOM      9  C   UNL     1      49.313  18.742  20.210  0.00  0.00    +0.219 A 
ATOM     12  C   UNL     1      48.129  19.259  19.713  0.00  0.00    -0.203 A 
ATOM     13  C   UNL     1      47.443  18.589  18.709  0.00  0.00    +0.189 A 
ATOM     14  O   UNL     1      46.286  19.080  18.210  0.00  0.00    -0.232 OA
ATOM     15  C   UNL     1      45.562  19.976  18.924  0.00  0.00    +0.107 A 
ATOM     16  C   UNL     1      44.213  20.146  18.631  0.00  0.00    +0.008 A 
ATOM     17  C   UNL     1      43.459  21.054  19.346  0.00  0.00    +0.046 A 
ATOM     18  C   UNL     1      44.043  21.794  20.358  0.00  0.00    -0.004 A 
ATOM     19  C   UNL     1      45.383  21.627  20.652  0.00  0.00    +0.047 A 
ATOM     20  C   UNL     1      46.145  20.718  19.937  0.00  0.00    -0.141 A 
ATOM     21  C   UNL     1      47.941  17.392  18.199  0.00  0.00    -0.145 A 
ATOM     31  C   UNL     1      47.602  20.553  20.273  0.00  0.00    +0.164 C 
ATOM     32  C   UNL     1      49.123  16.863  18.679  0.00  0.00    +0.219 A 
ENDROOT
BRANCH   8   7
ATOM      7  C   UNL     1      51.073  16.984  20.221  0.00  0.00    +0.400 C 
ATOM     35  O   UNL     1      51.059  15.965  20.881  0.00  0.00    -0.443 OA
BRANCH   7   6
ATOM      6  C   UNL     1      52.378  17.682  19.938  0.00  0.00    +0.061 C 
BRANCH   6   5
ATOM      5  C   UNL     1      52.704  17.570  18.447  0.00  0.00    +0.076 C 
BRANCH   5   4
ATOM      1  C   UNL     1      51.486  21.144  16.451  0.00  0.00    -0.005 A 
ATOM      2  C   UNL     1      51.610  19.964  15.742  0.00  0.00    +0.004 A 
ATOM      3  C   UNL     1      52.005  18.808  16.387  0.00  0.00    +0.006 A 
ATOM      4  C   UNL     1      52.274  18.830  17.743  0.00  0.00    -0.079 A 
ATOM     36  C   UNL     1      52.145  20.010  18.453  0.00  0.00    +0.002 A 
ATOM     37  C   UNL     1      51.757  21.167  17.807  0.00  0.00    +0.003 A 
ENDBRANCH   5   4
ENDBRANCH   6   5
ENDBRANCH   7   6
ENDBRANCH   8   7
BRANCH   9  10
ATOM     10  O   UNL     1      49.981  19.400  21.190  0.00  0.00    -0.472 OA
ATOM     11  H   UNL     1      50.545  18.831  21.731  0.00  0.00    +0.400 HD
ENDBRANCH   9  10
BRANCH  32  33
ATOM     33  O   UNL     1      49.606  15.701  18.174  0.00  0.00    -0.454 OA
ATOM     34  H   UNL     1      50.122  15.182  18.805  0.00  0.00    +0.391 HD
ENDBRANCH  32  33
BRANCH  21  22
ATOM     22  C   UNL     1      47.189  16.672  17.110  0.00  0.00    +0.153 C 
BRANCH  22  23
ATOM     23  C   UNL     1      46.560  15.424  17.673  0.00  0.00    -0.108 A 
ATOM     24  C   UNL     1      45.954  15.454  18.914  0.00  0.00    +0.031 A 
ATOM     25  C   UNL     1      45.372  14.311  19.429  0.00  0.00    -0.009 A 
ATOM     26  C   UNL     1      45.403  13.132  18.708  0.00  0.00    +0.019 A 
ATOM     27  C   UNL     1      46.013  13.095  17.469  0.00  0.00    -0.024 A 
ATOM     28  C   UNL     1      46.593  14.242  16.948  0.00  0.00    +0.119 A 
BRANCH  28  29
ATOM     29  O   UNL     1      47.193  14.208  15.729  0.00  0.00    -0.471 OA
ATOM     30  H   UNL     1      48.147  14.366  15.756  0.00  0.00    +0.381 HD
ENDBRANCH  28  29
ENDBRANCH  22  23
ENDBRANCH  21  22
TORSDOF 9
ENDMDL
MODEL 4
REMARK VINA RESULT:      -7.1      1.097      1.538
REMARK  Name = ZINC02026346
REMARK  9 active torsions:
REMARK  status: ('A' for Active; 'I' for Inactive)
REMARK    1  A    between atoms: C4_4  and  C7_7
REMARK    2  A    between atoms: C7_7  and  C8_8
REMARK    3  A    between atoms: C8_8  and  C9_9
REMARK    4  A    between atoms: C9_9  and  C10_11
REMARK    5  A    between atoms: C11_12  and  O5_34
REMARK    6  A    between atoms: C14_15  and  C16_18
REMARK    7  A    between atoms: C15_16  and  O2_17
REMARK    8  A    between atoms: C16_18  and  C17_19
REMARK    9  A    between atoms: C22_24  and  O3_25
REMARK                            x       y       z     vdW  Elec       q    Type
REMARK                         _______ _______ _______ _____ _____    ______ ____
ROOT
ATOM      8  C   UNL     1      47.053  18.297  20.128  0.00  0.00    -0.253 A 
ATOM      9  C   UNL     1      46.501  17.373  19.222  0.00  0.00    +0.219 A 
ATOM     12  C   UNL     1      47.323  16.684  18.347  0.00  0.00    -0.203 A 
ATOM     13  C   UNL     1      48.694  16.903  18.362  0.00  0.00    +0.189 A 
ATOM     14  O   UNL     1      49.513  16.240  17.514  0.00  0.00    -0.232 OA
ATOM     15  C   UNL     1      49.105  15.084  16.938  0.00  0.00    +0.107 A 
ATOM     16  C   UNL     1      50.057  14.205  16.432  0.00  0.00    +0.008 A 
ATOM     17  C   UNL     1      49.662  13.022  15.841  0.00  0.00    +0.046 A 
ATOM     18  C   UNL     1      48.318  12.708  15.752  0.00  0.00    -0.004 A 
ATOM     19  C   UNL     1      47.370  13.578  16.254  0.00  0.00    +0.047 A 
ATOM     20  C   UNL     1      47.760  14.767  16.848  0.00  0.00    -0.141 A 
ATOM     21  C   UNL     1      49.249  17.815  19.257  0.00  0.00    -0.145 A 
ATOM     31  C   UNL     1      46.712  15.701  17.386  0.00  0.00    +0.164 C 
ATOM     32  C   UNL     1      48.443  18.515  20.133  0.00  0.00    +0.219 A 
ENDROOT
BRANCH   8   7
ATOM      7  C   UNL     1      46.189  19.027  21.053  0.00  0.00    +0.400 C 
ATOM     35  O   UNL     1      45.617  18.436  21.946  0.00  0.00    -0.443 OA
BRANCH   7   6
ATOM      6  C   UNL     1      46.007  20.515  20.898  0.00  0.00    +0.061 C 
BRANCH   6   5
ATOM      5  C   UNL     1      45.739  20.846  19.428  0.00  0.00    +0.076 C 
BRANCH   5   4
ATOM      1  C   UNL     1      41.579  21.644  18.882  0.00  0.00    -0.005 A 
ATOM      2  C   UNL     1      42.421  22.644  19.332  0.00  0.00    +0.004 A 
ATOM      3  C   UNL     1      43.768  22.386  19.509  0.00  0.00    +0.006 A 
ATOM      4  C   UNL     1      44.272  21.128  19.236  0.00  0.00    -0.079 A 
ATOM     36  C   UNL     1      43.430  20.130  18.781  0.00  0.00    +0.002 A 
ATOM     37  C   UNL     1      42.083  20.386  18.610  0.00  0.00    +0.003 A 
ENDBRANCH   5   4
ENDBRANCH   6   5
ENDBRANCH   7   6
ENDBRANCH   8   7
BRANCH   9  10
ATOM     10  O   UNL     1      45.162  17.157  19.205  0.00  0.00    -0.472 OA
ATOM     11  H   UNL     1      44.800  16.866  20.052  0.00  0.00    +0.400 HD
ENDBRANCH   9  10
BRANCH  32  33
ATOM     33  O   UNL     1      48.989  19.407  20.997  0.00  0.00    -0.454 OA
ATOM     34  H   UNL     1      48.460  20.206  21.123  0.00  0.00    +0.391 HD
ENDBRANCH  32  33
BRANCH  21  22
ATOM     22  C   UNL     1      50.738  18.046  19.265  0.00  0.00    +0.153 C 
BRANCH  22  23
ATOM     23  C   UNL     1      51.099  19.038  18.190  0.00  0.00    -0.108 A 
ATOM     24  C   UNL     1      50.726  20.363  18.317  0.00  0.00    +0.031 A 
ATOM     25  C   UNL     1      51.061  21.274  17.334  0.00  0.00    -0.009 A 
ATOM     26  C   UNL     1      51.763  20.862  16.216  0.00  0.00    +0.019 A 
ATOM     27  C   UNL     1      52.133  19.538  16.081  0.00  0.00    -0.024 A 
ATOM     28  C   UNL     1      51.802  18.622  17.070  0.00  0.00    +0.119 A 
BRANCH  28  29
ATOM     29  O   UNL     1      52.166  17.319  16.939  0.00  0.00    -0.471 OA
ATOM     30  H   UNL     1      51.425  16.698  16.985  0.00  0.00    +0.381 HD
ENDBRANCH  28  29
ENDBRANCH  22  23
ENDBRANCH  21  22
TORSDOF 9
ENDMDL
MODEL 5
REMARK VINA RESULT:      -7.0      3.009      8.337
REMARK  Name = ZINC02026346
REMARK  9 active torsions:
REMARK  status: ('A' for Active; 'I' for Inactive)
REMARK    1  A    between atoms: C4_4  and  C7_7
REMARK    2  A    between atoms: C7_7  and  C8_8
REMARK    3  A    between atoms: C8_8  and  C9_9
REMARK    4  A    between atoms: C9_9  and  C10_11
REMARK    5  A    between atoms: C11_12  and  O5_34
REMARK    6  A    between atoms: C14_15  and  C16_18
REMARK    7  A    between atoms: C15_16  and  O2_17
REMARK    8  A    between atoms: C16_18  and  C17_19
REMARK    9  A    between atoms: C22_24  and  O3_25
REMARK                            x       y       z     vdW  Elec       q    Type
REMARK                         _______ _______ _______ _____ _____    ______ ____
ROOT
ATOM      8  C   UNL     1      49.145  14.423  16.678  0.00  0.00    -0.253 A 
ATOM      9  C   UNL     1      47.873  14.963  16.946  0.00  0.00    +0.219 A 
ATOM     12  C   UNL     1      47.757  16.150  17.647  0.00  0.00    -0.203 A 
ATOM     13  C   UNL     1      48.895  16.812  18.088  0.00  0.00    +0.189 A 
ATOM     14  O   UNL     1      48.801  17.973  18.775  0.00  0.00    -0.232 OA
ATOM     15  C   UNL     1      47.675  18.722  18.698  0.00  0.00    +0.107 A 
ATOM     16  C   UNL     1      47.731  20.070  19.034  0.00  0.00    +0.008 A 
ATOM     17  C   UNL     1      46.595  20.849  18.962  0.00  0.00    +0.046 A 
ATOM     18  C   UNL     1      45.397  20.291  18.554  0.00  0.00    -0.004 A 
ATOM     19  C   UNL     1      45.338  18.952  18.219  0.00  0.00    +0.047 A 
ATOM     20  C   UNL     1      46.475  18.164  18.289  0.00  0.00    -0.141 A 
ATOM     21  C   UNL     1      50.158  16.286  17.826  0.00  0.00    -0.145 A 
ATOM     31  C   UNL     1      46.387  16.709  17.922  0.00  0.00    +0.164 C 
ATOM     32  C   UNL     1      50.292  15.099  17.132  0.00  0.00    +0.219 A 
ENDROOT
BRANCH   8   7
ATOM      7  C   UNL     1      49.272  13.169  15.938  0.00  0.00    +0.400 C 
ATOM     35  O   UNL     1      49.036  12.113  16.488  0.00  0.00    -0.443 OA
BRANCH   7   6
ATOM      6  C   UNL     1      49.697  13.188  14.492  0.00  0.00    +0.061 C 
BRANCH   6   5
ATOM      5  C   UNL     1      50.674  12.038  14.233  0.00  0.00    +0.076 C 
BRANCH   5   4
ATOM      1  C   UNL     1      51.492  11.781  10.049  0.00  0.00    -0.005 A 
ATOM      2  C   UNL     1      51.597  10.655  10.845  0.00  0.00    +0.004 A 
ATOM      3  C   UNL     1      51.333  10.738  12.199  0.00  0.00    +0.006 A 
ATOM      4  C   UNL     1      50.962  11.947  12.758  0.00  0.00    -0.079 A 
ATOM     36  C   UNL     1      50.853  13.072  11.961  0.00  0.00    +0.002 A 
ATOM     37  C   UNL     1      51.123  12.990  10.608  0.00  0.00    +0.003 A 
ENDBRANCH   5   4
ENDBRANCH   6   5
ENDBRANCH   7   6
ENDBRANCH   8   7
BRANCH   9  10
ATOM     10  O   UNL     1      46.759  14.318  16.516  0.00  0.00    -0.472 OA
ATOM     11  H   UNL     1      46.638  13.441  16.904  0.00  0.00    +0.400 HD
ENDBRANCH   9  10
BRANCH  32  33
ATOM     33  O   UNL     1      51.525  14.589  16.887  0.00  0.00    -0.454 OA
ATOM     34  H   UNL     1      51.670  13.712  17.267  0.00  0.00    +0.391 HD
ENDBRANCH  32  33
BRANCH  21  22
ATOM     22  C   UNL     1      51.387  17.011  18.309  0.00  0.00    +0.153 C 
BRANCH  22  23
ATOM     23  C   UNL     1      51.510  18.329  17.588  0.00  0.00    -0.108 A 
ATOM     24  C   UNL     1      51.691  18.353  16.219  0.00  0.00    +0.031 A 
ATOM     25  C   UNL     1      51.799  19.561  15.555  0.00  0.00    -0.009 A 
ATOM     26  C   UNL     1      51.735  20.748  16.262  0.00  0.00    +0.019 A 
ATOM     27  C   UNL     1      51.559  20.729  17.632  0.00  0.00    -0.024 A 
ATOM     28  C   UNL     1      51.445  19.518  18.299  0.00  0.00    +0.119 A 
BRANCH  28  29
ATOM     29  O   UNL     1      51.272  19.497  19.647  0.00  0.00    -0.471 OA
ATOM     30  H   UNL     1      50.403  19.174  19.926  0.00  0.00    +0.381 HD
ENDBRANCH  28  29
ENDBRANCH  22  23
ENDBRANCH  21  22
TORSDOF 9
ENDMDL
MODEL 6
REMARK VINA RESULT:      -6.7      1.492      2.236
REMARK  Name = ZINC02026346
REMARK  9 active torsions:
REMARK  status: ('A' for Active; 'I' for Inactive)
REMARK    1  A    between atoms: C4_4  and  C7_7
REMARK    2  A    between atoms: C7_7  and  C8_8
REMARK    3  A    between atoms: C8_8  and  C9_9
REMARK    4  A    between atoms: C9_9  and  C10_11
REMARK    5  A    between atoms: C11_12  and  O5_34
REMARK    6  A    between atoms: C14_15  and  C16_18
REMARK    7  A    between atoms: C15_16  and  O2_17
REMARK    8  A    between atoms: C16_18  and  C17_19
REMARK    9  A    between atoms: C22_24  and  O3_25
REMARK                            x       y       z     vdW  Elec       q    Type
REMARK                         _______ _______ _______ _____ _____    ______ ____
ROOT
ATOM      8  C   UNL     1      47.513  17.284  19.515  0.00  0.00    -0.253 A 
ATOM      9  C   UNL     1      47.127  16.270  18.618  0.00  0.00    +0.219 A 
ATOM     12  C   UNL     1      48.062  15.703  17.769  0.00  0.00    -0.203 A 
ATOM     13  C   UNL     1      49.382  16.134  17.800  0.00  0.00    +0.189 A 
ATOM     14  O   UNL     1      50.309  15.592  16.977  0.00  0.00    -0.232 OA
ATOM     15  C   UNL     1      50.096  14.376  16.418  0.00  0.00    +0.107 A 
ATOM     16  C   UNL     1      51.182  13.648  15.943  0.00  0.00    +0.008 A 
ATOM     17  C   UNL     1      50.986  12.408  15.370  0.00  0.00    +0.046 A 
ATOM     18  C   UNL     1      49.709  11.886  15.268  0.00  0.00    -0.004 A 
ATOM     19  C   UNL     1      48.628  12.607  15.739  0.00  0.00    +0.047 A 
ATOM     20  C   UNL     1      48.818  13.852  16.315  0.00  0.00    -0.141 A 
ATOM     21  C   UNL     1      49.772  17.136  18.685  0.00  0.00    -0.145 A 
ATOM     31  C   UNL     1      47.628  14.620  16.819  0.00  0.00    +0.164 C 
ATOM     32  C   UNL     1      48.852  17.717  19.535  0.00  0.00    +0.219 A 
ENDROOT
BRANCH   8   7
ATOM      7  C   UNL     1      46.530  17.886  20.412  0.00  0.00    +0.400 C 
ATOM     35  O   UNL     1      45.974  17.205  21.250  0.00  0.00    -0.443 OA
BRANCH   7   6
ATOM      6  C   UNL     1      46.205  19.353  20.298  0.00  0.00    +0.061 C 
BRANCH   6   5
ATOM      5  C   UNL     1      45.630  19.642  18.909  0.00  0.00    +0.076 C 
BRANCH   5   4
ATOM      1  C   UNL     1      42.321  22.318  19.264  0.00  0.00    -0.005 A 
ATOM      2  C   UNL     1      42.117  21.020  18.835  0.00  0.00    +0.004 A 
ATOM      3  C   UNL     1      43.188  20.154  18.719  0.00  0.00    +0.006 A 
ATOM      4  C   UNL     1      44.463  20.585  19.034  0.00  0.00    -0.079 A 
ATOM     36  C   UNL     1      44.665  21.882  19.468  0.00  0.00    +0.002 A 
ATOM     37  C   UNL     1      43.596  22.750  19.577  0.00  0.00    +0.003 A 
ENDBRANCH   5   4
ENDBRANCH   6   5
ENDBRANCH   7   6
ENDBRANCH   8   7
BRANCH   9  10
ATOM     10  O   UNL     1      45.839  15.847  18.586  0.00  0.00    -0.472 OA
ATOM     11  H   UNL     1      45.209  16.526  18.309  0.00  0.00    +0.400 HD
ENDBRANCH   9  10
BRANCH  32  33
ATOM     33  O   UNL     1      49.237  18.697  20.390  0.00  0.00    -0.454 OA
ATOM     34  H   UNL     1      49.434  19.539  19.958  0.00  0.00    +0.391 HD
ENDBRANCH  32  33
BRANCH  21  22
ATOM     22  C   UNL     1      51.206  17.596  18.709  0.00  0.00    +0.153 C 
BRANCH  22  23
ATOM     23  C   UNL     1      51.365  18.796  17.812  0.00  0.00    -0.108 A 
ATOM     24  C   UNL     1      51.053  20.058  18.283  0.00  0.00    +0.031 A 
ATOM     25  C   UNL     1      51.204  21.160  17.462  0.00  0.00    -0.009 A 
ATOM     26  C   UNL     1      51.658  21.002  16.166  0.00  0.00    +0.019 A 
ATOM     27  C   UNL     1      51.967  19.743  15.689  0.00  0.00    -0.024 A 
ATOM     28  C   UNL     1      51.821  18.636  16.513  0.00  0.00    +0.119 A 
BRANCH  28  29
ATOM     29  O   UNL     1      52.125  17.396  16.046  0.00  0.00    -0.471 OA
ATOM     30  H   UNL     1      52.490  17.392  15.150  0.00  0.00    +0.381 HD
ENDBRANCH  28  29
ENDBRANCH  22  23
ENDBRANCH  21  22
TORSDOF 9
ENDMDL
MODEL 7
REMARK VINA RESULT:      -6.7      2.462      3.740
REMARK  Name = ZINC02026346
REMARK  9 active torsions:
REMARK  status: ('A' for Active; 'I' for Inactive)
REMARK    1  A    between atoms: C4_4  and  C7_7
REMARK    2  A    between atoms: C7_7  and  C8_8
REMARK    3  A    between atoms: C8_8  and  C9_9
REMARK    4  A    between atoms: C9_9  and  C10_11
REMARK    5  A    between atoms: C11_12  and  O5_34
REMARK    6  A    between atoms: C14_15  and  C16_18
REMARK    7  A    between atoms: C15_16  and  O2_17
REMARK    8  A    between atoms: C16_18  and  C17_19
REMARK    9  A    between atoms: C22_24  and  O3_25
REMARK                            x       y       z     vdW  Elec       q    Type
REMARK                         _______ _______ _______ _____ _____    ______ ____
ROOT
ATOM      8  C   UNL     1      45.717  15.949  20.269  0.00  0.00    -0.253 A 
ATOM      9  C   UNL     1      45.425  14.641  19.839  0.00  0.00    +0.219 A 
ATOM     12  C   UNL     1      45.831  14.216  18.586  0.00  0.00    -0.203 A 
ATOM     13  C   UNL     1      46.526  15.079  17.750  0.00  0.00    +0.189 A 
ATOM     14  O   UNL     1      46.930  14.681  16.521  0.00  0.00    -0.232 OA
ATOM     15  C   UNL     1      47.042  13.361  16.235  0.00  0.00    +0.107 A 
ATOM     16  C   UNL     1      47.840  12.964  15.167  0.00  0.00    +0.008 A 
ATOM     17  C   UNL     1      47.966  11.625  14.860  0.00  0.00    +0.046 A 
ATOM     18  C   UNL     1      47.301  10.675  15.613  0.00  0.00    -0.004 A 
ATOM     19  C   UNL     1      46.508  11.067  16.675  0.00  0.00    +0.047 A 
ATOM     20  C   UNL     1      46.376  12.409  16.989  0.00  0.00    -0.141 A 
ATOM     21  C   UNL     1      46.821  16.375  18.167  0.00  0.00    -0.145 A 
ATOM     31  C   UNL     1      45.507  12.814  18.147  0.00  0.00    +0.164 C 
ATOM     32  C   UNL     1      46.419  16.817  19.412  0.00  0.00    +0.219 A 
ENDROOT
BRANCH   8   7
ATOM      7  C   UNL     1      45.291  16.403  21.590  0.00  0.00    +0.400 C 
ATOM     35  O   UNL     1      46.103  16.516  22.485  0.00  0.00    -0.443 OA
BRANCH   7   6
ATOM      6  C   UNL     1      43.841  16.730  21.843  0.00  0.00    +0.061 C 
BRANCH   6   5
ATOM      5  C   UNL     1      43.705  18.217  22.179  0.00  0.00    +0.076 C 
BRANCH   5   4
ATOM      1  C   UNL     1      41.788  20.239  18.942  0.00  0.00    -0.005 A 
ATOM      2  C   UNL     1      43.168  20.210  19.019  0.00  0.00    +0.004 A 
ATOM      3  C   UNL     1      43.788  19.556  20.066  0.00  0.00    +0.006 A 
ATOM      4  C   UNL     1      43.029  18.930  21.037  0.00  0.00    -0.079 A 
ATOM     36  C   UNL     1      41.649  18.955  20.957  0.00  0.00    +0.002 A 
ATOM     37  C   UNL     1      41.028  19.614  19.914  0.00  0.00    +0.003 A 
ENDBRANCH   5   4
ENDBRANCH   6   5
ENDBRANCH   7   6
ENDBRANCH   8   7
BRANCH   9  10
ATOM     10  O   UNL     1      44.745  13.796  20.654  0.00  0.00    -0.472 OA
ATOM     11  H   UNL     1      44.927  12.861  20.491  0.00  0.00    +0.400 HD
ENDBRANCH   9  10
BRANCH  32  33
ATOM     33  O   UNL     1      46.704  18.083  19.810  0.00  0.00    -0.454 OA
ATOM     34  H   UNL     1      47.585  18.185  20.195  0.00  0.00    +0.391 HD
ENDBRANCH  32  33
BRANCH  21  22
ATOM     22  C   UNL     1      47.576  17.303  17.252  0.00  0.00    +0.153 C 
BRANCH  22  23
ATOM     23  C   UNL     1      49.047  17.238  17.572  0.00  0.00    -0.108 A 
ATOM     24  C   UNL     1      49.787  16.131  17.203  0.00  0.00    +0.031 A 
ATOM     25  C   UNL     1      51.138  16.072  17.491  0.00  0.00    -0.009 A 
ATOM     26  C   UNL     1      51.750  17.118  18.157  0.00  0.00    +0.019 A 
ATOM     27  C   UNL     1      51.014  18.225  18.533  0.00  0.00    -0.024 A 
ATOM     28  C   UNL     1      49.659  18.288  18.240  0.00  0.00    +0.119 A 
BRANCH  28  29
ATOM     29  O   UNL     1      48.933  19.376  18.609  0.00  0.00    -0.471 OA
ATOM     30  H   UNL     1      48.556  19.867  17.865  0.00  0.00    +0.381 HD
ENDBRANCH  28  29
ENDBRANCH  22  23
ENDBRANCH  21  22
TORSDOF 9
ENDMDL
MODEL 8
REMARK VINA RESULT:      -6.2      3.779      8.125
REMARK  Name = ZINC02026346
REMARK  9 active torsions:
REMARK  status: ('A' for Active; 'I' for Inactive)
REMARK    1  A    between atoms: C4_4  and  C7_7
REMARK    2  A    between atoms: C7_7  and  C8_8
REMARK    3  A    between atoms: C8_8  and  C9_9
REMARK    4  A    between atoms: C9_9  and  C10_11
REMARK    5  A    between atoms: C11_12  and  O5_34
REMARK    6  A    between atoms: C14_15  and  C16_18
REMARK    7  A    between atoms: C15_16  and  O2_17
REMARK    8  A    between atoms: C16_18  and  C17_19
REMARK    9  A    between atoms: C22_24  and  O3_25
REMARK                            x       y       z     vdW  Elec       q    Type
REMARK                         _______ _______ _______ _____ _____    ______ ____
ROOT
ATOM      8  C   UNL     1      50.952  13.999  17.768  0.00  0.00    -0.253 A 
ATOM      9  C   UNL     1      51.222  15.017  16.835  0.00  0.00    +0.219 A 
ATOM     12  C   UNL     1      50.868  16.325  17.114  0.00  0.00    -0.203 A 
ATOM     13  C   UNL     1      50.244  16.637  18.314  0.00  0.00    +0.189 A 
ATOM     14  O   UNL     1      49.889  17.910  18.603  0.00  0.00    -0.232 OA
ATOM     15  C   UNL     1      50.478  18.944  17.957  0.00  0.00    +0.107 A 
ATOM     16  C   UNL     1      50.440  20.212  18.530  0.00  0.00    +0.008 A 
ATOM     17  C   UNL     1      51.034  21.279  17.887  0.00  0.00    +0.046 A 
ATOM     18  C   UNL     1      51.668  21.090  16.673  0.00  0.00    -0.004 A 
ATOM     19  C   UNL     1      51.708  19.832  16.102  0.00  0.00    +0.047 A 
ATOM     20  C   UNL     1      51.113  18.757  16.741  0.00  0.00    -0.141 A 
ATOM     21  C   UNL     1      49.973  15.635  19.244  0.00  0.00    -0.145 A 
ATOM     31  C   UNL     1      51.166  17.398  16.101  0.00  0.00    +0.164 C 
ATOM     32  C   UNL     1      50.316  14.324  18.981  0.00  0.00    +0.219 A 
ENDROOT
BRANCH   8   7
ATOM      7  C   UNL     1      51.324  12.616  17.478  0.00  0.00    +0.400 C 
ATOM     35  O   UNL     1      52.489  12.278  17.526  0.00  0.00    -0.443 OA
BRANCH   7   6
ATOM      6  C   UNL     1      50.261  11.610  17.120  0.00  0.00    +0.061 C 
BRANCH   6   5
ATOM      5  C   UNL     1      49.439  12.135  15.941  0.00  0.00    +0.076 C 
BRANCH   5   4
ATOM      1  C   UNL     1      45.301  12.182  16.999  0.00  0.00    -0.005 A 
ATOM      2  C   UNL     1      46.135  13.198  17.425  0.00  0.00    +0.004 A 
ATOM      3  C   UNL     1      47.474  13.183  17.084  0.00  0.00    +0.006 A 
ATOM      4  C   UNL     1      47.980  12.152  16.314  0.00  0.00    -0.079 A 
ATOM     36  C   UNL     1      47.144  11.138  15.884  0.00  0.00    +0.002 A 
ATOM     37  C   UNL     1      45.806  11.150  16.231  0.00  0.00    +0.003 A 
ENDBRANCH   5   4
ENDBRANCH   6   5
ENDBRANCH   7   6
ENDBRANCH   8   7
BRANCH   9  10
ATOM     10  O   UNL     1      51.832  14.715  15.661  0.00  0.00    -0.472 OA
ATOM     11  H   UNL     1      52.780  14.902  15.651  0.00  0.00    +0.400 HD
ENDBRANCH   9  10
BRANCH  32  33
ATOM     33  O   UNL     1      50.044  13.353  19.888  0.00  0.00    -0.454 OA
ATOM     34  H   UNL     1      50.352  12.474  19.627  0.00  0.00    +0.391 HD
ENDBRANCH  32  33
BRANCH  21  22
ATOM     22  C   UNL     1      49.296  15.984  20.544  0.00  0.00    +0.153 C 
BRANCH  22  23
ATOM     23  C   UNL     1      47.818  15.711  20.430  0.00  0.00    -0.108 A 
ATOM     24  C   UNL     1      47.029  16.508  19.622  0.00  0.00    +0.031 A 
ATOM     25  C   UNL     1      45.674  16.256  19.513  0.00  0.00    -0.009 A 
ATOM     26  C   UNL     1      45.104  15.212  20.219  0.00  0.00    +0.019 A 
ATOM     27  C   UNL     1      45.888  14.417  21.032  0.00  0.00    -0.024 A 
ATOM     28  C   UNL     1      47.249  14.665  21.139  0.00  0.00    +0.119 A 
BRANCH  28  29
ATOM     29  O   UNL     1      48.022  13.883  21.938  0.00  0.00    -0.471 OA
ATOM     30  H   UNL     1      48.593  14.381  22.540  0.00  0.00    +0.381 HD
ENDBRANCH  28  29
ENDBRANCH  22  23
ENDBRANCH  21  22
TORSDOF 9
ENDMDL
MODEL 9
REMARK VINA RESULT:      -6.2      2.530      6.236
REMARK  Name = ZINC02026346
REMARK  9 active torsions:
REMARK  status: ('A' for Active; 'I' for Inactive)
REMARK    1  A    between atoms: C4_4  and  C7_7
REMARK    2  A    between atoms: C7_7  and  C8_8
REMARK    3  A    between atoms: C8_8  and  C9_9
REMARK    4  A    between atoms: C9_9  and  C10_11
REMARK    5  A    between atoms: C11_12  and  O5_34
REMARK    6  A    between atoms: C14_15  and  C16_18
REMARK    7  A    between atoms: C15_16  and  O2_17
REMARK    8  A    between atoms: C16_18  and  C17_19
REMARK    9  A    between atoms: C22_24  and  O3_25
REMARK                            x       y       z     vdW  Elec       q    Type
REMARK                         _______ _______ _______ _____ _____    ______ ____
ROOT
ATOM      8  C   UNL     1      49.525  15.579  20.560  0.00  0.00    -0.253 A 
ATOM      9  C   UNL     1      48.249  16.051  20.918  0.00  0.00    +0.219 A 
ATOM     12  C   UNL     1      48.048  17.400  21.152  0.00  0.00    -0.203 A 
ATOM     13  C   UNL     1      49.107  18.291  21.037  0.00  0.00    +0.189 A 
ATOM     14  O   UNL     1      48.930  19.613  21.264  0.00  0.00    -0.232 OA
ATOM     15  C   UNL     1      47.690  20.155  21.199  0.00  0.00    +0.107 A 
ATOM     16  C   UNL     1      47.559  21.526  21.005  0.00  0.00    +0.008 A 
ATOM     17  C   UNL     1      46.305  22.098  20.937  0.00  0.00    +0.046 A 
ATOM     18  C   UNL     1      45.176  21.308  21.060  0.00  0.00    -0.004 A 
ATOM     19  C   UNL     1      45.303  19.946  21.252  0.00  0.00    +0.047 A 
ATOM     20  C   UNL     1      46.559  19.366  21.322  0.00  0.00    -0.141 A 
ATOM     21  C   UNL     1      50.374  17.833  20.682  0.00  0.00    -0.145 A 
ATOM     31  C   UNL     1      46.675  17.882  21.534  0.00  0.00    +0.164 C 
ATOM     32  C   UNL     1      50.593  16.489  20.449  0.00  0.00    +0.219 A 
ENDROOT
BRANCH   8   7
ATOM      7  C   UNL     1      49.742  14.156  20.312  0.00  0.00    +0.400 C 
ATOM     35  O   UNL     1      50.420  13.502  21.077  0.00  0.00    -0.443 OA
BRANCH   7   6
ATOM      6  C   UNL     1      49.123  13.499  19.105  0.00  0.00    +0.061 C 
BRANCH   6   5
ATOM      5  C   UNL     1      49.642  14.176  17.834  0.00  0.00    +0.076 C 
BRANCH   5   4
ATOM      1  C   UNL     1      47.156  17.516  16.881  0.00  0.00    -0.005 A 
ATOM      2  C   UNL     1      46.589  16.280  17.127  0.00  0.00    +0.004 A 
ATOM      3  C   UNL     1      47.393  15.199  17.435  0.00  0.00    +0.006 A 
ATOM      4  C   UNL     1      48.765  15.353  17.498  0.00  0.00    -0.079 A 
ATOM     36  C   UNL     1      49.332  16.591  17.256  0.00  0.00    +0.002 A 
ATOM     37  C   UNL     1      48.529  17.670  16.941  0.00  0.00    +0.003 A 
ENDBRANCH   5   4
ENDBRANCH   6   5
ENDBRANCH   7   6
ENDBRANCH   8   7
BRANCH   9  10
ATOM     10  O   UNL     1      47.213  15.182  21.032  0.00  0.00    -0.472 OA
ATOM     11  H   UNL     1      47.363  14.332  20.597  0.00  0.00    +0.400 HD
ENDBRANCH   9  10
BRANCH  32  33
ATOM     33  O   UNL     1      51.830  16.049  20.111  0.00  0.00    -0.454 OA
ATOM     34  H   UNL     1      52.117  16.323  19.230  0.00  0.00    +0.391 HD
ENDBRANCH  32  33
BRANCH  21  22
ATOM     22  C   UNL     1      51.515  18.808  20.560  0.00  0.00    +0.153 C 
BRANCH  22  23
ATOM     23  C   UNL     1      51.493  19.439  19.192  0.00  0.00    -0.108 A 
ATOM     24  C   UNL     1      50.730  20.569  18.964  0.00  0.00    +0.031 A 
ATOM     25  C   UNL     1      50.713  21.152  17.710  0.00  0.00    -0.009 A 
ATOM     26  C   UNL     1      51.453  20.601  16.680  0.00  0.00    +0.019 A 
ATOM     27  C   UNL     1      52.214  19.470  16.901  0.00  0.00    -0.024 A 
ATOM     28  C   UNL     1      52.236  18.886  18.160  0.00  0.00    +0.119 A 
BRANCH  28  29
ATOM     29  O   UNL     1      52.984  17.773  18.380  0.00  0.00    -0.471 OA
ATOM     30  H   UNL     1      53.414  17.753  19.247  0.00  0.00    +0.381 HD
ENDBRANCH  28  29
ENDBRANCH  22  23
ENDBRANCH  21  22
TORSDOF 9
ENDMDL
