MODEL 1
REMARK VINA RESULT:      -5.3      0.000      0.000
REMARK  Name = ZINC95486099
REMARK  2 active torsions:
REMARK  status: ('A' for Active; 'I' for Inactive)
REMARK    1  A    between atoms: C2_2  and  C3_3
REMARK    2  A    between atoms: C12_17  and  O3_19
REMARK                            x       y       z     vdW  Elec       q    Type
REMARK                         _______ _______ _______ _____ _____    ______ ____
ROOT
ATOM      3  C   UNL     1      44.494  20.385  19.588  0.00  0.00    -0.048 C 
ATOM      4  C   UNL     1      43.289  20.273  18.651  0.00  0.00    +0.269 C 
ATOM      5  O   UNL     1      42.078  20.261  19.413  0.00  0.00    -0.350 OA
ATOM      6  C   UNL     1      41.982  19.277  20.344  0.00  0.00    +0.523 C 
ATOM      7  C   UNL     1      43.173  19.068  21.203  0.00  0.00    -0.213 C 
ATOM      8  C   UNL     1      43.061  18.816  22.505  0.00  0.00    +0.176 C 
ATOM      9  O   UNL     1      40.977  18.604  20.466  0.00  0.00    -0.438 OA
ATOM     10  C   UNL     1      45.768  20.485  18.756  0.00  0.00    +0.197 C 
ATOM     13  C   UNL     1      46.073  19.207  18.008  0.00  0.00    +0.025 C 
ATOM     14  C   UNL     1      46.162  18.081  19.022  0.00  0.00    +0.034 C 
ATOM     15  C   UNL     1      46.333  16.683  18.484  0.00  0.00    -0.222 C 
ATOM     16  C   UNL     1      45.463  15.859  19.366  0.00  0.00    +0.507 C 
ATOM     17  O   UNL     1      44.842  16.669  20.278  0.00  0.00    -0.319 OA
ATOM     18  O   UNL     1      45.324  14.653  19.288  0.00  0.00    -0.436 OA
ATOM     19  C   UNL     1      47.084  16.281  17.462  0.00  0.00    +0.193 C 
ATOM     20  C   UNL     1      44.745  17.942  19.652  0.00  0.00    +0.156 C 
ATOM     21  C   UNL     1      44.524  19.160  20.522  0.00  0.00    +0.105 C 
ENDROOT
BRANCH   3   2
ATOM      1  C   UNL     1      44.135  22.787  19.840  0.00  0.00    +0.034 C 
ATOM      2  C   UNL     1      44.353  21.633  20.420  0.00  0.00    -0.021 C 
ENDBRANCH   3   2
BRANCH  10  11
ATOM     11  O   UNL     1      46.868  20.772  19.622  0.00  0.00    -0.556 OA
ATOM     12  H   UNL     1      46.841  21.656  20.014  0.00  0.00    +0.384 HD
ENDBRANCH  10  11
TORSDOF 2
ENDMDL
MODEL 2
REMARK VINA RESULT:      -5.1      2.085      5.496
REMARK  Name = ZINC95486099
REMARK  2 active torsions:
REMARK  status: ('A' for Active; 'I' for Inactive)
REMARK    1  A    between atoms: C2_2  and  C3_3
REMARK    2  A    between atoms: C12_17  and  O3_19
REMARK                            x       y       z     vdW  Elec       q    Type
REMARK                         _______ _______ _______ _____ _____    ______ ____
ROOT
ATOM      3  C   UNL     1      43.963  19.008  20.785  0.00  0.00    -0.048 C 
ATOM      4  C   UNL     1      44.603  18.498  19.492  0.00  0.00    +0.269 C 
ATOM      5  O   UNL     1      45.972  18.911  19.429  0.00  0.00    -0.350 OA
ATOM      6  C   UNL     1      46.183  20.250  19.506  0.00  0.00    +0.523 C 
ATOM      7  C   UNL     1      45.442  20.972  20.567  0.00  0.00    -0.213 C 
ATOM      8  C   UNL     1      46.009  21.940  21.283  0.00  0.00    +0.176 C 
ATOM      9  O   UNL     1      46.938  20.825  18.746  0.00  0.00    -0.438 OA
ATOM     10  C   UNL     1      42.534  18.486  20.877  0.00  0.00    +0.197 C 
ATOM     13  C   UNL     1      41.630  19.086  19.824  0.00  0.00    +0.025 C 
ATOM     14  C   UNL     1      41.676  20.595  19.972  0.00  0.00    +0.034 C 
ATOM     15  C   UNL     1      40.944  21.411  18.937  0.00  0.00    -0.222 C 
ATOM     16  C   UNL     1      41.854  22.563  18.690  0.00  0.00    +0.507 C 
ATOM     17  O   UNL     1      42.981  22.424  19.455  0.00  0.00    -0.319 OA
ATOM     18  O   UNL     1      41.632  23.483  17.927  0.00  0.00    -0.436 OA
ATOM     19  C   UNL     1      39.764  21.160  18.376  0.00  0.00    +0.193 C 
ATOM     20  C   UNL     1      43.138  21.025  19.651  0.00  0.00    +0.156 C 
ATOM     21  C   UNL     1      44.004  20.548  20.797  0.00  0.00    +0.105 C 
ENDROOT
BRANCH   3   2
ATOM      1  C   UNL     1      44.932  17.200  22.110  0.00  0.00    +0.034 C 
ATOM      2  C   UNL     1      44.752  18.489  21.959  0.00  0.00    -0.021 C 
ENDBRANCH   3   2
BRANCH  10  11
ATOM     11  O   UNL     1      42.002  18.809  22.164  0.00  0.00    -0.556 OA
ATOM     12  H   UNL     1      42.651  19.180  22.777  0.00  0.00    +0.384 HD
ENDBRANCH  10  11
TORSDOF 2
ENDMDL
MODEL 3
REMARK VINA RESULT:      -5.0      1.163      1.218
REMARK  Name = ZINC95486099
REMARK  2 active torsions:
REMARK  status: ('A' for Active; 'I' for Inactive)
REMARK    1  A    between atoms: C2_2  and  C3_3
REMARK    2  A    between atoms: C12_17  and  O3_19
REMARK                            x       y       z     vdW  Elec       q    Type
REMARK                         _______ _______ _______ _____ _____    ______ ____
ROOT
ATOM      3  C   UNL     1      45.085  20.734  20.385  0.00  0.00    -0.048 C 
ATOM      4  C   UNL     1      44.199  21.128  19.201  0.00  0.00    +0.269 C 
ATOM      5  O   UNL     1      42.820  20.962  19.546  0.00  0.00    -0.350 OA
ATOM      6  C   UNL     1      42.462  19.714  19.946  0.00  0.00    +0.523 C 
ATOM      7  C   UNL     1      43.357  19.059  20.931  0.00  0.00    -0.213 C 
ATOM      8  C   UNL     1      42.877  18.342  21.944  0.00  0.00    +0.176 C 
ATOM      9  O   UNL     1      41.465  19.165  19.520  0.00  0.00    -0.438 OA
ATOM     10  C   UNL     1      46.543  21.000  20.030  0.00  0.00    +0.197 C 
ATOM     13  C   UNL     1      47.051  20.080  18.943  0.00  0.00    +0.025 C 
ATOM     14  C   UNL     1      46.847  18.650  19.407  0.00  0.00    +0.034 C 
ATOM     15  C   UNL     1      47.167  17.555  18.421  0.00  0.00    -0.222 C 
ATOM     16  C   UNL     1      46.081  16.560  18.638  0.00  0.00    +0.507 C 
ATOM     17  O   UNL     1      45.224  17.024  19.599  0.00  0.00    -0.319 OA
ATOM     18  O   UNL     1      45.971  15.500  18.052  0.00  0.00    -0.436 OA
ATOM     19  C   UNL     1      48.179  17.492  17.561  0.00  0.00    +0.193 C 
ATOM     20  C   UNL     1      45.309  18.441  19.532  0.00  0.00    +0.156 C 
ATOM     21  C   UNL     1      44.847  19.251  20.725  0.00  0.00    +0.105 C 
ENDROOT
BRANCH   3   2
ATOM      1  C   UNL     1      44.726  22.883  21.489  0.00  0.00    +0.034 C 
ATOM      2  C   UNL     1      44.709  21.576  21.577  0.00  0.00    -0.021 C 
ENDBRANCH   3   2
BRANCH  10  11
ATOM     11  O   UNL     1      47.349  20.807  21.195  0.00  0.00    -0.556 OA
ATOM     12  H   UNL     1      46.971  20.191  21.837  0.00  0.00    +0.384 HD
ENDBRANCH  10  11
TORSDOF 2
ENDMDL
MODEL 4
REMARK VINA RESULT:      -4.9      2.374      4.203
REMARK  Name = ZINC95486099
REMARK  2 active torsions:
REMARK  status: ('A' for Active; 'I' for Inactive)
REMARK    1  A    between atoms: C2_2  and  C3_3
REMARK    2  A    between atoms: C12_17  and  O3_19
REMARK                            x       y       z     vdW  Elec       q    Type
REMARK                         _______ _______ _______ _____ _____    ______ ____
ROOT
ATOM      3  C   UNL     1      44.910  21.514  20.246  0.00  0.00    -0.048 C 
ATOM      4  C   UNL     1      45.035  22.163  21.626  0.00  0.00    +0.269 C 
ATOM      5  O   UNL     1      46.314  22.791  21.756  0.00  0.00    -0.350 OA
ATOM      6  C   UNL     1      47.387  21.979  21.572  0.00  0.00    +0.523 C 
ATOM      7  C   UNL     1      47.335  21.081  20.394  0.00  0.00    -0.213 C 
ATOM      8  C   UNL     1      48.407  20.857  19.637  0.00  0.00    +0.176 C 
ATOM      9  O   UNL     1      48.336  21.988  22.331  0.00  0.00    -0.438 OA
ATOM     10  C   UNL     1      43.512  20.926  20.092  0.00  0.00    +0.197 C 
ATOM     13  C   UNL     1      43.275  19.749  21.011  0.00  0.00    +0.025 C 
ATOM     14  C   UNL     1      44.345  18.711  20.728  0.00  0.00    +0.034 C 
ATOM     15  C   UNL     1      44.381  17.498  21.623  0.00  0.00    -0.222 C 
ATOM     16  C   UNL     1      45.835  17.259  21.831  0.00  0.00    +0.507 C 
ATOM     17  O   UNL     1      46.552  18.221  21.173  0.00  0.00    -0.319 OA
ATOM     18  O   UNL     1      46.311  16.352  22.486  0.00  0.00    -0.436 OA
ATOM     19  C   UNL     1      43.355  16.806  22.111  0.00  0.00    +0.193 C 
ATOM     20  C   UNL     1      45.705  19.360  21.120  0.00  0.00    +0.156 C 
ATOM     21  C   UNL     1      45.998  20.433  20.094  0.00  0.00    +0.105 C 
ENDROOT
BRANCH   3   2
ATOM      1  C   UNL     1      44.424  23.679  19.227  0.00  0.00    +0.034 C 
ATOM      2  C   UNL     1      45.118  22.568  19.189  0.00  0.00    -0.021 C 
ENDBRANCH   3   2
BRANCH  10  11
ATOM     11  O   UNL     1      43.337  20.485  18.743  0.00  0.00    -0.556 OA
ATOM     12  H   UNL     1      44.079  19.969  18.399  0.00  0.00    +0.384 HD
ENDBRANCH  10  11
TORSDOF 2
ENDMDL
MODEL 5
REMARK VINA RESULT:      -4.9      4.176      7.276
REMARK  Name = ZINC95486099
REMARK  2 active torsions:
REMARK  status: ('A' for Active; 'I' for Inactive)
REMARK    1  A    between atoms: C2_2  and  C3_3
REMARK    2  A    between atoms: C12_17  and  O3_19
REMARK                            x       y       z     vdW  Elec       q    Type
REMARK                         _______ _______ _______ _____ _____    ______ ____
ROOT
ATOM      3  C   UNL     1      50.843  18.067  18.388  0.00  0.00    -0.048 C 
ATOM      4  C   UNL     1      50.860  18.195  16.863  0.00  0.00    +0.269 C 
ATOM      5  O   UNL     1      51.767  19.228  16.469  0.00  0.00    -0.350 OA
ATOM      6  C   UNL     1      51.520  20.457  16.994  0.00  0.00    +0.523 C 
ATOM      7  C   UNL     1      51.233  20.503  18.448  0.00  0.00    -0.213 C 
ATOM      8  C   UNL     1      51.720  21.467  19.227  0.00  0.00    +0.176 C 
ATOM      9  O   UNL     1      51.532  21.461  16.310  0.00  0.00    -0.438 OA
ATOM     10  C   UNL     1      49.940  16.905  18.784  0.00  0.00    +0.197 C 
ATOM     13  C   UNL     1      48.483  17.175  18.479  0.00  0.00    +0.025 C 
ATOM     14  C   UNL     1      48.085  18.453  19.193  0.00  0.00    +0.034 C 
ATOM     15  C   UNL     1      46.700  18.987  18.926  0.00  0.00    -0.222 C 
ATOM     16  C   UNL     1      46.902  20.460  18.846  0.00  0.00    +0.507 C 
ATOM     17  O   UNL     1      48.229  20.746  19.013  0.00  0.00    -0.319 OA
ATOM     18  O   UNL     1      46.023  21.280  18.659  0.00  0.00    -0.436 OA
ATOM     19  C   UNL     1      45.567  18.303  18.793  0.00  0.00    +0.193 C 
ATOM     20  C   UNL     1      48.928  19.596  18.556  0.00  0.00    +0.156 C 
ATOM     21  C   UNL     1      50.360  19.395  19.003  0.00  0.00    +0.105 C 
ENDROOT
BRANCH   3   2
ATOM      1  C   UNL     1      52.831  16.658  18.555  0.00  0.00    +0.034 C 
ATOM      2  C   UNL     1      52.243  17.786  18.870  0.00  0.00    -0.021 C 
ENDBRANCH   3   2
BRANCH  10  11
ATOM     11  O   UNL     1      50.069  16.672  20.189  0.00  0.00    -0.556 OA
ATOM     12  H   UNL     1      49.235  16.467  20.632  0.00  0.00    +0.384 HD
ENDBRANCH  10  11
TORSDOF 2
ENDMDL
MODEL 6
REMARK VINA RESULT:      -4.9      3.558      5.292
REMARK  Name = ZINC95486099
REMARK  2 active torsions:
REMARK  status: ('A' for Active; 'I' for Inactive)
REMARK    1  A    between atoms: C2_2  and  C3_3
REMARK    2  A    between atoms: C12_17  and  O3_19
REMARK                            x       y       z     vdW  Elec       q    Type
REMARK                         _______ _______ _______ _____ _____    ______ ____
ROOT
ATOM      3  C   UNL     1      47.562  19.030  19.573  0.00  0.00    -0.048 C 
ATOM      4  C   UNL     1      46.577  19.350  18.446  0.00  0.00    +0.269 C 
ATOM      5  O   UNL     1      45.810  18.186  18.124  0.00  0.00    -0.350 OA
ATOM      6  C   UNL     1      46.529  17.092  17.760  0.00  0.00    +0.523 C 
ATOM      7  C   UNL     1      47.695  16.761  18.613  0.00  0.00    -0.213 C 
ATOM      8  C   UNL     1      47.993  15.504  18.934  0.00  0.00    +0.176 C 
ATOM      9  O   UNL     1      46.233  16.424  16.789  0.00  0.00    -0.438 OA
ATOM     10  C   UNL     1      48.307  20.301  19.963  0.00  0.00    +0.197 C 
ATOM     13  C   UNL     1      49.233  20.787  18.870  0.00  0.00    +0.025 C 
ATOM     14  C   UNL     1      50.196  19.662  18.537  0.00  0.00    +0.034 C 
ATOM     15  C   UNL     1      51.134  19.880  17.377  0.00  0.00    -0.222 C 
ATOM     16  C   UNL     1      51.164  18.556  16.697  0.00  0.00    +0.507 C 
ATOM     17  O   UNL     1      50.332  17.689  17.353  0.00  0.00    -0.319 OA
ATOM     18  O   UNL     1      51.824  18.287  15.712  0.00  0.00    -0.436 OA
ATOM     19  C   UNL     1      51.781  20.992  17.041  0.00  0.00    +0.193 C 
ATOM     20  C   UNL     1      49.334  18.502  17.956  0.00  0.00    +0.156 C 
ATOM     21  C   UNL     1      48.530  17.928  19.103  0.00  0.00    +0.105 C 
ENDROOT
BRANCH   3   2
ATOM      1  C   UNL     1      45.828  19.254  21.279  0.00  0.00    +0.034 C 
ATOM      2  C   UNL     1      46.792  18.528  20.767  0.00  0.00    -0.021 C 
ENDBRANCH   3   2
BRANCH  10  11
ATOM     11  O   UNL     1      49.089  20.043  21.132  0.00  0.00    -0.556 OA
ATOM     12  H   UNL     1      48.641  19.498  21.793  0.00  0.00    +0.384 HD
ENDBRANCH  10  11
TORSDOF 2
ENDMDL
MODEL 7
REMARK VINA RESULT:      -4.8      2.064      5.713
REMARK  Name = ZINC95486099
REMARK  2 active torsions:
REMARK  status: ('A' for Active; 'I' for Inactive)
REMARK    1  A    between atoms: C2_2  and  C3_3
REMARK    2  A    between atoms: C12_17  and  O3_19
REMARK                            x       y       z     vdW  Elec       q    Type
REMARK                         _______ _______ _______ _____ _____    ______ ____
ROOT
ATOM      3  C   UNL     1      47.436  15.695  17.975  0.00  0.00    -0.048 C 
ATOM      4  C   UNL     1      48.474  15.847  19.089  0.00  0.00    +0.269 C 
ATOM      5  O   UNL     1      48.471  14.683  19.921  0.00  0.00    -0.350 OA
ATOM      6  C   UNL     1      47.278  14.376  20.494  0.00  0.00    +0.523 C 
ATOM      7  C   UNL     1      46.093  14.416  19.604  0.00  0.00    -0.213 C 
ATOM      8  C   UNL     1      45.131  13.500  19.677  0.00  0.00    +0.176 C 
ATOM      9  O   UNL     1      47.187  14.085  21.671  0.00  0.00    -0.438 OA
ATOM     10  C   UNL     1      47.514  16.903  17.049  0.00  0.00    +0.197 C 
ATOM     13  C   UNL     1      47.063  18.179  17.722  0.00  0.00    +0.025 C 
ATOM     14  C   UNL     1      45.649  17.965  18.232  0.00  0.00    +0.034 C 
ATOM     15  C   UNL     1      45.040  19.071  19.056  0.00  0.00    -0.222 C 
ATOM     16  C   UNL     1      44.301  18.346  20.125  0.00  0.00    +0.507 C 
ATOM     17  O   UNL     1      44.480  16.998  19.967  0.00  0.00    -0.319 OA
ATOM     18  O   UNL     1      43.643  18.869  21.004  0.00  0.00    -0.436 OA
ATOM     19  C   UNL     1      45.140  20.385  18.871  0.00  0.00    +0.193 C 
ATOM     20  C   UNL     1      45.736  16.854  19.319  0.00  0.00    +0.156 C 
ATOM     21  C   UNL     1      46.036  15.554  18.603  0.00  0.00    +0.105 C 
ENDROOT
BRANCH   3   2
ATOM      1  C   UNL     1      48.927  14.296  16.641  0.00  0.00    +0.034 C 
ATOM      2  C   UNL     1      47.745  14.450  17.185  0.00  0.00    -0.021 C 
ENDBRANCH   3   2
BRANCH  10  11
ATOM     11  O   UNL     1      46.677  16.674  15.913  0.00  0.00    -0.556 OA
ATOM     12  H   UNL     1      46.511  15.740  15.728  0.00  0.00    +0.384 HD
ENDBRANCH  10  11
TORSDOF 2
ENDMDL
MODEL 8
REMARK VINA RESULT:      -4.7      2.053      5.184
REMARK  Name = ZINC95486099
REMARK  2 active torsions:
REMARK  status: ('A' for Active; 'I' for Inactive)
REMARK    1  A    between atoms: C2_2  and  C3_3
REMARK    2  A    between atoms: C12_17  and  O3_19
REMARK                            x       y       z     vdW  Elec       q    Type
REMARK                         _______ _______ _______ _____ _____    ______ ____
ROOT
ATOM      3  C   UNL     1      48.205  18.714  19.408  0.00  0.00    -0.048 C 
ATOM      4  C   UNL     1      47.821  17.912  20.654  0.00  0.00    +0.269 C 
ATOM      5  O   UNL     1      47.618  16.539  20.306  0.00  0.00    -0.350 OA
ATOM      6  C   UNL     1      46.682  16.309  19.349  0.00  0.00    +0.523 C 
ATOM      7  C   UNL     1      46.746  17.174  18.147  0.00  0.00    -0.213 C 
ATOM      8  C   UNL     1      46.543  16.690  16.924  0.00  0.00    +0.176 C 
ATOM      9  O   UNL     1      45.838  15.442  19.472  0.00  0.00    -0.438 OA
ATOM     10  C   UNL     1      48.503  20.153  19.811  0.00  0.00    +0.197 C 
ATOM     13  C   UNL     1      47.270  20.888  20.286  0.00  0.00    +0.025 C 
ATOM     14  C   UNL     1      46.234  20.828  19.179  0.00  0.00    +0.034 C 
ATOM     15  C   UNL     1      44.868  21.389  19.483  0.00  0.00    -0.222 C 
ATOM     16  C   UNL     1      43.940  20.427  18.829  0.00  0.00    +0.507 C 
ATOM     17  O   UNL     1      44.663  19.422  18.247  0.00  0.00    -0.319 OA
ATOM     18  O   UNL     1      42.727  20.520  18.815  0.00  0.00    -0.436 OA
ATOM     19  C   UNL     1      44.565  22.485  20.174  0.00  0.00    +0.193 C 
ATOM     20  C   UNL     1      45.860  19.326  19.005  0.00  0.00    +0.156 C 
ATOM     21  C   UNL     1      47.057  18.640  18.383  0.00  0.00    +0.105 C 
ENDROOT
BRANCH   3   2
ATOM      1  C   UNL     1      50.529  17.969  19.522  0.00  0.00    +0.034 C 
ATOM      2  C   UNL     1      49.444  18.108  18.800  0.00  0.00    -0.021 C 
ENDBRANCH   3   2
BRANCH  10  11
ATOM     11  O   UNL     1      49.036  20.852  18.684  0.00  0.00    -0.556 OA
ATOM     12  H   UNL     1      49.413  21.716  18.898  0.00  0.00    +0.384 HD
ENDBRANCH  10  11
TORSDOF 2
ENDMDL
MODEL 9
REMARK VINA RESULT:      -4.6      3.202      5.488
REMARK  Name = ZINC95486099
REMARK  2 active torsions:
REMARK  status: ('A' for Active; 'I' for Inactive)
REMARK    1  A    between atoms: C2_2  and  C3_3
REMARK    2  A    between atoms: C12_17  and  O3_19
REMARK                            x       y       z     vdW  Elec       q    Type
REMARK                         _______ _______ _______ _____ _____    ______ ____
ROOT
ATOM      3  C   UNL     1      47.341  17.841  19.239  0.00  0.00    -0.048 C 
ATOM      4  C   UNL     1      47.458  17.832  20.765  0.00  0.00    +0.269 C 
ATOM      5  O   UNL     1      46.481  18.708  21.334  0.00  0.00    -0.350 OA
ATOM      6  C   UNL     1      46.533  19.998  20.914  0.00  0.00    +0.523 C 
ATOM      7  C   UNL     1      46.670  20.206  19.452  0.00  0.00    -0.213 C 
ATOM      8  C   UNL     1      46.003  21.167  18.816  0.00  0.00    +0.176 C 
ATOM      9  O   UNL     1      46.473  20.930  21.692  0.00  0.00    -0.438 OA
ATOM     10  C   UNL     1      48.329  16.838  18.654  0.00  0.00    +0.197 C 
ATOM     13  C   UNL     1      49.768  17.258  18.857  0.00  0.00    +0.025 C 
ATOM     14  C   UNL     1      49.946  18.633  18.241  0.00  0.00    +0.034 C 
ATOM     15  C   UNL     1      51.279  19.308  18.439  0.00  0.00    -0.222 C 
ATOM     16  C   UNL     1      50.919  20.732  18.681  0.00  0.00    +0.507 C 
ATOM     17  O   UNL     1      49.557  20.867  18.658  0.00  0.00    -0.319 OA
ATOM     18  O   UNL     1      51.711  21.635  18.871  0.00  0.00    -0.436 OA
ATOM     19  C   UNL     1      52.491  18.761  18.406  0.00  0.00    +0.193 C 
ATOM     20  C   UNL     1      49.043  19.604  19.058  0.00  0.00    +0.156 C 
ATOM     21  C   UNL     1      47.607  19.267  18.718  0.00  0.00    +0.105 C 
ENDROOT
BRANCH   3   2
ATOM      1  C   UNL     1      45.430  16.323  19.326  0.00  0.00    +0.034 C 
ATOM      2  C   UNL     1      45.942  17.433  18.854  0.00  0.00    -0.021 C 
ENDBRANCH   3   2
BRANCH  10  11
ATOM     11  O   UNL     1      48.091  16.715  17.250  0.00  0.00    -0.556 OA
ATOM     12  H   UNL     1      47.216  17.016  16.971  0.00  0.00    +0.384 HD
ENDBRANCH  10  11
TORSDOF 2
ENDMDL
