MODEL 1
REMARK VINA RESULT:      -6.3      0.000      0.000
REMARK  Name = ZINC95485956
REMARK  9 active torsions:
REMARK  status: ('A' for Active; 'I' for Inactive)
REMARK    1  A    between atoms: C1_1  and  O1_2
REMARK    2  A    between atoms: O1_2  and  C2_3
REMARK    3  A    between atoms: C9_10  and  C14_18
REMARK    4  A    between atoms: C10_11  and  O4_16
REMARK    5  A    between atoms: O4_16  and  C13_17
REMARK    6  A    between atoms: C28_38  and  O11_39
REMARK    7  A    between atoms: O11_39  and  C29_40
REMARK    8  A    between atoms: C32_45  and  O14_46
REMARK    9  A    between atoms: O14_46  and  C33_47
REMARK                            x       y       z     vdW  Elec       q    Type
REMARK                         _______ _______ _______ _____ _____    ______ ____
ROOT
ATOM      3  C   UNL     1      55.703  12.654  20.026  0.00  0.00    +0.152 A 
ATOM      4  C   UNL     1      54.722  12.242  19.135  0.00  0.00    +0.033 A 
ATOM      5  C   UNL     1      53.495  12.893  19.129  0.00  0.00    -0.089 A 
ATOM      6  C   UNL     1      53.283  13.950  20.040  0.00  0.00    -0.115 A 
ATOM      7  C   UNL     1      51.974  14.612  20.018  0.00  0.00    -0.044 A 
ATOM      8  C   UNL     1      51.826  15.791  20.784  0.00  0.00    -0.142 A 
ATOM      9  C   UNL     1      53.015  16.257  21.517  0.00  0.00    +0.538 A 
ATOM     10  O   UNL     1      53.994  15.367  21.811  0.00  0.00    -0.259 OA
ATOM     11  O   UNL     1      53.116  17.422  21.852  0.00  0.00    -0.410 OA
ATOM     12  C   UNL     1      50.601  16.440  20.785  0.00  0.00    +0.149 A 
ATOM     13  C   UNL     1      49.557  15.924  20.017  0.00  0.00    -0.056 A 
ATOM     37  C   UNL     1      49.718  14.760  19.252  0.00  0.00    +0.177 A 
ATOM     40  C   UNL     1      50.935  14.088  19.253  0.00  0.00    +0.105 A 
ATOM     41  O   UNL     1      51.127  12.933  18.566  0.00  0.00    -0.258 OA
ATOM     42  C   UNL     1      54.264  14.364  20.939  0.00  0.00    +0.157 A 
ATOM     43  C   UNL     1      52.386  12.569  18.220  0.00  0.00    +0.535 A 
ATOM     44  O   UNL     1      52.594  11.983  17.174  0.00  0.00    -0.412 OA
ATOM     45  C   UNL     1      55.487  13.701  20.922  0.00  0.00    +0.098 A 
ENDROOT
BRANCH  13  14
ATOM     14  C   UNL     1      48.250  16.621  20.011  0.00  0.00    -0.049 A 
ATOM     15  C   UNL     1      48.160  17.899  19.460  0.00  0.00    +0.147 A 
ATOM     16  C   UNL     1      46.937  18.550  19.458  0.00  0.00    -0.136 A 
ATOM     17  C   UNL     1      45.813  17.893  20.004  0.00  0.00    -0.054 A 
ATOM     18  C   UNL     1      44.529  18.604  19.974  0.00  0.00    -0.074 A 
ATOM     19  C   UNL     1      43.452  18.040  20.690  0.00  0.00    -0.117 A 
ATOM     20  C   UNL     1      43.726  16.796  21.427  0.00  0.00    +0.540 A 
ATOM     21  O   UNL     1      44.771  16.023  21.040  0.00  0.00    -0.257 OA
ATOM     22  O   UNL     1      43.028  16.466  22.366  0.00  0.00    -0.408 OA
ATOM     23  C   UNL     1      42.226  18.690  20.676  0.00  0.00    +0.137 A 
ATOM     24  C   UNL     1      42.096  19.884  19.978  0.00  0.00    +0.074 A 
ATOM     25  C   UNL     1      43.171  20.441  19.281  0.00  0.00    +0.070 A 
ATOM     26  O   UNL     1      42.758  21.605  18.701  0.00  0.00    -0.285 OA
ATOM     27  C   UNL     1      41.320  21.545  18.699  0.00  0.00    +0.455 C 
ATOM     28  O   UNL     1      41.011  20.701  19.823  0.00  0.00    -0.291 OA
ATOM     29  C   UNL     1      44.404  19.798  19.268  0.00  0.00    +0.153 A 
ATOM     30  O   UNL     1      45.465  20.277  18.569  0.00  0.00    -0.264 OA
ATOM     31  C   UNL     1      45.891  16.614  20.554  0.00  0.00    +0.114 A 
ATOM     32  C   UNL     1      46.719  19.907  18.931  0.00  0.00    +0.538 A 
ATOM     33  O   UNL     1      47.648  20.684  18.821  0.00  0.00    -0.409 OA
ATOM     34  C   UNL     1      47.128  15.978  20.555  0.00  0.00    +0.174 A 
BRANCH  34  35
ATOM     35  O   UNL     1      47.251  14.735  21.086  0.00  0.00    -0.307 OA
ATOM     36  C   UNL     1      47.394  14.647  22.505  0.00  0.00    +0.247 C 
ENDBRANCH  34  35
ENDBRANCH  13  14
BRANCH   3   2
ATOM      1  C   UNL     1      56.973  10.763  20.712  0.00  0.00    +0.260 C 
ATOM      2  O   UNL     1      56.904  12.017  20.028  0.00  0.00    -0.290 OA
ENDBRANCH   3   2
BRANCH  37  38
ATOM     38  O   UNL     1      48.684  14.290  18.509  0.00  0.00    -0.307 OA
ATOM     39  C   UNL     1      48.727  14.543  17.103  0.00  0.00    +0.246 C 
ENDBRANCH  37  38
BRANCH  45  46
ATOM     46  O   UNL     1      56.473  14.077  21.776  0.00  0.00    -0.307 OA
ATOM     47  C   UNL     1      57.397  15.062  21.308  0.00  0.00    +0.242 C 
ENDBRANCH  45  46
TORSDOF 5
ENDMDL
MODEL 2
REMARK VINA RESULT:      -6.0      0.730     10.836
REMARK  Name = ZINC95485956
REMARK  9 active torsions:
REMARK  status: ('A' for Active; 'I' for Inactive)
REMARK    1  A    between atoms: C1_1  and  O1_2
REMARK    2  A    between atoms: O1_2  and  C2_3
REMARK    3  A    between atoms: C9_10  and  C14_18
REMARK    4  A    between atoms: C10_11  and  O4_16
REMARK    5  A    between atoms: O4_16  and  C13_17
REMARK    6  A    between atoms: C28_38  and  O11_39
REMARK    7  A    between atoms: O11_39  and  C29_40
REMARK    8  A    between atoms: C32_45  and  O14_46
REMARK    9  A    between atoms: O14_46  and  C33_47
REMARK                            x       y       z     vdW  Elec       q    Type
REMARK                         _______ _______ _______ _____ _____    ______ ____
ROOT
ATOM      3  C   UNL     1      42.667  20.069  20.009  0.00  0.00    +0.152 A 
ATOM      4  C   UNL     1      42.696  18.838  20.649  0.00  0.00    +0.033 A 
ATOM      5  C   UNL     1      43.877  18.108  20.661  0.00  0.00    -0.089 A 
ATOM      6  C   UNL     1      45.011  18.639  20.010  0.00  0.00    -0.115 A 
ATOM      7  C   UNL     1      46.241  17.841  20.030  0.00  0.00    -0.044 A 
ATOM      8  C   UNL     1      47.424  18.452  19.555  0.00  0.00    -0.142 A 
ATOM      9  C   UNL     1      47.312  19.850  19.106  0.00  0.00    +0.538 A 
ATOM     10  O   UNL     1      46.098  20.320  18.729  0.00  0.00    -0.259 OA
ATOM     11  O   UNL     1      48.292  20.569  19.074  0.00  0.00    -0.410 OA
ATOM     12  C   UNL     1      48.604  17.724  19.561  0.00  0.00    +0.149 A 
ATOM     13  C   UNL     1      48.594  16.418  20.050  0.00  0.00    -0.056 A 
ATOM     37  C   UNL     1      47.418  15.824  20.529  0.00  0.00    +0.177 A 
ATOM     40  C   UNL     1      46.223  16.535  20.516  0.00  0.00    +0.105 A 
ATOM     41  O   UNL     1      45.049  15.991  20.925  0.00  0.00    -0.258 OA
ATOM     42  C   UNL     1      44.985  19.873  19.362  0.00  0.00    +0.157 A 
ATOM     43  C   UNL     1      44.042  16.806  21.325  0.00  0.00    +0.535 A 
ATOM     44  O   UNL     1      43.289  16.466  22.217  0.00  0.00    -0.412 OA
ATOM     45  C   UNL     1      43.793  20.589  19.369  0.00  0.00    +0.098 A 
ENDROOT
BRANCH  13  14
ATOM     14  C   UNL     1      49.856  15.640  20.063  0.00  0.00    -0.049 A 
ATOM     15  C   UNL     1      50.883  16.022  20.926  0.00  0.00    +0.147 A 
ATOM     16  C   UNL     1      52.063  15.295  20.935  0.00  0.00    -0.136 A 
ATOM     17  C   UNL     1      52.185  14.180  20.076  0.00  0.00    -0.054 A 
ATOM     18  C   UNL     1      53.441  13.424  20.120  0.00  0.00    -0.074 A 
ATOM     19  C   UNL     1      53.645  12.436  19.133  0.00  0.00    -0.117 A 
ATOM     20  C   UNL     1      52.581  12.275  18.129  0.00  0.00    +0.540 A 
ATOM     21  O   UNL     1      51.327  12.693  18.431  0.00  0.00    -0.257 OA
ATOM     22  O   UNL     1      52.821  11.776  17.047  0.00  0.00    -0.408 OA
ATOM     23  C   UNL     1      54.823  11.704  19.152  0.00  0.00    +0.137 A 
ATOM     24  C   UNL     1      55.777  11.973  20.125  0.00  0.00    +0.074 A 
ATOM     25  C   UNL     1      55.572  12.960  21.093  0.00  0.00    +0.070 A 
ATOM     26  O   UNL     1      56.666  13.007  21.906  0.00  0.00    -0.285 OA
ATOM     27  C   UNL     1      57.360  11.765  21.689  0.00  0.00    +0.455 C 
ATOM     28  O   UNL     1      56.999  11.402  20.344  0.00  0.00    -0.291 OA
ATOM     29  C   UNL     1      54.391  13.695  21.102  0.00  0.00    +0.153 A 
ATOM     30  O   UNL     1      54.127  14.632  22.048  0.00  0.00    -0.264 OA
ATOM     31  C   UNL     1      51.162  13.789  19.213  0.00  0.00    +0.114 A 
ATOM     32  C   UNL     1      53.227  15.611  21.778  0.00  0.00    +0.538 A 
ATOM     33  O   UNL     1      53.379  16.731  22.227  0.00  0.00    -0.409 OA
ATOM     34  C   UNL     1      49.988  14.534  19.212  0.00  0.00    +0.174 A 
BRANCH  34  35
ATOM     35  O   UNL     1      48.969  14.192  18.382  0.00  0.00    -0.307 OA
ATOM     36  C   UNL     1      49.027  14.690  17.044  0.00  0.00    +0.247 C 
ENDBRANCH  34  35
ENDBRANCH  13  14
BRANCH   3   2
ATOM      1  C   UNL     1      40.630  20.582  18.892  0.00  0.00    +0.260 C 
ATOM      2  O   UNL     1      41.510  20.784  20.000  0.00  0.00    -0.290 OA
ENDBRANCH   3   2
BRANCH  37  38
ATOM     38  O   UNL     1      47.445  14.554  21.007  0.00  0.00    -0.307 OA
ATOM     39  C   UNL     1      47.575  14.395  22.421  0.00  0.00    +0.246 C 
ENDBRANCH  37  38
BRANCH  45  46
ATOM     46  O   UNL     1      43.726  21.799  18.756  0.00  0.00    -0.307 OA
ATOM     47  C   UNL     1      44.078  22.943  19.538  0.00  0.00    +0.242 C 
ENDBRANCH  45  46
TORSDOF 5
ENDMDL
MODEL 3
REMARK VINA RESULT:      -5.8      1.231      2.934
REMARK  Name = ZINC95485956
REMARK  9 active torsions:
REMARK  status: ('A' for Active; 'I' for Inactive)
REMARK    1  A    between atoms: C1_1  and  O1_2
REMARK    2  A    between atoms: O1_2  and  C2_3
REMARK    3  A    between atoms: C9_10  and  C14_18
REMARK    4  A    between atoms: C10_11  and  O4_16
REMARK    5  A    between atoms: O4_16  and  C13_17
REMARK    6  A    between atoms: C28_38  and  O11_39
REMARK    7  A    between atoms: O11_39  and  C29_40
REMARK    8  A    between atoms: C32_45  and  O14_46
REMARK    9  A    between atoms: O14_46  and  C33_47
REMARK                            x       y       z     vdW  Elec       q    Type
REMARK                         _______ _______ _______ _____ _____    ______ ____
ROOT
ATOM      3  C   UNL     1      55.526  13.879  20.348  0.00  0.00    +0.152 A 
ATOM      4  C   UNL     1      55.300  15.101  20.967  0.00  0.00    +0.033 A 
ATOM      5  C   UNL     1      54.028  15.656  20.926  0.00  0.00    -0.089 A 
ATOM      6  C   UNL     1      53.005  14.962  20.245  0.00  0.00    -0.115 A 
ATOM      7  C   UNL     1      51.674  15.579  20.209  0.00  0.00    -0.044 A 
ATOM      8  C   UNL     1      50.608  14.801  19.704  0.00  0.00    -0.142 A 
ATOM      9  C   UNL     1      50.933  13.428  19.282  0.00  0.00    +0.538 A 
ATOM     10  O   UNL     1      52.214  13.129  18.955  0.00  0.00    -0.259 OA
ATOM     11  O   UNL     1      50.065  12.577  19.228  0.00  0.00    -0.410 OA
ATOM     12  C   UNL     1      49.338  15.354  19.657  0.00  0.00    +0.149 A 
ATOM     13  C   UNL     1      49.145  16.654  20.124  0.00  0.00    -0.056 A 
ATOM     37  C   UNL     1      50.207  17.414  20.633  0.00  0.00    +0.177 A 
ATOM     40  C   UNL     1      51.490  16.879  20.673  0.00  0.00    +0.105 A 
ATOM     41  O   UNL     1      52.560  17.589  21.114  0.00  0.00    -0.258 OA
ATOM     42  C   UNL     1      53.228  13.738  19.619  0.00  0.00    +0.157 A 
ATOM     43  C   UNL     1      53.656  16.930  21.561  0.00  0.00    +0.535 A 
ATOM     44  O   UNL     1      54.320  17.383  22.474  0.00  0.00    -0.412 OA
ATOM     45  C   UNL     1      54.509  13.197  19.679  0.00  0.00    +0.098 A 
ENDROOT
BRANCH  13  14
ATOM     14  C   UNL     1      47.787  17.245  20.081  0.00  0.00    -0.049 A 
ATOM     15  C   UNL     1      47.594  18.466  19.434  0.00  0.00    +0.147 A 
ATOM     16  C   UNL     1      46.324  19.018  19.397  0.00  0.00    -0.136 A 
ATOM     17  C   UNL     1      45.257  18.320  20.006  0.00  0.00    -0.054 A 
ATOM     18  C   UNL     1      43.922  18.925  19.937  0.00  0.00    -0.074 A 
ATOM     19  C   UNL     1      42.897  18.336  20.707  0.00  0.00    -0.117 A 
ATOM     20  C   UNL     1      43.272  17.178  21.534  0.00  0.00    +0.540 A 
ATOM     21  O   UNL     1      44.372  16.461  21.195  0.00  0.00    -0.257 OA
ATOM     22  O   UNL     1      42.608  16.869  22.504  0.00  0.00    -0.408 OA
ATOM     23  C   UNL     1      41.624  18.886  20.658  0.00  0.00    +0.137 A 
ATOM     24  C   UNL     1      41.396  20.008  19.872  0.00  0.00    +0.074 A 
ATOM     25  C   UNL     1      42.420  20.591  19.121  0.00  0.00    +0.070 A 
ATOM     26  O   UNL     1      41.914  21.671  18.459  0.00  0.00    -0.285 OA
ATOM     27  C   UNL     1      40.485  21.500  18.479  0.00  0.00    +0.455 C 
ATOM     28  O   UNL     1      40.250  20.725  19.668  0.00  0.00    -0.291 OA
ATOM     29  C   UNL     1      43.700  20.047  19.142  0.00  0.00    +0.153 A 
ATOM     30  O   UNL     1      44.716  20.550  18.396  0.00  0.00    -0.264 OA
ATOM     31  C   UNL     1      45.440  17.097  20.652  0.00  0.00    +0.114 A 
ATOM     32  C   UNL     1      45.997  20.308  18.770  0.00  0.00    +0.538 A 
ATOM     33  O   UNL     1      46.862  21.144  18.589  0.00  0.00    -0.409 OA
ATOM     34  C   UNL     1      46.722  16.561  20.686  0.00  0.00    +0.174 A 
BRANCH  34  35
ATOM     35  O   UNL     1      46.945  15.376  21.310  0.00  0.00    -0.307 OA
ATOM     36  C   UNL     1      46.759  14.190  20.534  0.00  0.00    +0.247 C 
ENDBRANCH  34  35
ENDBRANCH  13  14
BRANCH   3   2
ATOM      1  C   UNL     1      57.452  13.370  21.648  0.00  0.00    +0.260 C 
ATOM      2  O   UNL     1      56.771  13.335  20.392  0.00  0.00    -0.290 OA
ENDBRANCH   3   2
BRANCH  37  38
ATOM     38  O   UNL     1      49.983  18.673  21.089  0.00  0.00    -0.307 OA
ATOM     39  C   UNL     1      49.898  18.845  22.505  0.00  0.00    +0.246 C 
ENDBRANCH  37  38
BRANCH  45  46
ATOM     46  O   UNL     1      54.768  12.002  19.089  0.00  0.00    -0.307 OA
ATOM     47  C   UNL     1      54.175  10.844  19.680  0.00  0.00    +0.242 C 
ENDBRANCH  45  46
TORSDOF 5
ENDMDL
MODEL 4
REMARK VINA RESULT:      -5.7      2.243      3.073
REMARK  Name = ZINC95485956
REMARK  9 active torsions:
REMARK  status: ('A' for Active; 'I' for Inactive)
REMARK    1  A    between atoms: C1_1  and  O1_2
REMARK    2  A    between atoms: O1_2  and  C2_3
REMARK    3  A    between atoms: C9_10  and  C14_18
REMARK    4  A    between atoms: C10_11  and  O4_16
REMARK    5  A    between atoms: O4_16  and  C13_17
REMARK    6  A    between atoms: C28_38  and  O11_39
REMARK    7  A    between atoms: O11_39  and  C29_40
REMARK    8  A    between atoms: C32_45  and  O14_46
REMARK    9  A    between atoms: O14_46  and  C33_47
REMARK                            x       y       z     vdW  Elec       q    Type
REMARK                         _______ _______ _______ _____ _____    ______ ____
ROOT
ATOM      3  C   UNL     1      55.462  12.507  21.704  0.00  0.00    +0.152 A 
ATOM      4  C   UNL     1      54.210  12.088  22.134  0.00  0.00    +0.033 A 
ATOM      5  C   UNL     1      53.114  12.918  21.940  0.00  0.00    -0.089 A 
ATOM      6  C   UNL     1      53.311  14.170  21.320  0.00  0.00    -0.115 A 
ATOM      7  C   UNL     1      52.137  15.031  21.138  0.00  0.00    -0.044 A 
ATOM      8  C   UNL     1      52.293  16.190  20.345  0.00  0.00    -0.142 A 
ATOM      9  C   UNL     1      53.623  16.412  19.752  0.00  0.00    +0.538 A 
ATOM     10  O   UNL     1      54.701  15.822  20.324  0.00  0.00    -0.259 OA
ATOM     11  O   UNL     1      53.750  17.112  18.766  0.00  0.00    -0.410 OA
ATOM     12  C   UNL     1      51.202  17.024  20.154  0.00  0.00    +0.149 A 
ATOM     13  C   UNL     1      49.979  16.686  20.734  0.00  0.00    -0.056 A 
ATOM     37  C   UNL     1      49.832  15.528  21.511  0.00  0.00    +0.177 A 
ATOM     40  C   UNL     1      50.920  14.690  21.725  0.00  0.00    +0.105 A 
ATOM     41  O   UNL     1      50.841  13.582  22.505  0.00  0.00    -0.258 OA
ATOM     42  C   UNL     1      54.566  14.597  20.890  0.00  0.00    +0.157 A 
ATOM     43  C   UNL     1      51.737  12.580  22.328  0.00  0.00    +0.535 A 
ATOM     44  O   UNL     1      51.405  11.420  22.487  0.00  0.00    -0.412 OA
ATOM     45  C   UNL     1      55.649  13.745  21.088  0.00  0.00    +0.098 A 
ENDROOT
BRANCH  13  14
ATOM     14  C   UNL     1      48.810  17.573  20.526  0.00  0.00    -0.049 A 
ATOM     15  C   UNL     1      47.849  17.223  19.578  0.00  0.00    +0.147 A 
ATOM     16  C   UNL     1      46.758  18.055  19.383  0.00  0.00    -0.136 A 
ATOM     17  C   UNL     1      46.646  19.228  20.161  0.00  0.00    -0.054 A 
ATOM     18  C   UNL     1      45.472  20.080  19.939  0.00  0.00    -0.074 A 
ATOM     19  C   UNL     1      45.454  21.344  20.566  0.00  0.00    -0.117 A 
ATOM     20  C   UNL     1      46.635  21.703  21.367  0.00  0.00    +0.540 A 
ATOM     21  O   UNL     1      47.425  20.712  21.848  0.00  0.00    -0.257 OA
ATOM     22  O   UNL     1      46.898  22.868  21.595  0.00  0.00    -0.408 OA
ATOM     23  C   UNL     1      44.354  22.169  20.376  0.00  0.00    +0.137 A 
ATOM     24  C   UNL     1      43.313  21.741  19.562  0.00  0.00    +0.074 A 
ATOM     25  C   UNL     1      43.345  20.492  18.937  0.00  0.00    +0.070 A 
ATOM     26  O   UNL     1      42.204  20.343  18.203  0.00  0.00    -0.285 OA
ATOM     27  C   UNL     1      41.287  21.328  18.714  0.00  0.00    +0.455 C 
ATOM     28  O   UNL     1      42.146  22.365  19.221  0.00  0.00    -0.291 OA
ATOM     29  C   UNL     1      44.429  19.642  19.126  0.00  0.00    +0.153 A 
ATOM     30  O   UNL     1      44.485  18.402  18.576  0.00  0.00    -0.264 OA
ATOM     31  C   UNL     1      47.600  19.585  21.113  0.00  0.00    +0.114 A 
ATOM     32  C   UNL     1      45.692  17.809  18.398  0.00  0.00    +0.538 A 
ATOM     33  O   UNL     1      45.890  17.086  17.441  0.00  0.00    -0.409 OA
ATOM     34  C   UNL     1      48.692  18.743  21.290  0.00  0.00    +0.174 A 
BRANCH  34  35
ATOM     35  O   UNL     1      49.648  19.056  22.203  0.00  0.00    -0.307 OA
ATOM     36  C   UNL     1      50.538  20.123  21.869  0.00  0.00    +0.247 C 
ENDBRANCH  34  35
ENDBRANCH  13  14
BRANCH   3   2
ATOM      1  C   UNL     1      56.830  10.758  20.850  0.00  0.00    +0.260 C 
ATOM      2  O   UNL     1      56.534  11.692  21.891  0.00  0.00    -0.290 OA
ENDBRANCH   3   2
BRANCH  37  38
ATOM     38  O   UNL     1      48.625  15.225  22.054  0.00  0.00    -0.307 OA
ATOM     39  C   UNL     1      47.871  14.189  21.421  0.00  0.00    +0.246 C 
ENDBRANCH  37  38
BRANCH  45  46
ATOM     46  O   UNL     1      56.888  14.118  20.678  0.00  0.00    -0.307 OA
ATOM     47  C   UNL     1      57.697  14.828  21.619  0.00  0.00    +0.242 C 
ENDBRANCH  45  46
TORSDOF 5
ENDMDL
MODEL 5
REMARK VINA RESULT:      -5.7      1.053     10.966
REMARK  Name = ZINC95485956
REMARK  9 active torsions:
REMARK  status: ('A' for Active; 'I' for Inactive)
REMARK    1  A    between atoms: C1_1  and  O1_2
REMARK    2  A    between atoms: O1_2  and  C2_3
REMARK    3  A    between atoms: C9_10  and  C14_18
REMARK    4  A    between atoms: C10_11  and  O4_16
REMARK    5  A    between atoms: O4_16  and  C13_17
REMARK    6  A    between atoms: C28_38  and  O11_39
REMARK    7  A    between atoms: O11_39  and  C29_40
REMARK    8  A    between atoms: C32_45  and  O14_46
REMARK    9  A    between atoms: O14_46  and  C33_47
REMARK                            x       y       z     vdW  Elec       q    Type
REMARK                         _______ _______ _______ _____ _____    ______ ____
ROOT
ATOM      3  C   UNL     1      42.848  20.412  19.654  0.00  0.00    +0.152 A 
ATOM      4  C   UNL     1      44.033  20.984  19.213  0.00  0.00    +0.033 A 
ATOM      5  C   UNL     1      45.203  20.236  19.254  0.00  0.00    -0.089 A 
ATOM      6  C   UNL     1      45.149  18.918  19.755  0.00  0.00    -0.115 A 
ATOM      7  C   UNL     1      46.402  18.156  19.796  0.00  0.00    -0.044 A 
ATOM      8  C   UNL     1      46.319  16.780  20.108  0.00  0.00    -0.142 A 
ATOM      9  C   UNL     1      44.971  16.234  20.339  0.00  0.00    +0.538 A 
ATOM     10  O   UNL     1      43.976  17.080  20.700  0.00  0.00    -0.259 OA
ATOM     11  O   UNL     1      44.756  15.044  20.208  0.00  0.00    -0.410 OA
ATOM     12  C   UNL     1      47.485  16.032  20.155  0.00  0.00    +0.149 A 
ATOM     13  C   UNL     1      48.703  16.653  19.877  0.00  0.00    -0.056 A 
ATOM     37  C   UNL     1      48.773  18.016  19.558  0.00  0.00    +0.177 A 
ATOM     40  C   UNL     1      47.615  18.784  19.522  0.00  0.00    +0.105 A 
ATOM     41  O   UNL     1      47.634  20.116  19.264  0.00  0.00    -0.258 OA
ATOM     42  C   UNL     1      43.962  18.342  20.203  0.00  0.00    +0.157 A 
ATOM     43  C   UNL     1      46.514  20.718  18.794  0.00  0.00    +0.535 A 
ATOM     44  O   UNL     1      46.593  21.641  18.006  0.00  0.00    -0.412 OA
ATOM     45  C   UNL     1      42.802  19.107  20.146  0.00  0.00    +0.098 A 
ENDROOT
BRANCH  13  14
ATOM     14  C   UNL     1      49.950  15.853  19.920  0.00  0.00    -0.049 A 
ATOM     15  C   UNL     1      50.994  16.263  20.748  0.00  0.00    +0.147 A 
ATOM     16  C   UNL     1      52.161  15.515  20.785  0.00  0.00    -0.136 A 
ATOM     17  C   UNL     1      52.251  14.351  19.990  0.00  0.00    -0.054 A 
ATOM     18  C   UNL     1      53.494  13.575  20.062  0.00  0.00    -0.074 A 
ATOM     19  C   UNL     1      53.668  12.529  19.130  0.00  0.00    -0.117 A 
ATOM     20  C   UNL     1      52.589  12.332  18.149  0.00  0.00    +0.540 A 
ATOM     21  O   UNL     1      51.347  12.791  18.440  0.00  0.00    -0.257 OA
ATOM     22  O   UNL     1      52.807  11.768  17.094  0.00  0.00    -0.408 OA
ATOM     23  C   UNL     1      54.832  11.777  19.178  0.00  0.00    +0.137 A 
ATOM     24  C   UNL     1      55.802  12.082  20.125  0.00  0.00    +0.074 A 
ATOM     25  C   UNL     1      55.627  13.125  21.037  0.00  0.00    +0.070 A 
ATOM     26  O   UNL     1      56.732  13.198  21.834  0.00  0.00    -0.285 OA
ATOM     27  C   UNL     1      57.400  11.932  21.680  0.00  0.00    +0.455 C 
ATOM     28  O   UNL     1      57.016  11.500  20.362  0.00  0.00    -0.291 OA
ATOM     29  C   UNL     1      54.460  13.882  21.018  0.00  0.00    +0.153 A 
ATOM     30  O   UNL     1      54.225  14.877  21.911  0.00  0.00    -0.264 OA
ATOM     31  C   UNL     1      51.211  13.932  19.161  0.00  0.00    +0.114 A 
ATOM     32  C   UNL     1      53.340  15.856  21.597  0.00  0.00    +0.538 A 
ATOM     33  O   UNL     1      53.519  16.996  21.980  0.00  0.00    -0.409 OA
ATOM     34  C   UNL     1      50.051  14.698  19.131  0.00  0.00    +0.174 A 
BRANCH  34  35
ATOM     35  O   UNL     1      49.016  14.329  18.333  0.00  0.00    -0.307 OA
ATOM     36  C   UNL     1      49.071  14.744  16.967  0.00  0.00    +0.247 C 
ENDBRANCH  34  35
ENDBRANCH  13  14
BRANCH   3   2
ATOM      1  C   UNL     1      40.976  21.141  18.381  0.00  0.00    +0.260 C 
ATOM      2  O   UNL     1      41.703  21.145  19.611  0.00  0.00    -0.290 OA
ENDBRANCH   3   2
BRANCH  37  38
ATOM     38  O   UNL     1      49.974  18.587  19.283  0.00  0.00    -0.307 OA
ATOM     39  C   UNL     1      50.347  18.684  17.907  0.00  0.00    +0.246 C 
ENDBRANCH  37  38
BRANCH  45  46
ATOM     46  O   UNL     1      41.622  18.582  20.565  0.00  0.00    -0.307 OA
ATOM     47  C   UNL     1      41.205  18.901  21.895  0.00  0.00    +0.242 C 
ENDBRANCH  45  46
TORSDOF 5
ENDMDL
MODEL 6
REMARK VINA RESULT:      -5.5      2.239     10.928
REMARK  Name = ZINC95485956
REMARK  9 active torsions:
REMARK  status: ('A' for Active; 'I' for Inactive)
REMARK    1  A    between atoms: C1_1  and  O1_2
REMARK    2  A    between atoms: O1_2  and  C2_3
REMARK    3  A    between atoms: C9_10  and  C14_18
REMARK    4  A    between atoms: C10_11  and  O4_16
REMARK    5  A    between atoms: O4_16  and  C13_17
REMARK    6  A    between atoms: C28_38  and  O11_39
REMARK    7  A    between atoms: O11_39  and  C29_40
REMARK    8  A    between atoms: C32_45  and  O14_46
REMARK    9  A    between atoms: O14_46  and  C33_47
REMARK                            x       y       z     vdW  Elec       q    Type
REMARK                         _______ _______ _______ _____ _____    ______ ____
ROOT
ATOM      3  C   UNL     1      43.688  21.948  19.774  0.00  0.00    +0.152 A 
ATOM      4  C   UNL     1      44.763  22.295  20.580  0.00  0.00    +0.033 A 
ATOM      5  C   UNL     1      45.801  21.389  20.751  0.00  0.00    -0.089 A 
ATOM      6  C   UNL     1      45.724  20.137  20.105  0.00  0.00    -0.115 A 
ATOM      7  C   UNL     1      46.830  19.196  20.312  0.00  0.00    -0.044 A 
ATOM      8  C   UNL     1      46.853  18.029  19.515  0.00  0.00    -0.142 A 
ATOM      9  C   UNL     1      45.770  17.880  18.529  0.00  0.00    +0.538 A 
ATOM     10  O   UNL     1      44.611  18.555  18.723  0.00  0.00    -0.259 OA
ATOM     11  O   UNL     1      45.914  17.163  17.557  0.00  0.00    -0.410 OA
ATOM     12  C   UNL     1      47.886  17.120  19.687  0.00  0.00    +0.149 A 
ATOM     13  C   UNL     1      48.880  17.391  20.627  0.00  0.00    -0.056 A 
ATOM     37  C   UNL     1      48.854  18.556  21.405  0.00  0.00    +0.177 A 
ATOM     40  C   UNL     1      47.817  19.471  21.256  0.00  0.00    +0.105 A 
ATOM     41  O   UNL     1      47.722  20.591  22.017  0.00  0.00    -0.258 OA
ATOM     42  C   UNL     1      44.645  19.783  19.297  0.00  0.00    +0.157 A 
ATOM     43  C   UNL     1      47.003  21.645  21.559  0.00  0.00    +0.535 A 
ATOM     44  O   UNL     1      47.348  22.784  21.811  0.00  0.00    -0.412 OA
ATOM     45  C   UNL     1      43.619  20.709  19.135  0.00  0.00    +0.098 A 
ENDROOT
BRANCH  13  14
ATOM     14  C   UNL     1      49.988  16.423  20.808  0.00  0.00    -0.049 A 
ATOM     15  C   UNL     1      51.226  16.687  20.221  0.00  0.00    +0.147 A 
ATOM     16  C   UNL     1      52.260  15.780  20.389  0.00  0.00    -0.136 A 
ATOM     17  C   UNL     1      52.032  14.619  21.161  0.00  0.00    -0.054 A 
ATOM     18  C   UNL     1      53.152  13.686  21.330  0.00  0.00    -0.074 A 
ATOM     19  C   UNL     1      52.878  12.438  21.929  0.00  0.00    -0.117 A 
ATOM     20  C   UNL     1      51.479  12.177  22.306  0.00  0.00    +0.540 A 
ATOM     21  O   UNL     1      50.648  13.230  22.505  0.00  0.00    -0.257 OA
ATOM     22  O   UNL     1      51.075  11.038  22.436  0.00  0.00    -0.408 OA
ATOM     23  C   UNL     1      53.919  11.537  22.104  0.00  0.00    +0.137 A 
ATOM     24  C   UNL     1      55.194  11.876  21.671  0.00  0.00    +0.074 A 
ATOM     25  C   UNL     1      55.454  13.110  21.069  0.00  0.00    +0.070 A 
ATOM     26  O   UNL     1      56.778  13.166  20.743  0.00  0.00    -0.285 OA
ATOM     27  C   UNL     1      57.409  12.134  21.523  0.00  0.00    +0.455 C 
ATOM     28  O   UNL     1      56.361  11.168  21.725  0.00  0.00    -0.291 OA
ATOM     29  C   UNL     1      54.429  14.035  20.898  0.00  0.00    +0.153 A 
ATOM     30  O   UNL     1      54.641  15.263  20.360  0.00  0.00    -0.264 OA
ATOM     31  C   UNL     1      50.799  14.349  21.753  0.00  0.00    +0.114 A 
ATOM     32  C   UNL     1      53.601  15.931  19.802  0.00  0.00    +0.538 A 
ATOM     33  O   UNL     1      53.774  16.644  18.832  0.00  0.00    -0.409 OA
ATOM     34  C   UNL     1      49.771  15.266  21.569  0.00  0.00    +0.174 A 
BRANCH  34  35
ATOM     35  O   UNL     1      48.552  15.038  22.123  0.00  0.00    -0.307 OA
ATOM     36  C   UNL     1      47.741  14.032  21.514  0.00  0.00    +0.247 C 
ENDBRANCH  34  35
ENDBRANCH  13  14
BRANCH   3   2
ATOM      1  C   UNL     1      42.931  23.967  18.768  0.00  0.00    +0.260 C 
ATOM      2  O   UNL     1      42.673  22.837  19.605  0.00  0.00    -0.290 OA
ENDBRANCH   3   2
BRANCH  37  38
ATOM     38  O   UNL     1      49.843  18.793  22.305  0.00  0.00    -0.307 OA
ATOM     39  C   UNL     1      50.810  19.787  21.959  0.00  0.00    +0.246 C 
ENDBRANCH  37  38
BRANCH  45  46
ATOM     46  O   UNL     1      42.552  20.409  18.351  0.00  0.00    -0.307 OA
ATOM     47  C   UNL     1      41.397  19.876  19.003  0.00  0.00    +0.242 C 
ENDBRANCH  45  46
TORSDOF 5
ENDMDL
MODEL 7
REMARK VINA RESULT:      -5.5      2.373      3.490
REMARK  Name = ZINC95485956
REMARK  9 active torsions:
REMARK  status: ('A' for Active; 'I' for Inactive)
REMARK    1  A    between atoms: C1_1  and  O1_2
REMARK    2  A    between atoms: O1_2  and  C2_3
REMARK    3  A    between atoms: C9_10  and  C14_18
REMARK    4  A    between atoms: C10_11  and  O4_16
REMARK    5  A    between atoms: O4_16  and  C13_17
REMARK    6  A    between atoms: C28_38  and  O11_39
REMARK    7  A    between atoms: O11_39  and  C29_40
REMARK    8  A    between atoms: C32_45  and  O14_46
REMARK    9  A    between atoms: O14_46  and  C33_47
REMARK                            x       y       z     vdW  Elec       q    Type
REMARK                         _______ _______ _______ _____ _____    ______ ____
ROOT
ATOM      3  C   UNL     1      56.064  12.202  20.588  0.00  0.00    +0.152 A 
ATOM      4  C   UNL     1      56.238  13.484  20.086  0.00  0.00    +0.033 A 
ATOM      5  C   UNL     1      55.145  14.336  20.009  0.00  0.00    -0.089 A 
ATOM      6  C   UNL     1      53.885  13.865  20.435  0.00  0.00    -0.115 A 
ATOM      7  C   UNL     1      52.745  14.784  20.331  0.00  0.00    -0.044 A 
ATOM      8  C   UNL     1      51.531  14.389  20.936  0.00  0.00    -0.142 A 
ATOM      9  C   UNL     1      51.532  13.094  21.638  0.00  0.00    +0.538 A 
ATOM     10  O   UNL     1      52.464  12.169  21.303  0.00  0.00    -0.259 OA
ATOM     11  O   UNL     1      50.710  12.861  22.504  0.00  0.00    -0.410 OA
ATOM     12  C   UNL     1      50.435  15.235  20.856  0.00  0.00    +0.149 A 
ATOM     13  C   UNL     1      50.568  16.457  20.197  0.00  0.00    -0.056 A 
ATOM     37  C   UNL     1      51.780  16.844  19.610  0.00  0.00    +0.177 A 
ATOM     40  C   UNL     1      52.884  16.001  19.668  0.00  0.00    +0.105 A 
ATOM     41  O   UNL     1      54.066  16.309  19.076  0.00  0.00    -0.258 OA
ATOM     42  C   UNL     1      53.704  12.577  20.935  0.00  0.00    +0.157 A 
ATOM     43  C   UNL     1      55.204  15.722  19.520  0.00  0.00    +0.535 A 
ATOM     44  O   UNL     1      56.256  16.333  19.515  0.00  0.00    -0.412 OA
ATOM     45  C   UNL     1      54.815  11.743  21.009  0.00  0.00    +0.098 A 
ENDROOT
BRANCH  13  14
ATOM     14  C   UNL     1      49.400  17.366  20.116  0.00  0.00    -0.049 A 
ATOM     15  C   UNL     1      48.412  17.123  19.162  0.00  0.00    +0.147 A 
ATOM     16  C   UNL     1      47.322  17.976  19.087  0.00  0.00    -0.136 A 
ATOM     17  C   UNL     1      47.239  19.060  19.988  0.00  0.00    -0.054 A 
ATOM     18  C   UNL     1      46.065  19.936  19.891  0.00  0.00    -0.074 A 
ATOM     19  C   UNL     1      46.072  21.125  20.650  0.00  0.00    -0.117 A 
ATOM     20  C   UNL     1      47.276  21.390  21.453  0.00  0.00    +0.540 A 
ATOM     21  O   UNL     1      48.072  20.350  21.804  0.00  0.00    -0.257 OA
ATOM     22  O   UNL     1      47.553  22.523  21.797  0.00  0.00    -0.408 OA
ATOM     23  C   UNL     1      44.974  21.970  20.579  0.00  0.00    +0.137 A 
ATOM     24  C   UNL     1      43.909  21.636  19.752  0.00  0.00    +0.074 A 
ATOM     25  C   UNL     1      43.916  20.461  18.995  0.00  0.00    +0.070 A 
ATOM     26  O   UNL     1      42.756  20.397  18.280  0.00  0.00    -0.285 OA
ATOM     27  C   UNL     1      41.859  21.325  18.918  0.00  0.00    +0.455 C 
ATOM     28  O   UNL     1      42.738  22.298  19.510  0.00  0.00    -0.291 OA
ATOM     29  C   UNL     1      44.999  19.591  19.064  0.00  0.00    +0.153 A 
ATOM     30  O   UNL     1      45.031  18.418  18.383  0.00  0.00    -0.264 OA
ATOM     31  C   UNL     1      48.220  19.308  20.947  0.00  0.00    +0.114 A 
ATOM     32  C   UNL     1      46.229  17.842  18.110  0.00  0.00    +0.538 A 
ATOM     33  O   UNL     1      46.397  17.225  17.076  0.00  0.00    -0.409 OA
ATOM     34  C   UNL     1      49.310  18.447  21.005  0.00  0.00    +0.174 A 
BRANCH  34  35
ATOM     35  O   UNL     1      50.292  18.656  21.920  0.00  0.00    -0.307 OA
ATOM     36  C   UNL     1      51.127  19.799  21.725  0.00  0.00    +0.247 C 
ENDBRANCH  34  35
ENDBRANCH  13  14
BRANCH   3   2
ATOM      1  C   UNL     1      58.072  11.612  21.718  0.00  0.00    +0.260 C 
ATOM      2  O   UNL     1      57.136  11.370  20.666  0.00  0.00    -0.290 OA
ENDBRANCH   3   2
BRANCH  37  38
ATOM     38  O   UNL     1      51.877  18.046  18.984  0.00  0.00    -0.307 OA
ATOM     39  C   UNL     1      51.638  18.064  17.575  0.00  0.00    +0.246 C 
ENDBRANCH  37  38
BRANCH  45  46
ATOM     46  O   UNL     1      54.685  10.483  21.498  0.00  0.00    -0.307 OA
ATOM     47  C   UNL     1      53.692  10.277  22.505  0.00  0.00    +0.242 C 
ENDBRANCH  45  46
TORSDOF 5
ENDMDL
MODEL 8
REMARK VINA RESULT:      -4.4      1.105      2.754
REMARK  Name = ZINC95485956
REMARK  9 active torsions:
REMARK  status: ('A' for Active; 'I' for Inactive)
REMARK    1  A    between atoms: C1_1  and  O1_2
REMARK    2  A    between atoms: O1_2  and  C2_3
REMARK    3  A    between atoms: C9_10  and  C14_18
REMARK    4  A    between atoms: C10_11  and  O4_16
REMARK    5  A    between atoms: O4_16  and  C13_17
REMARK    6  A    between atoms: C28_38  and  O11_39
REMARK    7  A    between atoms: O11_39  and  C29_40
REMARK    8  A    between atoms: C32_45  and  O14_46
REMARK    9  A    between atoms: O14_46  and  C33_47
REMARK                            x       y       z     vdW  Elec       q    Type
REMARK                         _______ _______ _______ _____ _____    ______ ____
ROOT
ATOM      3  C   UNL     1      55.963  12.243  20.740  0.00  0.00    +0.152 A 
ATOM      4  C   UNL     1      55.009  11.855  19.809  0.00  0.00    +0.033 A 
ATOM      5  C   UNL     1      53.810  12.550  19.737  0.00  0.00    -0.089 A 
ATOM      6  C   UNL     1      53.595  13.627  20.623  0.00  0.00    -0.115 A 
ATOM      7  C   UNL     1      52.314  14.337  20.531  0.00  0.00    -0.044 A 
ATOM      8  C   UNL     1      52.174  15.531  21.274  0.00  0.00    -0.142 A 
ATOM      9  C   UNL     1      53.344  15.965  22.055  0.00  0.00    +0.538 A 
ATOM     10  O   UNL     1      54.275  15.044  22.406  0.00  0.00    -0.259 OA
ATOM     11  O   UNL     1      53.473  17.130  22.379  0.00  0.00    -0.410 OA
ATOM     12  C   UNL     1      50.976  16.225  21.209  0.00  0.00    +0.149 A 
ATOM     13  C   UNL     1      49.950  15.736  20.399  0.00  0.00    -0.056 A 
ATOM     37  C   UNL     1      50.103  14.556  19.658  0.00  0.00    +0.177 A 
ATOM     40  C   UNL     1      51.292  13.839  19.725  0.00  0.00    +0.105 A 
ATOM     41  O   UNL     1      51.473  12.668  19.063  0.00  0.00    -0.258 OA
ATOM     42  C   UNL     1      54.547  14.019  21.562  0.00  0.00    +0.157 A 
ATOM     43  C   UNL     1      52.732  12.252  18.781  0.00  0.00    +0.535 A 
ATOM     44  O   UNL     1      52.966  11.644  17.754  0.00  0.00    -0.412 OA
ATOM     45  C   UNL     1      55.745  13.311  21.611  0.00  0.00    +0.098 A 
ENDROOT
BRANCH  13  14
ATOM     14  C   UNL     1      48.671  16.480  20.323  0.00  0.00    -0.049 A 
ATOM     15  C   UNL     1      47.481  15.824  20.636  0.00  0.00    +0.147 A 
ATOM     16  C   UNL     1      46.285  16.521  20.561  0.00  0.00    -0.136 A 
ATOM     17  C   UNL     1      46.310  17.881  20.181  0.00  0.00    -0.054 A 
ATOM     18  C   UNL     1      45.029  18.594  20.125  0.00  0.00    -0.074 A 
ATOM     19  C   UNL     1      45.024  19.887  19.560  0.00  0.00    -0.117 A 
ATOM     20  C   UNL     1      46.309  20.392  19.052  0.00  0.00    +0.540 A 
ATOM     21  O   UNL     1      47.459  19.861  19.536  0.00  0.00    -0.257 OA
ATOM     22  O   UNL     1      46.341  21.270  18.212  0.00  0.00    -0.408 OA
ATOM     23  C   UNL     1      43.826  20.585  19.497  0.00  0.00    +0.137 A 
ATOM     24  C   UNL     1      42.665  19.989  19.971  0.00  0.00    +0.074 A 
ATOM     25  C   UNL     1      42.677  18.704  20.519  0.00  0.00    +0.070 A 
ATOM     26  O   UNL     1      41.406  18.377  20.892  0.00  0.00    -0.285 OA
ATOM     27  C   UNL     1      40.690  19.624  20.954  0.00  0.00    +0.455 C 
ATOM     28  O   UNL     1      41.383  20.463  20.012  0.00  0.00    -0.291 OA
ATOM     29  C   UNL     1      43.868  17.992  20.608  0.00  0.00    +0.153 A 
ATOM     30  O   UNL     1      43.938  16.760  21.172  0.00  0.00    -0.264 OA
ATOM     31  C   UNL     1      47.495  18.546  19.870  0.00  0.00    +0.114 A 
ATOM     32  C   UNL     1      44.964  15.936  20.841  0.00  0.00    +0.538 A 
ATOM     33  O   UNL     1      44.794  14.734  20.778  0.00  0.00    -0.409 OA
ATOM     34  C   UNL     1      48.685  17.829  19.943  0.00  0.00    +0.174 A 
BRANCH  34  35
ATOM     35  O   UNL     1      49.861  18.437  19.641  0.00  0.00    -0.307 OA
ATOM     36  C   UNL     1      50.061  18.825  18.281  0.00  0.00    +0.247 C 
ENDBRANCH  34  35
ENDBRANCH  13  14
BRANCH   3   2
ATOM      1  C   UNL     1      57.401  10.839  22.011  0.00  0.00    +0.260 C 
ATOM      2  O   UNL     1      57.138  11.563  20.807  0.00  0.00    -0.290 OA
ENDBRANCH   3   2
BRANCH  37  38
ATOM     38  O   UNL     1      49.087  14.112  18.874  0.00  0.00    -0.307 OA
ATOM     39  C   UNL     1      48.205  13.142  19.441  0.00  0.00    +0.246 C 
ENDBRANCH  37  38
BRANCH  45  46
ATOM     46  O   UNL     1      56.704  13.664  22.505  0.00  0.00    -0.307 OA
ATOM     47  C   UNL     1      57.273  14.968  22.366  0.00  0.00    +0.242 C 
ENDBRANCH  45  46
TORSDOF 5
ENDMDL
MODEL 9
REMARK VINA RESULT:      -4.2      2.360      3.520
REMARK  Name = ZINC95485956
REMARK  9 active torsions:
REMARK  status: ('A' for Active; 'I' for Inactive)
REMARK    1  A    between atoms: C1_1  and  O1_2
REMARK    2  A    between atoms: O1_2  and  C2_3
REMARK    3  A    between atoms: C9_10  and  C14_18
REMARK    4  A    between atoms: C10_11  and  O4_16
REMARK    5  A    between atoms: O4_16  and  C13_17
REMARK    6  A    between atoms: C28_38  and  O11_39
REMARK    7  A    between atoms: O11_39  and  C29_40
REMARK    8  A    between atoms: C32_45  and  O14_46
REMARK    9  A    between atoms: O14_46  and  C33_47
REMARK                            x       y       z     vdW  Elec       q    Type
REMARK                         _______ _______ _______ _____ _____    ______ ____
ROOT
ATOM      3  C   UNL     1      56.230  12.136  20.621  0.00  0.00    +0.152 A 
ATOM      4  C   UNL     1      56.481  13.426  20.177  0.00  0.00    +0.033 A 
ATOM      5  C   UNL     1      55.433  14.333  20.100  0.00  0.00    -0.089 A 
ATOM      6  C   UNL     1      54.138  13.907  20.466  0.00  0.00    -0.115 A 
ATOM      7  C   UNL     1      53.048  14.884  20.363  0.00  0.00    -0.044 A 
ATOM      8  C   UNL     1      51.796  14.526  20.913  0.00  0.00    -0.142 A 
ATOM      9  C   UNL     1      51.712  13.206  21.563  0.00  0.00    +0.538 A 
ATOM     10  O   UNL     1      52.610  12.250  21.221  0.00  0.00    -0.259 OA
ATOM     11  O   UNL     1      50.852  12.980  22.392  0.00  0.00    -0.410 OA
ATOM     12  C   UNL     1      50.745  15.426  20.833  0.00  0.00    +0.149 A 
ATOM     13  C   UNL     1      50.958  16.665  20.228  0.00  0.00    -0.056 A 
ATOM     37  C   UNL     1      52.206  17.016  19.695  0.00  0.00    +0.177 A 
ATOM     40  C   UNL     1      53.266  16.118  19.754  0.00  0.00    +0.105 A 
ATOM     41  O   UNL     1      54.480  16.391  19.213  0.00  0.00    -0.258 OA
ATOM     42  C   UNL     1      53.880  12.612  20.908  0.00  0.00    +0.157 A 
ATOM     43  C   UNL     1      55.574  15.732  19.669  0.00  0.00    +0.535 A 
ATOM     44  O   UNL     1      56.653  16.291  19.722  0.00  0.00    -0.412 OA
ATOM     45  C   UNL     1      54.947  11.722  20.984  0.00  0.00    +0.098 A 
ENDROOT
BRANCH  13  14
ATOM     14  C   UNL     1      49.837  17.632  20.147  0.00  0.00    -0.049 A 
ATOM     15  C   UNL     1      49.919  18.831  20.855  0.00  0.00    +0.147 A 
ATOM     16  C   UNL     1      48.869  19.733  20.780  0.00  0.00    -0.136 A 
ATOM     17  C   UNL     1      47.751  19.415  19.977  0.00  0.00    -0.054 A 
ATOM     18  C   UNL     1      46.663  20.397  19.908  0.00  0.00    -0.074 A 
ATOM     19  C   UNL     1      45.467  20.004  19.271  0.00  0.00    -0.117 A 
ATOM     20  C   UNL     1      45.414  18.626  18.756  0.00  0.00    +0.540 A 
ATOM     21  O   UNL     1      46.576  17.982  18.487  0.00  0.00    -0.257 OA
ATOM     22  O   UNL     1      44.345  18.074  18.574  0.00  0.00    -0.408 OA
ATOM     23  C   UNL     1      44.423  20.913  19.189  0.00  0.00    +0.137 A 
ATOM     24  C   UNL     1      44.573  22.175  19.750  0.00  0.00    +0.074 A 
ATOM     25  C   UNL     1      45.757  22.552  20.388  0.00  0.00    +0.070 A 
ATOM     26  O   UNL     1      45.618  23.831  20.844  0.00  0.00    -0.285 OA
ATOM     27  C   UNL     1      44.502  24.379  20.119  0.00  0.00    +0.455 C 
ATOM     28  O   UNL     1      43.700  23.226  19.804  0.00  0.00    -0.291 OA
ATOM     29  C   UNL     1      46.822  21.662  20.468  0.00  0.00    +0.153 A 
ATOM     30  O   UNL     1      48.008  21.998  21.038  0.00  0.00    -0.264 OA
ATOM     31  C   UNL     1      47.663  18.220  19.263  0.00  0.00    +0.114 A 
ATOM     32  C   UNL     1      48.824  21.016  21.499  0.00  0.00    +0.538 A 
ATOM     33  O   UNL     1      49.506  21.195  22.489  0.00  0.00    -0.409 OA
ATOM     34  C   UNL     1      48.722  17.324  19.355  0.00  0.00    +0.174 A 
BRANCH  34  35
ATOM     35  O   UNL     1      48.674  16.146  18.681  0.00  0.00    -0.307 OA
ATOM     36  C   UNL     1      49.015  16.179  17.294  0.00  0.00    +0.247 C 
ENDBRANCH  34  35
ENDBRANCH  13  14
BRANCH   3   2
ATOM      1  C   UNL     1      57.878  11.085  21.976  0.00  0.00    +0.260 C 
ATOM      2  O   UNL     1      57.258  11.250  20.699  0.00  0.00    -0.290 OA
ENDBRANCH   3   2
BRANCH  37  38
ATOM     38  O   UNL     1      52.381  18.234  19.122  0.00  0.00    -0.307 OA
ATOM     39  C   UNL     1      52.244  18.308  17.701  0.00  0.00    +0.246 C 
ENDBRANCH  37  38
BRANCH  45  46
ATOM     46  O   UNL     1      54.741  10.452  21.417  0.00  0.00    -0.307 OA
ATOM     47  C   UNL     1      53.831  10.277  22.505  0.00  0.00    +0.242 C 
ENDBRANCH  45  46
TORSDOF 5
ENDMDL
