MODEL 1
REMARK VINA RESULT:      -6.1      0.000      0.000
REMARK  Name = ZINC14758411
REMARK  6 active torsions:
REMARK  status: ('A' for Active; 'I' for Inactive)
REMARK    1  A    between atoms: C3_3  and  O6_22
REMARK    2  A    between atoms: C6_6  and  C7_7
REMARK    3  A    between atoms: C7_7  and  C8_8
REMARK    4  A    between atoms: C8_8  and  O5_21
REMARK    5  A    between atoms: C12_13  and  O4_20
REMARK    6  A    between atoms: C14_15  and  O3_19
REMARK                            x       y       z     vdW  Elec       q    Type
REMARK                         _______ _______ _______ _____ _____    ______ ____
ROOT
ATOM     10  C   UNL     1      45.599  21.382  20.264  0.00  0.00    +0.070 C 
ATOM     13  C   UNL     1      45.049  22.806  20.423  0.00  0.00    +0.253 C 
ATOM     14  O   UNL     1      44.021  23.027  19.459  0.00  0.00    -0.294 OA
ATOM     15  C   UNL     1      43.001  22.140  19.381  0.00  0.00    +0.206 A 
ATOM     16  C   UNL     1      41.791  22.523  18.829  0.00  0.00    -0.049 A 
ATOM     17  C   UNL     1      40.744  21.615  18.740  0.00  0.00    +0.199 A 
ATOM     20  C   UNL     1      40.895  20.312  19.201  0.00  0.00    -0.072 A 
ATOM     21  C   UNL     1      42.095  19.908  19.757  0.00  0.00    +0.222 A 
ATOM     24  C   UNL     1      43.156  20.823  19.855  0.00  0.00    -0.292 A 
ATOM     25  C   UNL     1      44.434  20.427  20.456  0.00  0.00    +0.378 C 
ATOM     26  O   UNL     1      44.554  19.388  21.072  0.00  0.00    -0.407 OA
ENDROOT
BRANCH  10  11
ATOM     11  O   UNL     1      46.601  21.132  21.252  0.00  0.00    -0.519 OA
ATOM     12  H   UNL     1      46.367  20.437  21.882  0.00  0.00    +0.383 HD
ENDBRANCH  10  11
BRANCH  17  18
ATOM     18  O   UNL     1      39.563  22.004  18.198  0.00  0.00    -0.489 OA
ATOM     19  H   UNL     1      38.798  21.848  18.769  0.00  0.00    +0.403 HD
ENDBRANCH  17  18
BRANCH  21  22
ATOM     22  O   UNL     1      42.247  18.637  20.205  0.00  0.00    -0.477 OA
ATOM     23  H   UNL     1      43.061  18.209  19.904  0.00  0.00    +0.403 HD
ENDBRANCH  21  22
BRANCH  10   9
ATOM      9  C   UNL     1      46.192  21.205  18.865  0.00  0.00    +0.137 C 
BRANCH   9   8
ATOM      1  C   UNL     1      47.266  18.946  18.821  0.00  0.00    +0.027 A 
ATOM      2  C   UNL     1      48.378  18.127  18.892  0.00  0.00    -0.013 A 
ATOM      3  C   UNL     1      49.634  18.682  19.084  0.00  0.00    +0.107 A 
ATOM      6  C   UNL     1      49.772  20.057  19.204  0.00  0.00    -0.018 A 
ATOM      7  C   UNL     1      48.657  20.870  19.134  0.00  0.00    +0.053 A 
ATOM      8  C   UNL     1      47.406  20.315  18.942  0.00  0.00    -0.099 A 
BRANCH   3   4
ATOM      4  O   UNL     1      50.728  17.879  19.154  0.00  0.00    -0.501 OA
ATOM      5  H   UNL     1      50.717  17.142  18.527  0.00  0.00    +0.391 HD
ENDBRANCH   3   4
ENDBRANCH   9   8
ENDBRANCH  10   9
TORSDOF 6
ENDMDL
MODEL 2
REMARK VINA RESULT:      -5.7      2.052      7.469
REMARK  Name = ZINC14758411
REMARK  6 active torsions:
REMARK  status: ('A' for Active; 'I' for Inactive)
REMARK    1  A    between atoms: C3_3  and  O6_22
REMARK    2  A    between atoms: C6_6  and  C7_7
REMARK    3  A    between atoms: C7_7  and  C8_8
REMARK    4  A    between atoms: C8_8  and  O5_21
REMARK    5  A    between atoms: C12_13  and  O4_20
REMARK    6  A    between atoms: C14_15  and  O3_19
REMARK                            x       y       z     vdW  Elec       q    Type
REMARK                         _______ _______ _______ _____ _____    ______ ____
ROOT
ATOM     10  C   UNL     1      47.513  18.799  19.460  0.00  0.00    +0.070 C 
ATOM     13  C   UNL     1      47.939  17.327  19.360  0.00  0.00    +0.253 C 
ATOM     14  O   UNL     1      48.570  17.102  18.100  0.00  0.00    -0.294 OA
ATOM     15  C   UNL     1      49.593  17.909  17.732  0.00  0.00    +0.206 A 
ATOM     16  C   UNL     1      50.513  17.476  16.794  0.00  0.00    -0.049 A 
ATOM     17  C   UNL     1      51.560  18.303  16.407  0.00  0.00    +0.199 A 
ATOM     20  C   UNL     1      51.698  19.573  16.953  0.00  0.00    -0.072 A 
ATOM     21  C   UNL     1      50.792  20.026  17.894  0.00  0.00    +0.222 A 
ATOM     24  C   UNL     1      49.734  19.192  18.294  0.00  0.00    -0.292 A 
ATOM     25  C   UNL     1      48.767  19.641  19.301  0.00  0.00    +0.378 C 
ATOM     26  O   UNL     1      48.958  20.633  19.972  0.00  0.00    -0.407 OA
ENDROOT
BRANCH  10  11
ATOM     11  O   UNL     1      46.917  19.048  20.734  0.00  0.00    -0.519 OA
ATOM     12  H   UNL     1      47.400  18.660  21.477  0.00  0.00    +0.383 HD
ENDBRANCH  10  11
BRANCH  17  18
ATOM     18  O   UNL     1      52.455  17.865  15.487  0.00  0.00    -0.489 OA
ATOM     19  H   UNL     1      53.376  17.918  15.778  0.00  0.00    +0.403 HD
ENDBRANCH  17  18
BRANCH  21  22
ATOM     22  O   UNL     1      50.921  21.266  18.428  0.00  0.00    -0.477 OA
ATOM     23  H   UNL     1      50.140  21.570  18.910  0.00  0.00    +0.403 HD
ENDBRANCH  21  22
BRANCH  10   9
ATOM      9  C   UNL     1      46.518  19.131  18.346  0.00  0.00    +0.137 C 
BRANCH   9   8
ATOM      1  C   UNL     1      45.971  21.519  18.851  0.00  0.00    +0.027 A 
ATOM      2  C   UNL     1      45.100  22.500  19.289  0.00  0.00    -0.013 A 
ATOM      3  C   UNL     1      43.820  22.155  19.698  0.00  0.00    +0.107 A 
ATOM      6  C   UNL     1      43.417  20.828  19.668  0.00  0.00    -0.018 A 
ATOM      7  C   UNL     1      44.292  19.853  19.230  0.00  0.00    +0.053 A 
ATOM      8  C   UNL     1      45.567  20.197  18.823  0.00  0.00    -0.099 A 
BRANCH   3   4
ATOM      4  O   UNL     1      42.963  23.118  20.129  0.00  0.00    -0.501 OA
ATOM      5  H   UNL     1      43.313  24.017  20.060  0.00  0.00    +0.391 HD
ENDBRANCH   3   4
ENDBRANCH   9   8
ENDBRANCH  10   9
TORSDOF 6
ENDMDL
MODEL 3
REMARK VINA RESULT:      -5.6      2.597      3.202
REMARK  Name = ZINC14758411
REMARK  6 active torsions:
REMARK  status: ('A' for Active; 'I' for Inactive)
REMARK    1  A    between atoms: C3_3  and  O6_22
REMARK    2  A    between atoms: C6_6  and  C7_7
REMARK    3  A    between atoms: C7_7  and  C8_8
REMARK    4  A    between atoms: C8_8  and  O5_21
REMARK    5  A    between atoms: C12_13  and  O4_20
REMARK    6  A    between atoms: C14_15  and  O3_19
REMARK                            x       y       z     vdW  Elec       q    Type
REMARK                         _______ _______ _______ _____ _____    ______ ____
ROOT
ATOM     10  C   UNL     1      44.996  18.809  20.426  0.00  0.00    +0.070 C 
ATOM     13  C   UNL     1      45.288  20.279  20.092  0.00  0.00    +0.253 C 
ATOM     14  O   UNL     1      44.347  20.739  19.124  0.00  0.00    -0.294 OA
ATOM     15  C   UNL     1      43.026  20.570  19.369  0.00  0.00    +0.206 A 
ATOM     16  C   UNL     1      42.096  21.374  18.734  0.00  0.00    -0.049 A 
ATOM     17  C   UNL     1      40.739  21.200  18.977  0.00  0.00    +0.199 A 
ATOM     20  C   UNL     1      40.297  20.219  19.856  0.00  0.00    -0.072 A 
ATOM     21  C   UNL     1      41.209  19.405  20.503  0.00  0.00    +0.222 A 
ATOM     24  C   UNL     1      42.582  19.580  20.266  0.00  0.00    -0.292 A 
ATOM     25  C   UNL     1      43.573  18.742  20.950  0.00  0.00    +0.378 C 
ATOM     26  O   UNL     1      43.270  18.030  21.885  0.00  0.00    -0.407 OA
ENDROOT
BRANCH  10  11
ATOM     11  O   UNL     1      45.906  18.347  21.427  0.00  0.00    -0.519 OA
ATOM     12  H   UNL     1      46.745  18.830  21.449  0.00  0.00    +0.383 HD
ENDBRANCH  10  11
BRANCH  17  18
ATOM     18  O   UNL     1      39.838  21.996  18.349  0.00  0.00    -0.489 OA
ATOM     19  H   UNL     1      39.512  22.726  18.893  0.00  0.00    +0.403 HD
ENDBRANCH  17  18
BRANCH  21  22
ATOM     22  O   UNL     1      40.782  18.445  21.359  0.00  0.00    -0.477 OA
ATOM     23  H   UNL     1      41.138  18.529  22.255  0.00  0.00    +0.403 HD
ENDBRANCH  21  22
BRANCH  10   9
ATOM      9  C   UNL     1      45.129  17.951  19.167  0.00  0.00    +0.137 C 
BRANCH   9   8
ATOM      1  C   UNL     1      45.078  15.621  20.075  0.00  0.00    +0.027 A 
ATOM      2  C   UNL     1      45.698  14.427  20.394  0.00  0.00    -0.013 A 
ATOM      3  C   UNL     1      47.053  14.264  20.148  0.00  0.00    +0.107 A 
ATOM      6  C   UNL     1      47.783  15.300  19.582  0.00  0.00    -0.018 A 
ATOM      7  C   UNL     1      47.158  16.491  19.266  0.00  0.00    +0.053 A 
ATOM      8  C   UNL     1      45.807  16.651  19.513  0.00  0.00    -0.099 A 
BRANCH   3   4
ATOM      4  O   UNL     1      47.665  13.091  20.461  0.00  0.00    -0.501 OA
ATOM      5  H   UNL     1      47.958  13.034  21.381  0.00  0.00    +0.391 HD
ENDBRANCH   3   4
ENDBRANCH   9   8
ENDBRANCH  10   9
TORSDOF 6
ENDMDL
MODEL 4
REMARK VINA RESULT:      -5.6      5.597      8.166
REMARK  Name = ZINC14758411
REMARK  6 active torsions:
REMARK  status: ('A' for Active; 'I' for Inactive)
REMARK    1  A    between atoms: C3_3  and  O6_22
REMARK    2  A    between atoms: C6_6  and  C7_7
REMARK    3  A    between atoms: C7_7  and  C8_8
REMARK    4  A    between atoms: C8_8  and  O5_21
REMARK    5  A    between atoms: C12_13  and  O4_20
REMARK    6  A    between atoms: C14_15  and  O3_19
REMARK                            x       y       z     vdW  Elec       q    Type
REMARK                         _______ _______ _______ _____ _____    ______ ____
ROOT
ATOM     10  C   UNL     1      50.020  16.241  18.092  0.00  0.00    +0.070 C 
ATOM     13  C   UNL     1      51.379  16.057  17.400  0.00  0.00    +0.253 C 
ATOM     14  O   UNL     1      51.560  17.091  16.433  0.00  0.00    -0.294 OA
ATOM     15  C   UNL     1      51.404  18.378  16.821  0.00  0.00    +0.206 A 
ATOM     16  C   UNL     1      51.999  19.396  16.095  0.00  0.00    -0.049 A 
ATOM     17  C   UNL     1      51.838  20.719  16.485  0.00  0.00    +0.199 A 
ATOM     20  C   UNL     1      51.078  21.041  17.603  0.00  0.00    -0.072 A 
ATOM     21  C   UNL     1      50.475  20.040  18.344  0.00  0.00    +0.222 A 
ATOM     24  C   UNL     1      50.640  18.699  17.958  0.00  0.00    -0.292 A 
ATOM     25  C   UNL     1      50.026  17.617  18.734  0.00  0.00    +0.378 C 
ATOM     26  O   UNL     1      49.547  17.811  19.832  0.00  0.00    -0.407 OA
ENDROOT
BRANCH  10  11
ATOM     11  O   UNL     1      49.844  15.236  19.093  0.00  0.00    -0.519 OA
ATOM     12  H   UNL     1      49.123  15.420  19.711  0.00  0.00    +0.383 HD
ENDBRANCH  10  11
BRANCH  17  18
ATOM     18  O   UNL     1      52.427  21.707  15.765  0.00  0.00    -0.489 OA
ATOM     19  H   UNL     1      52.164  21.725  14.835  0.00  0.00    +0.403 HD
ENDBRANCH  17  18
BRANCH  21  22
ATOM     22  O   UNL     1      49.731  20.350  19.434  0.00  0.00    -0.477 OA
ATOM     23  H   UNL     1      50.029  21.142  19.902  0.00  0.00    +0.403 HD
ENDBRANCH  21  22
BRANCH  10   9
ATOM      9  C   UNL     1      48.893  16.151  17.062  0.00  0.00    +0.137 C 
BRANCH   9   8
ATOM      1  C   UNL     1      47.645  14.001  17.339  0.00  0.00    +0.027 A 
ATOM      2  C   UNL     1      46.599  13.261  17.860  0.00  0.00    -0.013 A 
ATOM      3  C   UNL     1      45.660  13.873  18.677  0.00  0.00    +0.107 A 
ATOM      6  C   UNL     1      45.772  15.224  18.969  0.00  0.00    -0.018 A 
ATOM      7  C   UNL     1      46.818  15.958  18.445  0.00  0.00    +0.053 A 
ATOM      8  C   UNL     1      47.753  15.348  17.631  0.00  0.00    -0.099 A 
BRANCH   3   4
ATOM      4  O   UNL     1      44.631  13.147  19.190  0.00  0.00    -0.501 OA
ATOM      5  H   UNL     1      44.884  12.568  19.922  0.00  0.00    +0.391 HD
ENDBRANCH   3   4
ENDBRANCH   9   8
ENDBRANCH  10   9
TORSDOF 6
ENDMDL
MODEL 5
REMARK VINA RESULT:      -5.4      2.456      3.455
REMARK  Name = ZINC14758411
REMARK  6 active torsions:
REMARK  status: ('A' for Active; 'I' for Inactive)
REMARK    1  A    between atoms: C3_3  and  O6_22
REMARK    2  A    between atoms: C6_6  and  C7_7
REMARK    3  A    between atoms: C7_7  and  C8_8
REMARK    4  A    between atoms: C8_8  and  O5_21
REMARK    5  A    between atoms: C12_13  and  O4_20
REMARK    6  A    between atoms: C14_15  and  O3_19
REMARK                            x       y       z     vdW  Elec       q    Type
REMARK                         _______ _______ _______ _____ _____    ______ ____
ROOT
ATOM     10  C   UNL     1      46.278  17.996  19.939  0.00  0.00    +0.070 C 
ATOM     13  C   UNL     1      45.681  16.862  20.784  0.00  0.00    +0.253 C 
ATOM     14  O   UNL     1      44.684  17.394  21.654  0.00  0.00    -0.294 OA
ATOM     15  C   UNL     1      43.694  18.151  21.123  0.00  0.00    +0.206 A 
ATOM     16  C   UNL     1      42.496  18.295  21.800  0.00  0.00    -0.049 A 
ATOM     17  C   UNL     1      41.479  19.075  21.263  0.00  0.00    +0.199 A 
ATOM     20  C   UNL     1      41.650  19.722  20.045  0.00  0.00    -0.072 A 
ATOM     21  C   UNL     1      42.840  19.590  19.351  0.00  0.00    +0.222 A 
ATOM     24  C   UNL     1      43.869  18.798  19.886  0.00  0.00    -0.292 A 
ATOM     25  C   UNL     1      45.135  18.628  19.164  0.00  0.00    +0.378 C 
ATOM     26  O   UNL     1      45.262  18.976  18.008  0.00  0.00    -0.407 OA
ENDROOT
BRANCH  10  11
ATOM     11  O   UNL     1      47.249  17.470  19.032  0.00  0.00    -0.519 OA
ATOM     12  H   UNL     1      47.485  18.074  18.314  0.00  0.00    +0.383 HD
ENDBRANCH  10  11
BRANCH  17  18
ATOM     18  O   UNL     1      40.309  19.207  21.936  0.00  0.00    -0.489 OA
ATOM     19  H   UNL     1      40.148  18.509  22.586  0.00  0.00    +0.403 HD
ENDBRANCH  17  18
BRANCH  21  22
ATOM     22  O   UNL     1      43.012  20.222  18.164  0.00  0.00    -0.477 OA
ATOM     23  H   UNL     1      42.260  20.139  17.561  0.00  0.00    +0.403 HD
ENDBRANCH  21  22
BRANCH  10   9
ATOM      9  C   UNL     1      46.928  19.039  20.850  0.00  0.00    +0.137 C 
BRANCH   9   8
ATOM      1  C   UNL     1      48.274  20.488  19.317  0.00  0.00    +0.027 A 
ATOM      2  C   UNL     1      49.479  20.890  18.771  0.00  0.00    -0.013 A 
ATOM      3  C   UNL     1      50.657  20.274  19.168  0.00  0.00    +0.107 A 
ATOM      6  C   UNL     1      50.623  19.258  20.111  0.00  0.00    -0.018 A 
ATOM      7  C   UNL     1      49.416  18.861  20.653  0.00  0.00    +0.053 A 
ATOM      8  C   UNL     1      48.243  19.475  20.257  0.00  0.00    -0.099 A 
BRANCH   3   4
ATOM      4  O   UNL     1      51.842  20.668  18.632  0.00  0.00    -0.501 OA
ATOM      5  H   UNL     1      52.068  20.220  17.805  0.00  0.00    +0.391 HD
ENDBRANCH   3   4
ENDBRANCH   9   8
ENDBRANCH  10   9
TORSDOF 6
ENDMDL
MODEL 6
REMARK VINA RESULT:      -5.4     20.393     22.701
REMARK  Name = ZINC14758411
REMARK  6 active torsions:
REMARK  status: ('A' for Active; 'I' for Inactive)
REMARK    1  A    between atoms: C3_3  and  O6_22
REMARK    2  A    between atoms: C6_6  and  C7_7
REMARK    3  A    between atoms: C7_7  and  C8_8
REMARK    4  A    between atoms: C8_8  and  O5_21
REMARK    5  A    between atoms: C12_13  and  O4_20
REMARK    6  A    between atoms: C14_15  and  O3_19
REMARK                            x       y       z     vdW  Elec       q    Type
REMARK                         _______ _______ _______ _____ _____    ______ ____
ROOT
ATOM     10  C   UNL     1      55.986  34.083   4.972  0.00  0.00    +0.070 C 
ATOM     13  C   UNL     1      57.504  34.308   5.019  0.00  0.00    +0.253 C 
ATOM     14  O   UNL     1      58.169  33.046   5.034  0.00  0.00    -0.294 OA
ATOM     15  C   UNL     1      57.862  32.138   4.078  0.00  0.00    +0.206 A 
ATOM     16  C   UNL     1      58.761  31.133   3.764  0.00  0.00    -0.049 A 
ATOM     17  C   UNL     1      58.448  30.195   2.789  0.00  0.00    +0.199 A 
ATOM     20  C   UNL     1      57.232  30.248   2.118  0.00  0.00    -0.072 A 
ATOM     21  C   UNL     1      56.320  31.245   2.415  0.00  0.00    +0.222 A 
ATOM     24  C   UNL     1      56.633  32.200   3.396  0.00  0.00    -0.292 A 
ATOM     25  C   UNL     1      55.691  33.277   3.719  0.00  0.00    +0.378 C 
ATOM     26  O   UNL     1      54.725  33.510   3.023  0.00  0.00    -0.407 OA
ENDROOT
BRANCH  10  11
ATOM     11  O   UNL     1      55.309  35.340   4.913  0.00  0.00    -0.519 OA
ATOM     12  H   UNL     1      54.891  35.600   5.746  0.00  0.00    +0.383 HD
ENDBRANCH  10  11
BRANCH  17  18
ATOM     18  O   UNL     1      59.338  29.216   2.490  0.00  0.00    -0.489 OA
ATOM     19  H   UNL     1      60.137  29.533   2.047  0.00  0.00    +0.403 HD
ENDBRANCH  17  18
BRANCH  21  22
ATOM     22  O   UNL     1      55.131  31.299   1.764  0.00  0.00    -0.477 OA
ATOM     23  H   UNL     1      54.582  30.511   1.881  0.00  0.00    +0.403 HD
ENDBRANCH  21  22
BRANCH  10   9
ATOM      9  C   UNL     1      55.535  33.306   6.210  0.00  0.00    +0.137 C 
BRANCH   9   8
ATOM      1  C   UNL     1      53.234  32.395   5.843  0.00  0.00    +0.027 A 
ATOM      2  C   UNL     1      51.859  32.480   5.966  0.00  0.00    -0.013 A 
ATOM      3  C   UNL     1      51.288  33.577   6.595  0.00  0.00    +0.107 A 
ATOM      6  C   UNL     1      52.097  34.584   7.099  0.00  0.00    -0.018 A 
ATOM      7  C   UNL     1      53.470  34.494   6.973  0.00  0.00    +0.053 A 
ATOM      8  C   UNL     1      54.038  33.401   6.345  0.00  0.00    -0.099 A 
BRANCH   3   4
ATOM      4  O   UNL     1      49.937  33.662   6.717  0.00  0.00    -0.501 OA
ATOM      5  H   UNL     1      49.642  34.292   7.389  0.00  0.00    +0.391 HD
ENDBRANCH   3   4
ENDBRANCH   9   8
ENDBRANCH  10   9
TORSDOF 6
ENDMDL
MODEL 7
REMARK VINA RESULT:      -5.3      2.412      7.378
REMARK  Name = ZINC14758411
REMARK  6 active torsions:
REMARK  status: ('A' for Active; 'I' for Inactive)
REMARK    1  A    between atoms: C3_3  and  O6_22
REMARK    2  A    between atoms: C6_6  and  C7_7
REMARK    3  A    between atoms: C7_7  and  C8_8
REMARK    4  A    between atoms: C8_8  and  O5_21
REMARK    5  A    between atoms: C12_13  and  O4_20
REMARK    6  A    between atoms: C14_15  and  O3_19
REMARK                            x       y       z     vdW  Elec       q    Type
REMARK                         _______ _______ _______ _____ _____    ______ ____
ROOT
ATOM     10  C   UNL     1      48.142  17.240  18.827  0.00  0.00    +0.070 C 
ATOM     13  C   UNL     1      49.192  16.341  18.159  0.00  0.00    +0.253 C 
ATOM     14  O   UNL     1      49.739  17.013  17.026  0.00  0.00    -0.294 OA
ATOM     15  C   UNL     1      50.231  18.264  17.187  0.00  0.00    +0.206 A 
ATOM     16  C   UNL     1      51.158  18.764  16.289  0.00  0.00    -0.049 A 
ATOM     17  C   UNL     1      51.661  20.049  16.446  0.00  0.00    +0.199 A 
ATOM     20  C   UNL     1      51.243  20.850  17.502  0.00  0.00    -0.072 A 
ATOM     21  C   UNL     1      50.318  20.370  18.412  0.00  0.00    +0.222 A 
ATOM     24  C   UNL     1      49.810  19.069  18.262  0.00  0.00    -0.292 A 
ATOM     25  C   UNL     1      48.841  18.529  19.221  0.00  0.00    +0.378 C 
ATOM     26  O   UNL     1      48.609  19.084  20.275  0.00  0.00    -0.407 OA
ENDROOT
BRANCH  10  11
ATOM     11  O   UNL     1      47.616  16.595  19.988  0.00  0.00    -0.519 OA
ATOM     12  H   UNL     1      48.087  15.787  20.237  0.00  0.00    +0.383 HD
ENDBRANCH  10  11
BRANCH  17  18
ATOM     18  O   UNL     1      52.570  20.526  15.559  0.00  0.00    -0.489 OA
ATOM     19  H   UNL     1      53.088  21.273  15.890  0.00  0.00    +0.403 HD
ENDBRANCH  17  18
BRANCH  21  22
ATOM     22  O   UNL     1      49.905  21.149  19.442  0.00  0.00    -0.477 OA
ATOM     23  H   UNL     1      48.943  21.199  19.536  0.00  0.00    +0.403 HD
ENDBRANCH  21  22
BRANCH  10   9
ATOM      9  C   UNL     1      47.011  17.541  17.842  0.00  0.00    +0.137 C 
BRANCH   9   8
ATOM      1  C   UNL     1      45.047  17.635  19.389  0.00  0.00    +0.027 A 
ATOM      2  C   UNL     1      44.043  18.331  20.037  0.00  0.00    -0.013 A 
ATOM      3  C   UNL     1      43.913  19.698  19.843  0.00  0.00    +0.107 A 
ATOM      6  C   UNL     1      44.789  20.364  18.999  0.00  0.00    -0.018 A 
ATOM      7  C   UNL     1      45.790  19.664  18.353  0.00  0.00    +0.053 A 
ATOM      8  C   UNL     1      45.918  18.301  18.548  0.00  0.00    -0.099 A 
BRANCH   3   4
ATOM      4  O   UNL     1      42.926  20.383  20.480  0.00  0.00    -0.501 OA
ATOM      5  H   UNL     1      42.069  20.345  20.033  0.00  0.00    +0.391 HD
ENDBRANCH   3   4
ENDBRANCH   9   8
ENDBRANCH  10   9
TORSDOF 6
ENDMDL
MODEL 8
REMARK VINA RESULT:      -5.3      1.559      2.069
REMARK  Name = ZINC14758411
REMARK  6 active torsions:
REMARK  status: ('A' for Active; 'I' for Inactive)
REMARK    1  A    between atoms: C3_3  and  O6_22
REMARK    2  A    between atoms: C6_6  and  C7_7
REMARK    3  A    between atoms: C7_7  and  C8_8
REMARK    4  A    between atoms: C8_8  and  O5_21
REMARK    5  A    between atoms: C12_13  and  O4_20
REMARK    6  A    between atoms: C14_15  and  O3_19
REMARK                            x       y       z     vdW  Elec       q    Type
REMARK                         _______ _______ _______ _____ _____    ______ ____
ROOT
ATOM     10  C   UNL     1      47.473  20.552  20.463  0.00  0.00    +0.070 C 
ATOM     13  C   UNL     1      46.949  21.854  21.087  0.00  0.00    +0.253 C 
ATOM     14  O   UNL     1      45.853  22.341  20.315  0.00  0.00    -0.294 OA
ATOM     15  C   UNL     1      44.823  21.504  20.049  0.00  0.00    +0.206 A 
ATOM     16  C   UNL     1      43.578  22.019  19.732  0.00  0.00    -0.049 A 
ATOM     17  C   UNL     1      42.519  21.165  19.451  0.00  0.00    +0.199 A 
ATOM     20  C   UNL     1      42.692  19.787  19.483  0.00  0.00    -0.072 A 
ATOM     21  C   UNL     1      43.927  19.250  19.800  0.00  0.00    +0.222 A 
ATOM     24  C   UNL     1      45.001  20.108  20.090  0.00  0.00    -0.292 A 
ATOM     25  C   UNL     1      46.317  19.567  20.444  0.00  0.00    +0.378 C 
ATOM     26  O   UNL     1      46.474  18.393  20.707  0.00  0.00    -0.407 OA
ENDROOT
BRANCH  10  11
ATOM     11  O   UNL     1      48.545  20.030  21.251  0.00  0.00    -0.519 OA
ATOM     12  H   UNL     1      48.958  20.682  21.834  0.00  0.00    +0.383 HD
ENDBRANCH  10  11
BRANCH  17  18
ATOM     18  O   UNL     1      41.303  21.683  19.143  0.00  0.00    -0.489 OA
ATOM     19  H   UNL     1      41.177  21.852  18.199  0.00  0.00    +0.403 HD
ENDBRANCH  17  18
BRANCH  21  22
ATOM     22  O   UNL     1      44.101  17.906  19.829  0.00  0.00    -0.477 OA
ATOM     23  H   UNL     1      43.468  17.439  20.392  0.00  0.00    +0.403 HD
ENDBRANCH  21  22
BRANCH  10   9
ATOM      9  C   UNL     1      47.956  20.815  19.036  0.00  0.00    +0.137 C 
BRANCH   9   8
ATOM      1  C   UNL     1      49.352  18.796  18.554  0.00  0.00    +0.027 A 
ATOM      2  C   UNL     1      50.576  18.182  18.362  0.00  0.00    -0.013 A 
ATOM      3  C   UNL     1      51.743  18.927  18.442  0.00  0.00    +0.107 A 
ATOM      6  C   UNL     1      51.679  20.286  18.715  0.00  0.00    -0.018 A 
ATOM      7  C   UNL     1      50.454  20.893  18.907  0.00  0.00    +0.053 A 
ATOM      8  C   UNL     1      49.292  20.149  18.827  0.00  0.00    -0.099 A 
BRANCH   3   4
ATOM      4  O   UNL     1      52.948  18.326  18.254  0.00  0.00    -0.501 OA
ATOM      5  H   UNL     1      53.602  18.534  18.936  0.00  0.00    +0.391 HD
ENDBRANCH   3   4
ENDBRANCH   9   8
ENDBRANCH  10   9
TORSDOF 6
ENDMDL
MODEL 9
REMARK VINA RESULT:      -5.1     21.456     23.133
REMARK  Name = ZINC14758411
REMARK  6 active torsions:
REMARK  status: ('A' for Active; 'I' for Inactive)
REMARK    1  A    between atoms: C3_3  and  O6_22
REMARK    2  A    between atoms: C6_6  and  C7_7
REMARK    3  A    between atoms: C7_7  and  C8_8
REMARK    4  A    between atoms: C8_8  and  O5_21
REMARK    5  A    between atoms: C12_13  and  O4_20
REMARK    6  A    between atoms: C14_15  and  O3_19
REMARK                            x       y       z     vdW  Elec       q    Type
REMARK                         _______ _______ _______ _____ _____    ______ ____
ROOT
ATOM     10  C   UNL     1      43.162  33.345   1.905  0.00  0.00    +0.070 C 
ATOM     13  C   UNL     1      41.975  32.816   2.723  0.00  0.00    +0.253 C 
ATOM     14  O   UNL     1      40.833  33.637   2.484  0.00  0.00    -0.294 OA
ATOM     15  C   UNL     1      40.453  33.865   1.205  0.00  0.00    +0.206 A 
ATOM     16  C   UNL     1      39.149  34.236   0.926  0.00  0.00    -0.049 A 
ATOM     17  C   UNL     1      38.755  34.478  -0.384  0.00  0.00    +0.199 A 
ATOM     20  C   UNL     1      39.661  34.353  -1.430  0.00  0.00    -0.072 A 
ATOM     21  C   UNL     1      40.969  33.982  -1.175  0.00  0.00    +0.222 A 
ATOM     24  C   UNL     1      41.372  33.730   0.147  0.00  0.00    -0.292 A 
ATOM     25  C   UNL     1      42.748  33.320   0.445  0.00  0.00    +0.378 C 
ATOM     26  O   UNL     1      43.516  32.978  -0.431  0.00  0.00    -0.407 OA
ENDROOT
BRANCH  10  11
ATOM     11  O   UNL     1      44.303  32.507   2.103  0.00  0.00    -0.519 OA
ATOM     12  H   UNL     1      44.677  32.557   2.994  0.00  0.00    +0.383 HD
ENDBRANCH  10  11
BRANCH  17  18
ATOM     18  O   UNL     1      37.474  34.840  -0.643  0.00  0.00    -0.489 OA
ATOM     19  H   UNL     1      37.295  35.780  -0.502  0.00  0.00    +0.403 HD
ENDBRANCH  17  18
BRANCH  21  22
ATOM     22  O   UNL     1      41.857  33.862  -2.193  0.00  0.00    -0.477 OA
ATOM     23  H   UNL     1      42.073  32.947  -2.421  0.00  0.00    +0.403 HD
ENDBRANCH  21  22
BRANCH  10   9
ATOM      9  C   UNL     1      43.490  34.778   2.329  0.00  0.00    +0.137 C 
BRANCH   9   8
ATOM      1  C   UNL     1      45.731  35.144   1.277  0.00  0.00    +0.027 A 
ATOM      2  C   UNL     1      47.102  35.297   1.362  0.00  0.00    -0.013 A 
ATOM      3  C   UNL     1      47.728  35.252   2.599  0.00  0.00    +0.107 A 
ATOM      6  C   UNL     1      46.977  35.053   3.748  0.00  0.00    -0.018 A 
ATOM      7  C   UNL     1      45.607  34.900   3.657  0.00  0.00    +0.053 A 
ATOM      8  C   UNL     1      44.985  34.945   2.424  0.00  0.00    -0.099 A 
BRANCH   3   4
ATOM      4  O   UNL     1      49.076  35.401   2.684  0.00  0.00    -0.501 OA
ATOM      5  H   UNL     1      49.528  35.397   1.828  0.00  0.00    +0.391 HD
ENDBRANCH   3   4
ENDBRANCH   9   8
ENDBRANCH  10   9
TORSDOF 6
ENDMDL
