MODEL 1
REMARK VINA RESULT:      -5.9      0.000      0.000
REMARK  Name = ZINC95486142
REMARK  18 active torsions:
REMARK  status: ('A' for Active; 'I' for Inactive)
REMARK    1  A    between atoms: C1_1  and  C2_2
REMARK    2  A    between atoms: C8_8  and  C35_43
REMARK    3  A    between atoms: C10_10  and  C12_13
REMARK    4  A    between atoms: C11_11  and  O1_12
REMARK    5  A    between atoms: C14_15  and  C24_27
REMARK    6  A    between atoms: C17_18  and  C23_26
REMARK    7  A    between atoms: C19_20  and  O3_24
REMARK    8  A    between atoms: C21_22  and  O2_23
REMARK    9  A    between atoms: O3_24  and  C22_25
REMARK   10  A    between atoms: C25_28  and  O5_42
REMARK   11  A    between atoms: C27_30  and  O4_41
REMARK   12  A    between atoms: C31_34  and  C34_40
REMARK   13  A    between atoms: C32_37  and  C33_39
REMARK   14  A    between atoms: C36_44  and  O7_58
REMARK   15  A    between atoms: C40_48  and  O6_49
REMARK   16  A    between atoms: O6_49  and  C41_50
REMARK   17  A    between atoms: C42_51  and  C46_57
REMARK   18  A    between atoms: C43_53  and  C45_56
REMARK                            x       y       z     vdW  Elec       q    Type
REMARK                         _______ _______ _______ _____ _____    ______ ____
ROOT
ATOM     26  C   UNL     1      50.715  15.305  19.220  0.00  0.00    -0.079 A 
ATOM     27  C   UNL     1      51.650  14.584  19.974  0.00  0.00    +0.076 A 
ATOM     28  C   UNL     1      52.261  13.462  19.450  0.00  0.00    -0.074 A 
ATOM     47  C   UNL     1      51.940  13.034  18.138  0.00  0.00    +0.028 A 
ATOM     48  C   UNL     1      52.546  11.897  17.583  0.00  0.00    -0.041 A 
ATOM     49  C   UNL     1      52.222  11.502  16.319  0.00  0.00    -0.018 A 
ATOM     50  C   UNL     1      52.880  10.279  15.733  0.00  0.00    +0.095 C 
ATOM     51  C   UNL     1      51.295  12.211  15.561  0.00  0.00    -0.096 A 
ATOM     52  C   UNL     1      50.679  13.332  16.072  0.00  0.00    +0.168 A 
ATOM     55  C   UNL     1      50.995  13.762  17.376  0.00  0.00    -0.101 A 
ATOM     56  C   UNL     1      50.382  14.900  17.932  0.00  0.00    +0.182 A 
ENDROOT
BRANCH  28  29
ATOM     29  C   UNL     1      53.248  12.709  20.257  0.00  0.00    -0.057 A 
ATOM     30  C   UNL     1      52.849  11.570  20.964  0.00  0.00    +0.172 A 
ATOM     33  C   UNL     1      53.776  10.871  21.717  0.00  0.00    -0.017 A 
ATOM     34  C   UNL     1      55.092  11.302  21.766  0.00  0.00    +0.161 A 
ATOM     37  C   UNL     1      55.494  12.436  21.062  0.00  0.00    -0.165 A 
ATOM     38  C   UNL     1      56.935  12.864  21.154  0.00  0.00    +0.240 C 
ATOM     39  C   UNL     1      57.833  11.626  21.093  0.00  0.00    +0.093 C 
ATOM     40  N   UNL     1      57.280  13.752  20.035  0.00  0.00    -0.504 N 
ATOM     41  H   UNL     1      58.216  14.106  20.164  0.00  0.00    +0.432 HD
ATOM     42  H   UNL     1      57.225  13.247  19.163  0.00  0.00    +0.429 HD
ATOM     43  C   UNL     1      56.328  14.873  20.015  0.00  0.00    +0.179 C 
ATOM     44  C   UNL     1      56.172  15.446  21.424  0.00  0.00    +0.089 C 
ATOM     45  C   UNL     1      54.976  14.355  19.520  0.00  0.00    +0.133 C 
ATOM     46  C   UNL     1      54.579  13.132  20.306  0.00  0.00    -0.037 A 
BRANCH  30  31
ATOM     31  O   UNL     1      51.556  11.154  20.915  0.00  0.00    -0.480 OA
ATOM     32  H   UNL     1      51.257  10.906  20.029  0.00  0.00    +0.402 HD
ENDBRANCH  30  31
BRANCH  34  35
ATOM     35  O   UNL     1      55.999  10.612  22.505  0.00  0.00    -0.490 OA
ATOM     36  H   UNL     1      56.816  10.404  22.033  0.00  0.00    +0.402 HD
ENDBRANCH  34  35
ENDBRANCH  28  29
BRANCH  26  25
ATOM      1  C   UNL     1      48.346  22.221  22.333  0.00  0.00    +0.093 C 
ATOM      2  C   UNL     1      48.997  20.999  21.739  0.00  0.00    -0.066 A 
ATOM      3  C   UNL     1      50.367  21.005  21.485  0.00  0.00    +0.013 A 
ATOM      4  C   UNL     1      50.984  19.917  20.949  0.00  0.00    +0.041 A 
ATOM      5  C   UNL     1      50.231  18.768  20.645  0.00  0.00    -0.079 A 
ATOM      6  C   UNL     1      48.839  18.763  20.904  0.00  0.00    -0.007 A 
ATOM      7  C   UNL     1      48.075  17.610  20.600  0.00  0.00    -0.026 A 
ATOM     24  C   UNL     1      48.695  16.501  20.057  0.00  0.00    +0.053 A 
ATOM     25  C   UNL     1      50.072  16.506  19.802  0.00  0.00    -0.079 A 
ATOM     59  C   UNL     1      50.840  17.626  20.091  0.00  0.00    +0.160 A 
ATOM     62  C   UNL     1      48.238  19.901  21.461  0.00  0.00    +0.010 A 
BRANCH   7   8
ATOM      8  C   UNL     1      46.619  17.591  20.866  0.00  0.00    -0.108 A 
ATOM      9  C   UNL     1      46.092  16.714  21.822  0.00  0.00    +0.153 A 
ATOM     12  C   UNL     1      44.726  16.693  22.075  0.00  0.00    -0.009 A 
ATOM     13  C   UNL     1      43.883  17.533  21.388  0.00  0.00    -0.029 A 
ATOM     14  C   UNL     1      44.394  18.416  20.428  0.00  0.00    -0.136 A 
ATOM     15  C   UNL     1      43.459  19.299  19.713  0.00  0.00    +0.219 C 
ATOM     16  C   UNL     1      43.868  19.939  18.410  0.00  0.00    +0.136 C 
ATOM     17  N   UNL     1      42.285  19.525  20.205  0.00  0.00    -0.507 NA
ATOM     18  C   UNL     1      41.848  18.943  21.470  0.00  0.00    +0.150 C 
ATOM     19  C   UNL     1      40.319  18.892  21.495  0.00  0.00    +0.057 C 
ATOM     20  C   UNL     1      42.398  17.530  21.647  0.00  0.00    +0.075 C 
ATOM     21  C   UNL     1      45.767  18.452  20.168  0.00  0.00    +0.168 A 
BRANCH   9  10
ATOM     10  O   UNL     1      46.919  15.882  22.504  0.00  0.00    -0.485 OA
ATOM     11  H   UNL     1      46.653  14.953  22.474  0.00  0.00    +0.390 HD
ENDBRANCH   9  10
BRANCH  21  22
ATOM     22  O   UNL     1      46.267  19.308  19.244  0.00  0.00    -0.323 OA
ATOM     23  C   UNL     1      46.785  18.735  18.041  0.00  0.00    +0.234 C 
ENDBRANCH  21  22
ENDBRANCH   7   8
BRANCH  59  60
ATOM     60  O   UNL     1      52.175  17.621  19.840  0.00  0.00    -0.490 OA
ATOM     61  H   UNL     1      52.424  18.087  19.030  0.00  0.00    +0.397 HD
ENDBRANCH  59  60
ENDBRANCH  26  25
BRANCH  52  53
ATOM     53  O   UNL     1      49.775  14.016  15.325  0.00  0.00    -0.293 OA
ATOM     54  C   UNL     1      48.644  13.286  14.847  0.00  0.00    +0.247 C 
ENDBRANCH  52  53
BRANCH  56  57
ATOM     57  O   UNL     1      49.470  15.603  17.213  0.00  0.00    -0.480 OA
ATOM     58  H   UNL     1      48.555  15.327  17.360  0.00  0.00    +0.400 HD
ENDBRANCH  56  57
TORSDOF 10
ENDMDL
MODEL 2
REMARK VINA RESULT:      -4.8      1.141      2.010
REMARK  Name = ZINC95486142
REMARK  18 active torsions:
REMARK  status: ('A' for Active; 'I' for Inactive)
REMARK    1  A    between atoms: C1_1  and  C2_2
REMARK    2  A    between atoms: C8_8  and  C35_43
REMARK    3  A    between atoms: C10_10  and  C12_13
REMARK    4  A    between atoms: C11_11  and  O1_12
REMARK    5  A    between atoms: C14_15  and  C24_27
REMARK    6  A    between atoms: C17_18  and  C23_26
REMARK    7  A    between atoms: C19_20  and  O3_24
REMARK    8  A    between atoms: C21_22  and  O2_23
REMARK    9  A    between atoms: O3_24  and  C22_25
REMARK   10  A    between atoms: C25_28  and  O5_42
REMARK   11  A    between atoms: C27_30  and  O4_41
REMARK   12  A    between atoms: C31_34  and  C34_40
REMARK   13  A    between atoms: C32_37  and  C33_39
REMARK   14  A    between atoms: C36_44  and  O7_58
REMARK   15  A    between atoms: C40_48  and  O6_49
REMARK   16  A    between atoms: O6_49  and  C41_50
REMARK   17  A    between atoms: C42_51  and  C46_57
REMARK   18  A    between atoms: C43_53  and  C45_56
REMARK                            x       y       z     vdW  Elec       q    Type
REMARK                         _______ _______ _______ _____ _____    ______ ____
ROOT
ATOM     26  C   UNL     1      50.531  15.954  19.479  0.00  0.00    -0.079 A 
ATOM     27  C   UNL     1      51.516  15.231  20.165  0.00  0.00    +0.076 A 
ATOM     28  C   UNL     1      51.907  13.983  19.725  0.00  0.00    -0.074 A 
ATOM     47  C   UNL     1      51.307  13.425  18.569  0.00  0.00    +0.028 A 
ATOM     48  C   UNL     1      51.685  12.158  18.101  0.00  0.00    -0.041 A 
ATOM     49  C   UNL     1      51.095  11.639  16.987  0.00  0.00    -0.018 A 
ATOM     50  C   UNL     1      51.510  10.277  16.493  0.00  0.00    +0.095 C 
ATOM     51  C   UNL     1      50.115  12.348  16.298  0.00  0.00    -0.096 A 
ATOM     52  C   UNL     1      49.717  13.595  16.727  0.00  0.00    +0.168 A 
ATOM     55  C   UNL     1      50.311  14.155  17.876  0.00  0.00    -0.101 A 
ATOM     56  C   UNL     1      49.925  15.423  18.346  0.00  0.00    +0.182 A 
ENDROOT
BRANCH  28  29
ATOM     29  C   UNL     1      52.949  13.229  20.458  0.00  0.00    -0.057 A 
ATOM     30  C   UNL     1      52.582  12.212  21.345  0.00  0.00    +0.172 A 
ATOM     33  C   UNL     1      53.561  11.512  22.028  0.00  0.00    -0.017 A 
ATOM     34  C   UNL     1      54.897  11.821  21.829  0.00  0.00    +0.161 A 
ATOM     37  C   UNL     1      55.267  12.834  20.946  0.00  0.00    -0.165 A 
ATOM     38  C   UNL     1      56.732  13.133  20.771  0.00  0.00    +0.240 C 
ATOM     39  C   UNL     1      57.513  11.818  20.722  0.00  0.00    +0.093 C 
ATOM     40  N   UNL     1      56.962  13.865  19.517  0.00  0.00    -0.504 N 
ATOM     41  H   UNL     1      57.931  14.141  19.463  0.00  0.00    +0.432 HD
ATOM     42  H   UNL     1      56.732  13.278  18.729  0.00  0.00    +0.429 HD
ATOM     43  C   UNL     1      56.106  15.061  19.508  0.00  0.00    +0.179 C 
ATOM     44  C   UNL     1      56.220  15.790  20.848  0.00  0.00    +0.089 C 
ATOM     45  C   UNL     1      54.658  14.622  19.284  0.00  0.00    +0.133 C 
ATOM     46  C   UNL     1      54.299  13.529  20.258  0.00  0.00    -0.037 A 
BRANCH  30  31
ATOM     31  O   UNL     1      51.270  11.915  21.538  0.00  0.00    -0.480 OA
ATOM     32  H   UNL     1      50.661  12.578  21.185  0.00  0.00    +0.402 HD
ENDBRANCH  30  31
BRANCH  34  35
ATOM     35  O   UNL     1      55.855  11.131  22.501  0.00  0.00    -0.490 OA
ATOM     36  H   UNL     1      56.462  10.642  21.930  0.00  0.00    +0.402 HD
ENDBRANCH  34  35
ENDBRANCH  28  29
BRANCH  26  25
ATOM      1  C   UNL     1      49.473  23.224  22.505  0.00  0.00    +0.093 C 
ATOM      2  C   UNL     1      49.882  21.864  22.003  0.00  0.00    -0.066 A 
ATOM      3  C   UNL     1      51.188  21.421  22.202  0.00  0.00    +0.013 A 
ATOM      4  C   UNL     1      51.587  20.197  21.761  0.00  0.00    +0.041 A 
ATOM      5  C   UNL     1      50.671  19.365  21.093  0.00  0.00    -0.079 A 
ATOM      6  C   UNL     1      49.344  19.816  20.891  0.00  0.00    -0.007 A 
ATOM      7  C   UNL     1      48.417  18.982  20.219  0.00  0.00    -0.026 A 
ATOM     24  C   UNL     1      48.815  17.738  19.769  0.00  0.00    +0.053 A 
ATOM     25  C   UNL     1      50.127  17.292  19.969  0.00  0.00    -0.079 A 
ATOM     59  C   UNL     1      51.053  18.093  20.625  0.00  0.00    +0.160 A 
ATOM     62  C   UNL     1      48.968  21.081  21.364  0.00  0.00    +0.010 A 
BRANCH   7   8
ATOM      8  C   UNL     1      47.026  19.441  20.002  0.00  0.00    -0.108 A 
ATOM      9  C   UNL     1      46.760  20.460  19.080  0.00  0.00    +0.153 A 
ATOM     12  C   UNL     1      45.456  20.894  18.874  0.00  0.00    -0.009 A 
ATOM     13  C   UNL     1      44.419  20.325  19.573  0.00  0.00    -0.029 A 
ATOM     14  C   UNL     1      44.669  19.304  20.500  0.00  0.00    -0.136 A 
ATOM     15  C   UNL     1      43.532  18.720  21.229  0.00  0.00    +0.219 C 
ATOM     16  C   UNL     1      43.765  17.952  22.505  0.00  0.00    +0.136 C 
ATOM     17  N   UNL     1      42.332  18.867  20.773  0.00  0.00    -0.507 NA
ATOM     18  C   UNL     1      42.055  19.587  19.534  0.00  0.00    +0.150 C 
ATOM     19  C   UNL     1      40.611  20.093  19.560  0.00  0.00    +0.057 C 
ATOM     20  C   UNL     1      42.997  20.777  19.364  0.00  0.00    +0.075 C 
ATOM     21  C   UNL     1      45.975  18.854  20.713  0.00  0.00    +0.168 A 
BRANCH   9  10
ATOM     10  O   UNL     1      47.779  21.027  18.387  0.00  0.00    -0.485 OA
ATOM     11  H   UNL     1      48.621  21.035  18.861  0.00  0.00    +0.390 HD
ENDBRANCH   9  10
BRANCH  21  22
ATOM     22  O   UNL     1      46.221  17.863  21.604  0.00  0.00    -0.323 OA
ATOM     23  C   UNL     1      46.007  16.521  21.158  0.00  0.00    +0.234 C 
ENDBRANCH  21  22
ENDBRANCH   7   8
BRANCH  59  60
ATOM     60  O   UNL     1      52.324  17.652  20.814  0.00  0.00    -0.490 OA
ATOM     61  H   UNL     1      52.544  16.858  20.307  0.00  0.00    +0.397 HD
ENDBRANCH  59  60
ENDBRANCH  26  25
BRANCH  52  53
ATOM     53  O   UNL     1      48.760  14.279  16.048  0.00  0.00    -0.293 OA
ATOM     54  C   UNL     1      47.776  13.505  15.359  0.00  0.00    +0.247 C 
ENDBRANCH  52  53
BRANCH  56  57
ATOM     57  O   UNL     1      48.968  16.131  17.692  0.00  0.00    -0.480 OA
ATOM     58  H   UNL     1      48.164  15.626  17.506  0.00  0.00    +0.400 HD
ENDBRANCH  56  57
TORSDOF 10
ENDMDL
MODEL 3
REMARK VINA RESULT:      -4.5      2.574      5.759
REMARK  Name = ZINC95486142
REMARK  18 active torsions:
REMARK  status: ('A' for Active; 'I' for Inactive)
REMARK    1  A    between atoms: C1_1  and  C2_2
REMARK    2  A    between atoms: C8_8  and  C35_43
REMARK    3  A    between atoms: C10_10  and  C12_13
REMARK    4  A    between atoms: C11_11  and  O1_12
REMARK    5  A    between atoms: C14_15  and  C24_27
REMARK    6  A    between atoms: C17_18  and  C23_26
REMARK    7  A    between atoms: C19_20  and  O3_24
REMARK    8  A    between atoms: C21_22  and  O2_23
REMARK    9  A    between atoms: O3_24  and  C22_25
REMARK   10  A    between atoms: C25_28  and  O5_42
REMARK   11  A    between atoms: C27_30  and  O4_41
REMARK   12  A    between atoms: C31_34  and  C34_40
REMARK   13  A    between atoms: C32_37  and  C33_39
REMARK   14  A    between atoms: C36_44  and  O7_58
REMARK   15  A    between atoms: C40_48  and  O6_49
REMARK   16  A    between atoms: O6_49  and  C41_50
REMARK   17  A    between atoms: C42_51  and  C46_57
REMARK   18  A    between atoms: C43_53  and  C45_56
REMARK                            x       y       z     vdW  Elec       q    Type
REMARK                         _______ _______ _______ _____ _____    ______ ____
ROOT
ATOM     26  C   UNL     1      50.090  16.250  20.097  0.00  0.00    -0.079 A 
ATOM     27  C   UNL     1      50.255  15.568  18.884  0.00  0.00    +0.076 A 
ATOM     28  C   UNL     1      51.508  15.166  18.468  0.00  0.00    -0.074 A 
ATOM     47  C   UNL     1      52.640  15.445  19.274  0.00  0.00    +0.028 A 
ATOM     48  C   UNL     1      53.925  15.047  18.875  0.00  0.00    -0.041 A 
ATOM     49  C   UNL     1      55.000  15.326  19.664  0.00  0.00    -0.018 A 
ATOM     50  C   UNL     1      56.376  14.894  19.225  0.00  0.00    +0.095 C 
ATOM     51  C   UNL     1      54.848  16.003  20.871  0.00  0.00    -0.096 A 
ATOM     52  C   UNL     1      53.603  16.409  21.297  0.00  0.00    +0.168 A 
ATOM     55  C   UNL     1      52.474  16.134  20.499  0.00  0.00    -0.101 A 
ATOM     56  C   UNL     1      51.187  16.538  20.900  0.00  0.00    +0.182 A 
ENDROOT
BRANCH  28  29
ATOM     29  C   UNL     1      51.670  14.446  17.184  0.00  0.00    -0.057 A 
ATOM     30  C   UNL     1      51.935  15.160  16.012  0.00  0.00    +0.172 A 
ATOM     33  C   UNL     1      52.084  14.481  14.815  0.00  0.00    -0.017 A 
ATOM     34  C   UNL     1      51.970  13.101  14.785  0.00  0.00    +0.161 A 
ATOM     37  C   UNL     1      51.705  12.385  15.952  0.00  0.00    -0.165 A 
ATOM     38  C   UNL     1      51.585  10.887  15.863  0.00  0.00    +0.240 C 
ATOM     39  C   UNL     1      52.666  10.349  14.922  0.00  0.00    +0.093 C 
ATOM     40  N   UNL     1      51.769  10.277  17.188  0.00  0.00    -0.504 N 
ATOM     41  H   UNL     1      51.590   9.285  17.128  0.00  0.00    +0.432 HD
ATOM     42  H   UNL     1      52.711  10.432  17.512  0.00  0.00    +0.429 HD
ATOM     43  C   UNL     1      50.817  10.894  18.125  0.00  0.00    +0.179 C 
ATOM     44  C   UNL     1      49.425  10.943  17.493  0.00  0.00    +0.089 C 
ATOM     45  C   UNL     1      51.291  12.315  18.433  0.00  0.00    +0.133 C 
ATOM     46  C   UNL     1      51.563  13.053  17.147  0.00  0.00    -0.037 A 
BRANCH  30  31
ATOM     31  O   UNL     1      52.044  16.514  16.046  0.00  0.00    -0.480 OA
ATOM     32  H   UNL     1      51.602  16.962  15.311  0.00  0.00    +0.402 HD
ENDBRANCH  30  31
BRANCH  34  35
ATOM     35  O   UNL     1      52.118  12.438  13.608  0.00  0.00    -0.490 OA
ATOM     36  H   UNL     1      52.039  13.001  12.827  0.00  0.00    +0.402 HD
ENDBRANCH  34  35
ENDBRANCH  28  29
BRANCH  26  25
ATOM      1  C   UNL     1      42.600  17.364  22.504  0.00  0.00    +0.093 C 
ATOM      2  C   UNL     1      43.980  16.937  22.073  0.00  0.00    -0.066 A 
ATOM      3  C   UNL     1      44.299  15.581  22.035  0.00  0.00    +0.013 A 
ATOM      4  C   UNL     1      45.536  15.165  21.650  0.00  0.00    +0.041 A 
ATOM      5  C   UNL     1      46.508  16.113  21.284  0.00  0.00    -0.079 A 
ATOM      6  C   UNL     1      46.182  17.491  21.322  0.00  0.00    -0.007 A 
ATOM      7  C   UNL     1      47.156  18.451  20.955  0.00  0.00    -0.026 A 
ATOM     24  C   UNL     1      48.414  18.035  20.562  0.00  0.00    +0.053 A 
ATOM     25  C   UNL     1      48.736  16.672  20.523  0.00  0.00    -0.079 A 
ATOM     59  C   UNL     1      47.796  15.713  20.879  0.00  0.00    +0.160 A 
ATOM     62  C   UNL     1      44.896  17.882  21.721  0.00  0.00    +0.010 A 
BRANCH   7   8
ATOM      8  C   UNL     1      46.828  19.894  20.990  0.00  0.00    -0.108 A 
ATOM      9  C   UNL     1      47.611  20.772  21.749  0.00  0.00    +0.153 A 
ATOM     12  C   UNL     1      47.306  22.128  21.785  0.00  0.00    -0.009 A 
ATOM     13  C   UNL     1      46.235  22.615  21.075  0.00  0.00    -0.029 A 
ATOM     14  C   UNL     1      45.442  21.749  20.311  0.00  0.00    -0.136 A 
ATOM     15  C   UNL     1      44.303  22.308  19.566  0.00  0.00    +0.219 C 
ATOM     16  C   UNL     1      43.192  21.406  19.092  0.00  0.00    +0.136 C 
ATOM     17  N   UNL     1      44.258  23.576  19.318  0.00  0.00    -0.507 NA
ATOM     18  C   UNL     1      45.316  24.488  19.741  0.00  0.00    +0.150 C 
ATOM     19  C   UNL     1      44.745  25.904  19.843  0.00  0.00    +0.057 C 
ATOM     20  C   UNL     1      45.888  24.081  21.098  0.00  0.00    +0.075 C 
ATOM     21  C   UNL     1      45.740  20.384  20.262  0.00  0.00    +0.168 A 
BRANCH   9  10
ATOM     10  O   UNL     1      48.670  20.298  22.453  0.00  0.00    -0.485 OA
ATOM     11  H   UNL     1      49.514  20.705  22.215  0.00  0.00    +0.390 HD
ENDBRANCH   9  10
BRANCH  21  22
ATOM     22  O   UNL     1      44.979  19.543  19.519  0.00  0.00    -0.323 OA
ATOM     23  C   UNL     1      45.380  19.332  18.163  0.00  0.00    +0.234 C 
ENDBRANCH  21  22
ENDBRANCH   7   8
BRANCH  59  60
ATOM     60  O   UNL     1      48.118  14.395  20.839  0.00  0.00    -0.490 OA
ATOM     61  H   UNL     1      47.426  13.832  20.465  0.00  0.00    +0.397 HD
ENDBRANCH  59  60
ENDBRANCH  26  25
BRANCH  52  53
ATOM     53  O   UNL     1      53.464  17.069  22.476  0.00  0.00    -0.293 OA
ATOM     54  C   UNL     1      53.834  18.449  22.492  0.00  0.00    +0.247 C 
ENDBRANCH  52  53
BRANCH  56  57
ATOM     57  O   UNL     1      51.016  17.204  22.071  0.00  0.00    -0.480 OA
ATOM     58  H   UNL     1      51.446  16.784  22.829  0.00  0.00    +0.400 HD
ENDBRANCH  56  57
TORSDOF 10
ENDMDL
MODEL 4
REMARK VINA RESULT:      -4.2      2.348      5.586
REMARK  Name = ZINC95486142
REMARK  18 active torsions:
REMARK  status: ('A' for Active; 'I' for Inactive)
REMARK    1  A    between atoms: C1_1  and  C2_2
REMARK    2  A    between atoms: C8_8  and  C35_43
REMARK    3  A    between atoms: C10_10  and  C12_13
REMARK    4  A    between atoms: C11_11  and  O1_12
REMARK    5  A    between atoms: C14_15  and  C24_27
REMARK    6  A    between atoms: C17_18  and  C23_26
REMARK    7  A    between atoms: C19_20  and  O3_24
REMARK    8  A    between atoms: C21_22  and  O2_23
REMARK    9  A    between atoms: O3_24  and  C22_25
REMARK   10  A    between atoms: C25_28  and  O5_42
REMARK   11  A    between atoms: C27_30  and  O4_41
REMARK   12  A    between atoms: C31_34  and  C34_40
REMARK   13  A    between atoms: C32_37  and  C33_39
REMARK   14  A    between atoms: C36_44  and  O7_58
REMARK   15  A    between atoms: C40_48  and  O6_49
REMARK   16  A    between atoms: O6_49  and  C41_50
REMARK   17  A    between atoms: C42_51  and  C46_57
REMARK   18  A    between atoms: C43_53  and  C45_56
REMARK                            x       y       z     vdW  Elec       q    Type
REMARK                         _______ _______ _______ _____ _____    ______ ____
ROOT
ATOM     26  C   UNL     1      51.140  15.973  19.196  0.00  0.00    -0.079 A 
ATOM     27  C   UNL     1      50.374  15.377  18.184  0.00  0.00    +0.076 A 
ATOM     28  C   UNL     1      50.731  14.151  17.662  0.00  0.00    -0.074 A 
ATOM     47  C   UNL     1      51.883  13.486  18.151  0.00  0.00    +0.028 A 
ATOM     48  C   UNL     1      52.268  12.239  17.638  0.00  0.00    -0.041 A 
ATOM     49  C   UNL     1      53.380  11.617  18.122  0.00  0.00    -0.018 A 
ATOM     50  C   UNL     1      53.784  10.277  17.563  0.00  0.00    +0.095 C 
ATOM     51  C   UNL     1      54.148  12.199  19.127  0.00  0.00    -0.096 A 
ATOM     52  C   UNL     1      53.802  13.423  19.656  0.00  0.00    +0.168 A 
ATOM     55  C   UNL     1      52.657  14.088  19.173  0.00  0.00    -0.101 A 
ATOM     56  C   UNL     1      52.276  15.341  19.687  0.00  0.00    +0.182 A 
ENDROOT
BRANCH  28  29
ATOM     29  C   UNL     1      49.913  13.531  16.594  0.00  0.00    -0.057 A 
ATOM     30  C   UNL     1      50.370  13.538  15.273  0.00  0.00    +0.172 A 
ATOM     33  C   UNL     1      49.601  12.958  14.280  0.00  0.00    -0.017 A 
ATOM     34  C   UNL     1      48.385  12.375  14.599  0.00  0.00    +0.161 A 
ATOM     37  C   UNL     1      47.926  12.366  15.915  0.00  0.00    -0.165 A 
ATOM     38  C   UNL     1      46.596  11.725  16.207  0.00  0.00    +0.240 C 
ATOM     39  C   UNL     1      46.470  10.433  15.395  0.00  0.00    +0.093 C 
ATOM     40  N   UNL     1      46.485  11.396  17.635  0.00  0.00    -0.504 N 
ATOM     41  H   UNL     1      45.555  11.058  17.831  0.00  0.00    +0.432 HD
ATOM     42  H   UNL     1      47.162  10.689  17.880  0.00  0.00    +0.429 HD
ATOM     43  C   UNL     1      46.742  12.615  18.418  0.00  0.00    +0.179 C 
ATOM     44  C   UNL     1      45.940  13.781  17.840  0.00  0.00    +0.089 C 
ATOM     45  C   UNL     1      48.236  12.934  18.346  0.00  0.00    +0.133 C 
ATOM     46  C   UNL     1      48.689  12.935  16.909  0.00  0.00    -0.037 A 
BRANCH  30  31
ATOM     31  O   UNL     1      51.562  14.113  14.965  0.00  0.00    -0.480 OA
ATOM     32  H   UNL     1      51.538  15.079  14.940  0.00  0.00    +0.402 HD
ENDBRANCH  30  31
BRANCH  34  35
ATOM     35  O   UNL     1      47.634  11.806  13.620  0.00  0.00    -0.490 OA
ATOM     36  H   UNL     1      46.697  11.723  13.841  0.00  0.00    +0.402 HD
ENDBRANCH  34  35
ENDBRANCH  28  29
BRANCH  26  25
ATOM      1  C   UNL     1      50.096  23.121  22.505  0.00  0.00    +0.093 C 
ATOM      2  C   UNL     1      50.503  21.782  21.947  0.00  0.00    -0.066 A 
ATOM      3  C   UNL     1      51.813  21.337  22.114  0.00  0.00    +0.013 A 
ATOM      4  C   UNL     1      52.211  20.132  21.622  0.00  0.00    +0.041 A 
ATOM      5  C   UNL     1      51.289  19.322  20.935  0.00  0.00    -0.079 A 
ATOM      6  C   UNL     1      49.958  19.775  20.766  0.00  0.00    -0.007 A 
ATOM      7  C   UNL     1      49.025  18.963  20.075  0.00  0.00    -0.026 A 
ATOM     24  C   UNL     1      49.422  17.738  19.573  0.00  0.00    +0.053 A 
ATOM     25  C   UNL     1      50.738  17.291  19.741  0.00  0.00    -0.079 A 
ATOM     59  C   UNL     1      51.670  18.070  20.415  0.00  0.00    +0.160 A 
ATOM     62  C   UNL     1      49.583  21.020  21.291  0.00  0.00    +0.010 A 
BRANCH   7   8
ATOM      8  C   UNL     1      47.630  19.425  19.892  0.00  0.00    -0.108 A 
ATOM      9  C   UNL     1      47.342  20.434  18.966  0.00  0.00    +0.153 A 
ATOM     12  C   UNL     1      46.033  20.870  18.791  0.00  0.00    -0.009 A 
ATOM     13  C   UNL     1      45.015  20.313  19.527  0.00  0.00    -0.029 A 
ATOM     14  C   UNL     1      45.288  19.303  20.458  0.00  0.00    -0.136 A 
ATOM     15  C   UNL     1      44.170  18.732  21.227  0.00  0.00    +0.219 C 
ATOM     16  C   UNL     1      44.438  17.979  22.505  0.00  0.00    +0.136 C 
ATOM     17  N   UNL     1      42.958  18.878  20.803  0.00  0.00    -0.507 NA
ATOM     18  C   UNL     1      42.648  19.584  19.564  0.00  0.00    +0.150 C 
ATOM     19  C   UNL     1      41.207  20.095  19.625  0.00  0.00    +0.057 C 
ATOM     20  C   UNL     1      43.590  20.769  19.353  0.00  0.00    +0.075 C 
ATOM     21  C   UNL     1      46.598  18.851  20.640  0.00  0.00    +0.168 A 
BRANCH   9  10
ATOM     10  O   UNL     1      48.342  20.988  18.236  0.00  0.00    -0.485 OA
ATOM     11  H   UNL     1      48.110  21.155  17.313  0.00  0.00    +0.390 HD
ENDBRANCH   9  10
BRANCH  21  22
ATOM     22  O   UNL     1      46.866  17.869  21.536  0.00  0.00    -0.323 OA
ATOM     23  C   UNL     1      47.045  16.548  21.018  0.00  0.00    +0.234 C 
ENDBRANCH  21  22
ENDBRANCH   7   8
BRANCH  59  60
ATOM     60  O   UNL     1      52.944  17.626  20.572  0.00  0.00    -0.490 OA
ATOM     61  H   UNL     1      53.392  17.416  19.741  0.00  0.00    +0.397 HD
ENDBRANCH  59  60
ENDBRANCH  26  25
BRANCH  52  53
ATOM     53  O   UNL     1      54.558  13.984  20.635  0.00  0.00    -0.293 OA
ATOM     54  C   UNL     1      55.858  14.447  20.264  0.00  0.00    +0.247 C 
ENDBRANCH  52  53
BRANCH  56  57
ATOM     57  O   UNL     1      53.014  15.930  20.663  0.00  0.00    -0.480 OA
ATOM     58  H   UNL     1      53.646  15.336  21.091  0.00  0.00    +0.400 HD
ENDBRANCH  56  57
TORSDOF 10
ENDMDL
MODEL 5
REMARK VINA RESULT:      -4.0      2.468      5.618
REMARK  Name = ZINC95486142
REMARK  18 active torsions:
REMARK  status: ('A' for Active; 'I' for Inactive)
REMARK    1  A    between atoms: C1_1  and  C2_2
REMARK    2  A    between atoms: C8_8  and  C35_43
REMARK    3  A    between atoms: C10_10  and  C12_13
REMARK    4  A    between atoms: C11_11  and  O1_12
REMARK    5  A    between atoms: C14_15  and  C24_27
REMARK    6  A    between atoms: C17_18  and  C23_26
REMARK    7  A    between atoms: C19_20  and  O3_24
REMARK    8  A    between atoms: C21_22  and  O2_23
REMARK    9  A    between atoms: O3_24  and  C22_25
REMARK   10  A    between atoms: C25_28  and  O5_42
REMARK   11  A    between atoms: C27_30  and  O4_41
REMARK   12  A    between atoms: C31_34  and  C34_40
REMARK   13  A    between atoms: C32_37  and  C33_39
REMARK   14  A    between atoms: C36_44  and  O7_58
REMARK   15  A    between atoms: C40_48  and  O6_49
REMARK   16  A    between atoms: O6_49  and  C41_50
REMARK   17  A    between atoms: C42_51  and  C46_57
REMARK   18  A    between atoms: C43_53  and  C45_56
REMARK                            x       y       z     vdW  Elec       q    Type
REMARK                         _______ _______ _______ _____ _____    ______ ____
ROOT
ATOM     26  C   UNL     1      50.256  15.558  20.385  0.00  0.00    -0.079 A 
ATOM     27  C   UNL     1      50.526  14.581  19.416  0.00  0.00    +0.076 A 
ATOM     28  C   UNL     1      51.823  14.189  19.156  0.00  0.00    -0.074 A 
ATOM     47  C   UNL     1      52.894  14.777  19.873  0.00  0.00    +0.028 A 
ATOM     48  C   UNL     1      54.221  14.396  19.628  0.00  0.00    -0.041 A 
ATOM     49  C   UNL     1      55.237  14.975  20.329  0.00  0.00    -0.018 A 
ATOM     50  C   UNL     1      56.659  14.557  20.057  0.00  0.00    +0.095 C 
ATOM     51  C   UNL     1      54.980  15.946  21.293  0.00  0.00    -0.096 A 
ATOM     52  C   UNL     1      53.690  16.346  21.562  0.00  0.00    +0.168 A 
ATOM     55  C   UNL     1      52.621  15.763  20.852  0.00  0.00    -0.101 A 
ATOM     56  C   UNL     1      51.292  16.152  21.097  0.00  0.00    +0.182 A 
ENDROOT
BRANCH  28  29
ATOM     29  C   UNL     1      52.095  13.155  18.130  0.00  0.00    -0.057 A 
ATOM     30  C   UNL     1      52.626  11.919  18.509  0.00  0.00    +0.172 A 
ATOM     33  C   UNL     1      52.878  10.958  17.546  0.00  0.00    -0.017 A 
ATOM     34  C   UNL     1      52.605  11.226  16.215  0.00  0.00    +0.161 A 
ATOM     37  C   UNL     1      52.076  12.458  15.833  0.00  0.00    -0.165 A 
ATOM     38  C   UNL     1      51.802  12.699  14.372  0.00  0.00    +0.240 C 
ATOM     39  C   UNL     1      51.194  11.436  13.757  0.00  0.00    +0.093 C 
ATOM     40  N   UNL     1      50.853  13.809  14.203  0.00  0.00    -0.504 N 
ATOM     41  H   UNL     1      50.756  14.021  13.222  0.00  0.00    +0.432 HD
ATOM     42  H   UNL     1      49.954  13.556  14.587  0.00  0.00    +0.429 HD
ATOM     43  C   UNL     1      51.377  14.987  14.912  0.00  0.00    +0.179 C 
ATOM     44  C   UNL     1      52.853  15.186  14.566  0.00  0.00    +0.089 C 
ATOM     45  C   UNL     1      51.230  14.754  16.417  0.00  0.00    +0.133 C 
ATOM     46  C   UNL     1      51.815  13.415  16.786  0.00  0.00    -0.037 A 
BRANCH  30  31
ATOM     31  O   UNL     1      52.895  11.662  19.816  0.00  0.00    -0.480 OA
ATOM     32  H   UNL     1      52.583  10.798  20.119  0.00  0.00    +0.402 HD
ENDBRANCH  30  31
BRANCH  34  35
ATOM     35  O   UNL     1      52.854  10.279  15.272  0.00  0.00    -0.490 OA
ATOM     36  H   UNL     1      53.437   9.569  15.572  0.00  0.00    +0.402 HD
ENDBRANCH  34  35
ENDBRANCH  28  29
BRANCH  26  25
ATOM      1  C   UNL     1      42.634  16.690  22.323  0.00  0.00    +0.093 C 
ATOM      2  C   UNL     1      44.059  16.280  22.057  0.00  0.00    -0.066 A 
ATOM      3  C   UNL     1      44.514  15.041  22.505  0.00  0.00    +0.013 A 
ATOM      4  C   UNL     1      45.795  14.642  22.280  0.00  0.00    +0.041 A 
ATOM      5  C   UNL     1      46.677  15.490  21.586  0.00  0.00    -0.079 A 
ATOM      6  C   UNL     1      46.214  16.749  21.131  0.00  0.00    -0.007 A 
ATOM      7  C   UNL     1      47.097  17.608  20.431  0.00  0.00    -0.026 A 
ATOM     24  C   UNL     1      48.399  17.209  20.198  0.00  0.00    +0.053 A 
ATOM     25  C   UNL     1      48.856  15.964  20.647  0.00  0.00    -0.079 A 
ATOM     59  C   UNL     1      48.008  15.106  21.336  0.00  0.00    +0.160 A 
ATOM     62  C   UNL     1      44.885  17.124  21.377  0.00  0.00    +0.010 A 
BRANCH   7   8
ATOM      8  C   UNL     1      46.625  18.926  19.949  0.00  0.00    -0.108 A 
ATOM      9  C   UNL     1      46.088  19.051  18.663  0.00  0.00    +0.153 A 
ATOM     12  C   UNL     1      45.645  20.286  18.206  0.00  0.00    -0.009 A 
ATOM     13  C   UNL     1      45.731  21.394  19.015  0.00  0.00    -0.029 A 
ATOM     14  C   UNL     1      46.266  21.286  20.305  0.00  0.00    -0.136 A 
ATOM     15  C   UNL     1      46.342  22.494  21.141  0.00  0.00    +0.219 C 
ATOM     16  C   UNL     1      47.270  22.536  22.329  0.00  0.00    +0.136 C 
ATOM     17  N   UNL     1      45.611  23.521  20.854  0.00  0.00    -0.507 NA
ATOM     18  C   UNL     1      44.686  23.524  19.725  0.00  0.00    +0.150 C 
ATOM     19  C   UNL     1      44.428  24.969  19.293  0.00  0.00    +0.057 C 
ATOM     20  C   UNL     1      45.254  22.743  18.542  0.00  0.00    +0.075 C 
ATOM     21  C   UNL     1      46.711  20.048  20.779  0.00  0.00    +0.168 A 
BRANCH   9  10
ATOM     10  O   UNL     1      46.001  17.962  17.858  0.00  0.00    -0.485 OA
ATOM     11  H   UNL     1      46.695  17.306  18.007  0.00  0.00    +0.390 HD
ENDBRANCH   9  10
BRANCH  21  22
ATOM     22  O   UNL     1      47.225  19.937  22.029  0.00  0.00    -0.323 OA
ATOM     23  C   UNL     1      48.648  19.850  22.140  0.00  0.00    +0.234 C 
ENDBRANCH  21  22
ENDBRANCH   7   8
BRANCH  59  60
ATOM     60  O   UNL     1      48.461  13.901  21.768  0.00  0.00    -0.490 OA
ATOM     61  H   UNL     1      48.288  13.173  21.155  0.00  0.00    +0.397 HD
ENDBRANCH  59  60
ENDBRANCH  26  25
BRANCH  52  53
ATOM     53  O   UNL     1      53.450  17.294  22.504  0.00  0.00    -0.293 OA
ATOM     54  C   UNL     1      53.564  18.658  22.094  0.00  0.00    +0.247 C 
ENDBRANCH  52  53
BRANCH  56  57
ATOM     57  O   UNL     1      51.019  17.100  22.029  0.00  0.00    -0.480 OA
ATOM     58  H   UNL     1      51.736  17.248  22.662  0.00  0.00    +0.400 HD
ENDBRANCH  56  57
TORSDOF 10
ENDMDL
MODEL 6
REMARK VINA RESULT:      -3.6      1.927      5.023
REMARK  Name = ZINC95486142
REMARK  18 active torsions:
REMARK  status: ('A' for Active; 'I' for Inactive)
REMARK    1  A    between atoms: C1_1  and  C2_2
REMARK    2  A    between atoms: C8_8  and  C35_43
REMARK    3  A    between atoms: C10_10  and  C12_13
REMARK    4  A    between atoms: C11_11  and  O1_12
REMARK    5  A    between atoms: C14_15  and  C24_27
REMARK    6  A    between atoms: C17_18  and  C23_26
REMARK    7  A    between atoms: C19_20  and  O3_24
REMARK    8  A    between atoms: C21_22  and  O2_23
REMARK    9  A    between atoms: O3_24  and  C22_25
REMARK   10  A    between atoms: C25_28  and  O5_42
REMARK   11  A    between atoms: C27_30  and  O4_41
REMARK   12  A    between atoms: C31_34  and  C34_40
REMARK   13  A    between atoms: C32_37  and  C33_39
REMARK   14  A    between atoms: C36_44  and  O7_58
REMARK   15  A    between atoms: C40_48  and  O6_49
REMARK   16  A    between atoms: O6_49  and  C41_50
REMARK   17  A    between atoms: C42_51  and  C46_57
REMARK   18  A    between atoms: C43_53  and  C45_56
REMARK                            x       y       z     vdW  Elec       q    Type
REMARK                         _______ _______ _______ _____ _____    ______ ____
ROOT
ATOM     26  C   UNL     1      50.084  15.574  19.002  0.00  0.00    -0.079 A 
ATOM     27  C   UNL     1      49.592  15.163  17.756  0.00  0.00    +0.076 A 
ATOM     28  C   UNL     1      50.115  14.052  17.126  0.00  0.00    -0.074 A 
ATOM     47  C   UNL     1      51.159  13.319  17.742  0.00  0.00    +0.028 A 
ATOM     48  C   UNL     1      51.708  12.187  17.123  0.00  0.00    -0.041 A 
ATOM     49  C   UNL     1      52.713  11.496  17.734  0.00  0.00    -0.018 A 
ATOM     50  C   UNL     1      53.295  10.281  17.059  0.00  0.00    +0.095 C 
ATOM     51  C   UNL     1      53.209  11.896  18.971  0.00  0.00    -0.096 A 
ATOM     52  C   UNL     1      52.695  13.003  19.610  0.00  0.00    +0.168 A 
ATOM     55  C   UNL     1      51.656  13.735  19.001  0.00  0.00    -0.101 A 
ATOM     56  C   UNL     1      51.111  14.873  19.623  0.00  0.00    +0.182 A 
ENDROOT
BRANCH  28  29
ATOM     29  C   UNL     1      49.586  13.627  15.809  0.00  0.00    -0.057 A 
ATOM     30  C   UNL     1      48.233  13.303  15.672  0.00  0.00    +0.172 A 
ATOM     33  C   UNL     1      47.745  12.906  14.440  0.00  0.00    -0.017 A 
ATOM     34  C   UNL     1      48.599  12.830  13.351  0.00  0.00    +0.161 A 
ATOM     37  C   UNL     1      49.949  13.152  13.483  0.00  0.00    -0.165 A 
ATOM     38  C   UNL     1      50.834  13.048  12.270  0.00  0.00    +0.240 C 
ATOM     39  C   UNL     1      50.084  13.591  11.051  0.00  0.00    +0.093 C 
ATOM     40  N   UNL     1      52.060  13.837  12.458  0.00  0.00    -0.504 N 
ATOM     41  H   UNL     1      52.683  13.679  11.681  0.00  0.00    +0.432 HD
ATOM     42  H   UNL     1      51.833  14.818  12.518  0.00  0.00    +0.429 HD
ATOM     43  C   UNL     1      52.709  13.404  13.705  0.00  0.00    +0.179 C 
ATOM     44  C   UNL     1      52.769  11.877  13.756  0.00  0.00    +0.089 C 
ATOM     45  C   UNL     1      51.889  13.925  14.887  0.00  0.00    +0.133 C 
ATOM     46  C   UNL     1      50.439  13.555  14.704  0.00  0.00    -0.037 A 
BRANCH  30  31
ATOM     31  O   UNL     1      47.401  13.376  16.744  0.00  0.00    -0.480 OA
ATOM     32  H   UNL     1      47.615  14.089  17.360  0.00  0.00    +0.402 HD
ENDBRANCH  30  31
BRANCH  34  35
ATOM     35  O   UNL     1      48.116  12.440  12.142  0.00  0.00    -0.490 OA
ATOM     36  H   UNL     1      47.763  13.164  11.607  0.00  0.00    +0.402 HD
ENDBRANCH  34  35
ENDBRANCH  28  29
BRANCH  26  25
ATOM      1  C   UNL     1      48.090  22.422  22.505  0.00  0.00    +0.093 C 
ATOM      2  C   UNL     1      48.673  21.205  21.833  0.00  0.00    -0.066 A 
ATOM      3  C   UNL     1      50.032  21.172  21.531  0.00  0.00    +0.013 A 
ATOM      4  C   UNL     1      50.589  20.088  20.926  0.00  0.00    +0.041 A 
ATOM      5  C   UNL     1      49.782  18.983  20.598  0.00  0.00    -0.079 A 
ATOM      6  C   UNL     1      48.400  19.018  20.905  0.00  0.00    -0.007 A 
ATOM      7  C   UNL     1      47.583  17.908  20.578  0.00  0.00    -0.026 A 
ATOM     24  C   UNL     1      48.141  16.803  19.964  0.00  0.00    +0.053 A 
ATOM     25  C   UNL     1      49.507  16.770  19.660  0.00  0.00    -0.079 A 
ATOM     59  C   UNL     1      50.328  17.846  19.972  0.00  0.00    +0.160 A 
ATOM     62  C   UNL     1      47.863  20.150  21.534  0.00  0.00    +0.010 A 
BRANCH   7   8
ATOM      8  C   UNL     1      46.137  17.931  20.895  0.00  0.00    -0.108 A 
ATOM      9  C   UNL     1      45.617  17.061  21.860  0.00  0.00    +0.153 A 
ATOM     12  C   UNL     1      44.260  17.079  22.161  0.00  0.00    -0.009 A 
ATOM     13  C   UNL     1      43.420  17.952  21.512  0.00  0.00    -0.029 A 
ATOM     14  C   UNL     1      43.924  18.829  20.542  0.00  0.00    -0.136 A 
ATOM     15  C   UNL     1      42.993  19.748  19.869  0.00  0.00    +0.219 C 
ATOM     16  C   UNL     1      43.376  20.388  18.560  0.00  0.00    +0.136 C 
ATOM     17  N   UNL     1      41.845  20.004  20.404  0.00  0.00    -0.507 NA
ATOM     18  C   UNL     1      41.434  19.422  21.678  0.00  0.00    +0.150 C 
ATOM     19  C   UNL     1      39.906  19.417  21.757  0.00  0.00    +0.057 C 
ATOM     20  C   UNL     1      41.946  17.990  21.822  0.00  0.00    +0.075 C 
ATOM     21  C   UNL     1      45.288  18.825  20.235  0.00  0.00    +0.168 A 
BRANCH   9  10
ATOM     10  O   UNL     1      46.441  16.196  22.505  0.00  0.00    -0.485 OA
ATOM     11  H   UNL     1      46.729  16.503  23.374  0.00  0.00    +0.390 HD
ENDBRANCH   9  10
BRANCH  21  22
ATOM     22  O   UNL     1      45.782  19.676  19.302  0.00  0.00    -0.323 OA
ATOM     23  C   UNL     1      46.038  19.136  18.003  0.00  0.00    +0.234 C 
ENDBRANCH  21  22
ENDBRANCH   7   8
BRANCH  59  60
ATOM     60  O   UNL     1      51.652  17.803  19.673  0.00  0.00    -0.490 OA
ATOM     61  H   UNL     1      51.904  18.358  18.922  0.00  0.00    +0.397 HD
ENDBRANCH  59  60
ENDBRANCH  26  25
BRANCH  52  53
ATOM     53  O   UNL     1      53.186  13.385  20.817  0.00  0.00    -0.293 OA
ATOM     54  C   UNL     1      54.595  13.250  21.016  0.00  0.00    +0.247 C 
ENDBRANCH  52  53
BRANCH  56  57
ATOM     57  O   UNL     1      51.583  15.284  20.828  0.00  0.00    -0.480 OA
ATOM     58  H   UNL     1      51.018  15.932  21.271  0.00  0.00    +0.400 HD
ENDBRANCH  56  57
TORSDOF 10
ENDMDL
MODEL 7
REMARK VINA RESULT:      -3.2      3.676      5.617
REMARK  Name = ZINC95486142
REMARK  18 active torsions:
REMARK  status: ('A' for Active; 'I' for Inactive)
REMARK    1  A    between atoms: C1_1  and  C2_2
REMARK    2  A    between atoms: C8_8  and  C35_43
REMARK    3  A    between atoms: C10_10  and  C12_13
REMARK    4  A    between atoms: C11_11  and  O1_12
REMARK    5  A    between atoms: C14_15  and  C24_27
REMARK    6  A    between atoms: C17_18  and  C23_26
REMARK    7  A    between atoms: C19_20  and  O3_24
REMARK    8  A    between atoms: C21_22  and  O2_23
REMARK    9  A    between atoms: O3_24  and  C22_25
REMARK   10  A    between atoms: C25_28  and  O5_42
REMARK   11  A    between atoms: C27_30  and  O4_41
REMARK   12  A    between atoms: C31_34  and  C34_40
REMARK   13  A    between atoms: C32_37  and  C33_39
REMARK   14  A    between atoms: C36_44  and  O7_58
REMARK   15  A    between atoms: C40_48  and  O6_49
REMARK   16  A    between atoms: O6_49  and  C41_50
REMARK   17  A    between atoms: C42_51  and  C46_57
REMARK   18  A    between atoms: C43_53  and  C45_56
REMARK                            x       y       z     vdW  Elec       q    Type
REMARK                         _______ _______ _______ _____ _____    ______ ____
ROOT
ATOM     26  C   UNL     1      48.314  16.661  20.046  0.00  0.00    -0.079 A 
ATOM     27  C   UNL     1      49.043  16.414  18.875  0.00  0.00    +0.076 A 
ATOM     28  C   UNL     1      49.388  15.126  18.520  0.00  0.00    -0.074 A 
ATOM     47  C   UNL     1      49.004  14.041  19.347  0.00  0.00    +0.028 A 
ATOM     48  C   UNL     1      49.342  12.722  19.009  0.00  0.00    -0.041 A 
ATOM     49  C   UNL     1      48.964  11.693  19.819  0.00  0.00    -0.018 A 
ATOM     50  C   UNL     1      49.333  10.281  19.446  0.00  0.00    +0.095 C 
ATOM     51  C   UNL     1      48.240  11.927  20.985  0.00  0.00    -0.096 A 
ATOM     52  C   UNL     1      47.889  13.208  21.349  0.00  0.00    +0.168 A 
ATOM     55  C   UNL     1      48.268  14.290  20.530  0.00  0.00    -0.101 A 
ATOM     56  C   UNL     1      47.932  15.612  20.875  0.00  0.00    +0.182 A 
ENDROOT
BRANCH  28  29
ATOM     29  C   UNL     1      50.158  14.878  17.279  0.00  0.00    -0.057 A 
ATOM     30  C   UNL     1      51.340  15.584  17.038  0.00  0.00    +0.172 A 
ATOM     33  C   UNL     1      52.054  15.348  15.877  0.00  0.00    -0.017 A 
ATOM     34  C   UNL     1      51.594  14.416  14.961  0.00  0.00    +0.161 A 
ATOM     37  C   UNL     1      50.416  13.709  15.197  0.00  0.00    -0.165 A 
ATOM     38  C   UNL     1      49.958  12.712  14.167  0.00  0.00    +0.240 C 
ATOM     39  C   UNL     1      51.169  11.933  13.647  0.00  0.00    +0.093 C 
ATOM     40  N   UNL     1      49.006  11.762  14.758  0.00  0.00    -0.504 N 
ATOM     41  H   UNL     1      48.636  11.163  14.035  0.00  0.00    +0.432 HD
ATOM     42  H   UNL     1      49.467  11.202  15.460  0.00  0.00    +0.429 HD
ATOM     43  C   UNL     1      47.909  12.521  15.378  0.00  0.00    +0.179 C 
ATOM     44  C   UNL     1      47.413  13.597  14.411  0.00  0.00    +0.089 C 
ATOM     45  C   UNL     1      48.434  13.181  16.654  0.00  0.00    +0.133 C 
ATOM     46  C   UNL     1      49.705  13.934  16.354  0.00  0.00    -0.037 A 
BRANCH  30  31
ATOM     31  O   UNL     1      51.785  16.499  17.939  0.00  0.00    -0.480 OA
ATOM     32  H   UNL     1      52.673  16.834  17.753  0.00  0.00    +0.402 HD
ENDBRANCH  30  31
BRANCH  34  35
ATOM     35  O   UNL     1      52.299  14.187  13.822  0.00  0.00    -0.490 OA
ATOM     36  H   UNL     1      53.258  14.232  13.936  0.00  0.00    +0.402 HD
ENDBRANCH  34  35
ENDBRANCH  28  29
BRANCH  26  25
ATOM      1  C   UNL     1      47.446  24.169  22.499  0.00  0.00    +0.093 C 
ATOM      2  C   UNL     1      47.810  22.754  22.128  0.00  0.00    -0.066 A 
ATOM      3  C   UNL     1      49.050  22.242  22.504  0.00  0.00    +0.013 A 
ATOM      4  C   UNL     1      49.408  20.969  22.185  0.00  0.00    +0.041 A 
ATOM      5  C   UNL     1      48.516  20.155  21.464  0.00  0.00    -0.079 A 
ATOM      6  C   UNL     1      47.255  20.676  21.083  0.00  0.00    -0.007 A 
ATOM      7  C   UNL     1      46.352  19.861  20.357  0.00  0.00    -0.026 A 
ATOM     24  C   UNL     1      46.708  18.567  20.030  0.00  0.00    +0.053 A 
ATOM     25  C   UNL     1      47.955  18.052  20.408  0.00  0.00    -0.079 A 
ATOM     59  C   UNL     1      48.856  18.833  21.119  0.00  0.00    +0.160 A 
ATOM     62  C   UNL     1      46.920  21.991  21.434  0.00  0.00    +0.010 A 
BRANCH   7   8
ATOM      8  C   UNL     1      45.031  20.393  19.953  0.00  0.00    -0.108 A 
ATOM      9  C   UNL     1      44.952  21.540  19.153  0.00  0.00    +0.153 A 
ATOM     12  C   UNL     1      43.714  22.043  18.772  0.00  0.00    -0.009 A 
ATOM     13  C   UNL     1      42.559  21.418  19.176  0.00  0.00    -0.029 A 
ATOM     14  C   UNL     1      42.621  20.269  19.977  0.00  0.00    -0.136 A 
ATOM     15  C   UNL     1      41.363  19.628  20.390  0.00  0.00    +0.219 C 
ATOM     16  C   UNL     1      41.345  18.683  21.564  0.00  0.00    +0.136 C 
ATOM     17  N   UNL     1      40.272  19.879  19.744  0.00  0.00    -0.507 NA
ATOM     18  C   UNL     1      40.240  20.774  18.591  0.00  0.00    +0.150 C 
ATOM     19  C   UNL     1      38.821  21.320  18.420  0.00  0.00    +0.057 C 
ATOM     20  C   UNL     1      41.207  21.943  18.773  0.00  0.00    +0.075 C 
ATOM     21  C   UNL     1      43.860  19.750  20.363  0.00  0.00    +0.168 A 
BRANCH   9  10
ATOM     10  O   UNL     1      46.089  22.163  18.751  0.00  0.00    -0.485 OA
ATOM     11  H   UNL     1      46.893  21.815  19.158  0.00  0.00    +0.390 HD
ENDBRANCH   9  10
BRANCH  21  22
ATOM     22  O   UNL     1      43.926  18.635  21.133  0.00  0.00    -0.323 OA
ATOM     23  C   UNL     1      44.284  18.815  22.505  0.00  0.00    +0.234 C 
ENDBRANCH  21  22
ENDBRANCH   7   8
BRANCH  59  60
ATOM     60  O   UNL     1      50.062  18.324  21.481  0.00  0.00    -0.490 OA
ATOM     61  H   UNL     1      50.016  17.672  22.193  0.00  0.00    +0.397 HD
ENDBRANCH  59  60
ENDBRANCH  26  25
BRANCH  52  53
ATOM     53  O   UNL     1      47.183  13.426  22.489  0.00  0.00    -0.293 OA
ATOM     54  C   UNL     1      45.782  13.150  22.447  0.00  0.00    +0.247 C 
ENDBRANCH  52  53
BRANCH  56  57
ATOM     57  O   UNL     1      47.231  15.864  22.010  0.00  0.00    -0.480 OA
ATOM     58  H   UNL     1      46.737  16.696  21.991  0.00  0.00    +0.400 HD
ENDBRANCH  56  57
TORSDOF 10
ENDMDL
MODEL 8
REMARK VINA RESULT:      -3.2      2.137      4.962
REMARK  Name = ZINC95486142
REMARK  18 active torsions:
REMARK  status: ('A' for Active; 'I' for Inactive)
REMARK    1  A    between atoms: C1_1  and  C2_2
REMARK    2  A    between atoms: C8_8  and  C35_43
REMARK    3  A    between atoms: C10_10  and  C12_13
REMARK    4  A    between atoms: C11_11  and  O1_12
REMARK    5  A    between atoms: C14_15  and  C24_27
REMARK    6  A    between atoms: C17_18  and  C23_26
REMARK    7  A    between atoms: C19_20  and  O3_24
REMARK    8  A    between atoms: C21_22  and  O2_23
REMARK    9  A    between atoms: O3_24  and  C22_25
REMARK   10  A    between atoms: C25_28  and  O5_42
REMARK   11  A    between atoms: C27_30  and  O4_41
REMARK   12  A    between atoms: C31_34  and  C34_40
REMARK   13  A    between atoms: C32_37  and  C33_39
REMARK   14  A    between atoms: C36_44  and  O7_58
REMARK   15  A    between atoms: C40_48  and  O6_49
REMARK   16  A    between atoms: O6_49  and  C41_50
REMARK   17  A    between atoms: C42_51  and  C46_57
REMARK   18  A    between atoms: C43_53  and  C45_56
REMARK                            x       y       z     vdW  Elec       q    Type
REMARK                         _______ _______ _______ _____ _____    ______ ____
ROOT
ATOM     26  C   UNL     1      50.697  15.684  19.309  0.00  0.00    -0.079 A 
ATOM     27  C   UNL     1      50.718  15.382  17.940  0.00  0.00    +0.076 A 
ATOM     28  C   UNL     1      51.393  14.271  17.476  0.00  0.00    -0.074 A 
ATOM     47  C   UNL     1      52.072  13.427  18.389  0.00  0.00    +0.028 A 
ATOM     48  C   UNL     1      52.765  12.293  17.944  0.00  0.00    -0.041 A 
ATOM     49  C   UNL     1      53.413  11.494  18.839  0.00  0.00    -0.018 A 
ATOM     50  C   UNL     1      54.155  10.278  18.348  0.00  0.00    +0.095 C 
ATOM     51  C   UNL     1      53.399  11.785  20.200  0.00  0.00    -0.096 A 
ATOM     52  C   UNL     1      52.728  12.890  20.676  0.00  0.00    +0.168 A 
ATOM     55  C   UNL     1      52.051  13.733  19.772  0.00  0.00    -0.101 A 
ATOM     56  C   UNL     1      51.361  14.873  20.222  0.00  0.00    +0.182 A 
ENDROOT
BRANCH  28  29
ATOM     29  C   UNL     1      51.407  13.962  16.028  0.00  0.00    -0.057 A 
ATOM     30  C   UNL     1      52.045  14.829  15.135  0.00  0.00    +0.172 A 
ATOM     33  C   UNL     1      52.054  14.535  13.783  0.00  0.00    -0.017 A 
ATOM     34  C   UNL     1      51.432  13.386  13.322  0.00  0.00    +0.161 A 
ATOM     37  C   UNL     1      50.796  12.519  14.208  0.00  0.00    -0.165 A 
ATOM     38  C   UNL     1      50.131  11.287  13.654  0.00  0.00    +0.240 C 
ATOM     39  C   UNL     1      51.024  10.676  12.571  0.00  0.00    +0.093 C 
ATOM     40  N   UNL     1      49.929  10.290  14.715  0.00  0.00    -0.504 N 
ATOM     41  H   UNL     1      49.398   9.514  14.350  0.00  0.00    +0.432 HD
ATOM     42  H   UNL     1      50.821   9.961  15.054  0.00  0.00    +0.429 HD
ATOM     43  C   UNL     1      49.186  10.921  15.817  0.00  0.00    +0.179 C 
ATOM     44  C   UNL     1      47.991  11.694  15.259  0.00  0.00    +0.089 C 
ATOM     45  C   UNL     1      50.124  11.883  16.548  0.00  0.00    +0.133 C 
ATOM     46  C   UNL     1      50.789  12.801  15.555  0.00  0.00    -0.037 A 
BRANCH  30  31
ATOM     31  O   UNL     1      52.650  15.956  15.592  0.00  0.00    -0.480 OA
ATOM     32  H   UNL     1      52.040  16.607  15.966  0.00  0.00    +0.402 HD
ENDBRANCH  30  31
BRANCH  34  35
ATOM     35  O   UNL     1      51.445  13.100  11.993  0.00  0.00    -0.490 OA
ATOM     36  H   UNL     1      50.606  12.758  11.656  0.00  0.00    +0.402 HD
ENDBRANCH  34  35
ENDBRANCH  28  29
BRANCH  26  25
ATOM      1  C   UNL     1      47.811  22.668  21.765  0.00  0.00    +0.093 C 
ATOM      2  C   UNL     1      48.552  21.449  21.278  0.00  0.00    -0.066 A 
ATOM      3  C   UNL     1      49.909  21.543  20.977  0.00  0.00    +0.013 A 
ATOM      4  C   UNL     1      50.605  20.460  20.536  0.00  0.00    +0.041 A 
ATOM      5  C   UNL     1      49.948  19.226  20.381  0.00  0.00    -0.079 A 
ATOM      6  C   UNL     1      48.568  19.131  20.688  0.00  0.00    -0.007 A 
ATOM      7  C   UNL     1      47.901  17.891  20.533  0.00  0.00    -0.026 A 
ATOM     24  C   UNL     1      48.602  16.787  20.087  0.00  0.00    +0.053 A 
ATOM     25  C   UNL     1      49.966  16.882  19.785  0.00  0.00    -0.079 A 
ATOM     59  C   UNL     1      50.641  18.087  19.928  0.00  0.00    +0.160 A 
ATOM     62  C   UNL     1      47.885  20.268  21.144  0.00  0.00    +0.010 A 
BRANCH   7   8
ATOM      8  C   UNL     1      46.460  17.778  20.851  0.00  0.00    -0.108 A 
ATOM      9  C   UNL     1      46.028  16.886  21.840  0.00  0.00    +0.153 A 
ATOM     12  C   UNL     1      44.676  16.776  22.141  0.00  0.00    -0.009 A 
ATOM     13  C   UNL     1      43.754  17.544  21.471  0.00  0.00    -0.029 A 
ATOM     14  C   UNL     1      44.170  18.441  20.478  0.00  0.00    -0.136 A 
ATOM     15  C   UNL     1      43.152  19.245  19.782  0.00  0.00    +0.219 C 
ATOM     16  C   UNL     1      43.471  19.886  18.456  0.00  0.00    +0.136 C 
ATOM     17  N   UNL     1      41.983  19.399  20.312  0.00  0.00    -0.507 NA
ATOM     18  C   UNL     1      41.631  18.813  21.601  0.00  0.00    +0.150 C 
ATOM     19  C   UNL     1      40.111  18.657  21.682  0.00  0.00    +0.057 C 
ATOM     20  C   UNL     1      42.283  17.443  21.782  0.00  0.00    +0.075 C 
ATOM     21  C   UNL     1      45.527  18.565  20.169  0.00  0.00    +0.168 A 
BRANCH   9  10
ATOM     10  O   UNL     1      46.933  16.125  22.505  0.00  0.00    -0.485 OA
ATOM     11  H   UNL     1      46.936  16.264  23.462  0.00  0.00    +0.390 HD
ENDBRANCH   9  10
BRANCH  21  22
ATOM     22  O   UNL     1      45.936  19.436  19.214  0.00  0.00    -0.323 OA
ATOM     23  C   UNL     1      46.482  18.877  18.017  0.00  0.00    +0.234 C 
ENDBRANCH  21  22
ENDBRANCH   7   8
BRANCH  59  60
ATOM     60  O   UNL     1      51.964  18.168  19.632  0.00  0.00    -0.490 OA
ATOM     61  H   UNL     1      52.392  17.310  19.509  0.00  0.00    +0.397 HD
ENDBRANCH  59  60
ENDBRANCH  26  25
BRANCH  52  53
ATOM     53  O   UNL     1      52.721  13.166  22.006  0.00  0.00    -0.293 OA
ATOM     54  C   UNL     1      53.784  13.980  22.505  0.00  0.00    +0.247 C 
ENDBRANCH  52  53
BRANCH  56  57
ATOM     57  O   UNL     1      51.338  15.178  21.544  0.00  0.00    -0.480 OA
ATOM     58  H   UNL     1      51.290  14.407  22.126  0.00  0.00    +0.400 HD
ENDBRANCH  56  57
TORSDOF 10
ENDMDL
