MODEL 1
REMARK VINA RESULT:      -5.7      0.000      0.000
REMARK  Name = ZINC95486315
REMARK  7 active torsions:
REMARK  status: ('A' for Active; 'I' for Inactive)
REMARK    1  A    between atoms: C1_1  and  C2_2
REMARK    2  A    between atoms: C2_2  and  C19_24
REMARK    3  A    between atoms: C10_12  and  C17_22
REMARK    4  A    between atoms: C13_15  and  O2_21
REMARK    5  A    between atoms: C14_17  and  C15_18
REMARK    6  A    between atoms: C14_17  and  C16_19
REMARK    7  A    between atoms: C16_19  and  O1_20
REMARK                            x       y       z     vdW  Elec       q    Type
REMARK                         _______ _______ _______ _____ _____    ______ ____
ROOT
ATOM      1  C   UNL     1      50.965  19.374  20.249  0.00  0.00    +0.029 C 
ATOM      2  C   UNL     1      50.733  19.379  18.737  0.00  0.00    -0.028 C 
ATOM      5  C   UNL     1      50.230  20.757  18.303  0.00  0.00    +0.021 C 
ATOM      6  C   UNL     1      48.964  21.115  19.085  0.00  0.00    +0.027 C 
ATOM      7  C   UNL     1      47.861  20.107  18.752  0.00  0.00    +0.039 C 
ATOM      8  C   UNL     1      48.363  18.717  19.005  0.00  0.00    -0.106 C 
ATOM      9  C   UNL     1      47.735  17.840  19.731  0.00  0.00    -0.056 C 
ATOM     10  C   UNL     1      46.430  18.127  20.412  0.00  0.00    +0.055 C 
ATOM     11  C   UNL     1      45.685  19.221  19.638  0.00  0.00    +0.033 C 
ATOM     12  C   UNL     1      44.405  19.576  20.399  0.00  0.00    -0.039 C 
ATOM     16  C   UNL     1      43.500  18.344  20.474  0.00  0.00    +0.040 C 
ATOM     17  C   UNL     1      43.687  20.701  19.724  0.00  0.00    +0.180 C 
ATOM     20  C   UNL     1      44.597  21.928  19.642  0.00  0.00    -0.017 C 
ATOM     21  C   UNL     1      45.852  21.573  18.844  0.00  0.00    +0.025 C 
ATOM     22  C   UNL     1      46.602  20.434  19.539  0.00  0.00    -0.043 C 
ATOM     23  C   UNL     1      46.993  20.897  20.944  0.00  0.00    +0.019 C 
ATOM     24  C   UNL     1      49.689  18.317  18.377  0.00  0.00    +0.068 C 
ENDROOT
BRANCH   2   3
ATOM      3  C   UNL     1      52.026  19.070  18.029  0.00  0.00    -0.040 C 
ATOM      4  C   UNL     1      52.218  19.488  16.802  0.00  0.00    +0.001 C 
ENDBRANCH   2   3
BRANCH  17  18
ATOM     18  O   UNL     1      43.327  20.285  18.405  0.00  0.00    -0.562 OA
ATOM     19  H   UNL     1      44.012  19.772  17.953  0.00  0.00    +0.373 HD
ENDBRANCH  17  18
BRANCH  12  13
ATOM     13  C   UNL     1      44.764  20.030  21.816  0.00  0.00    +0.179 C 
BRANCH  13  14
ATOM     14  O   UNL     1      43.576  20.421  22.505  0.00  0.00    -0.575 OA
ATOM     15  H   UNL     1      42.910  19.722  22.570  0.00  0.00    +0.377 HD
ENDBRANCH  13  14
ENDBRANCH  12  13
TORSDOF 4
ENDMDL
MODEL 2
REMARK VINA RESULT:      -5.6      3.046      6.412
REMARK  Name = ZINC95486315
REMARK  7 active torsions:
REMARK  status: ('A' for Active; 'I' for Inactive)
REMARK    1  A    between atoms: C1_1  and  C2_2
REMARK    2  A    between atoms: C2_2  and  C19_24
REMARK    3  A    between atoms: C10_12  and  C17_22
REMARK    4  A    between atoms: C13_15  and  O2_21
REMARK    5  A    between atoms: C14_17  and  C15_18
REMARK    6  A    between atoms: C14_17  and  C16_19
REMARK    7  A    between atoms: C16_19  and  O1_20
REMARK                            x       y       z     vdW  Elec       q    Type
REMARK                         _______ _______ _______ _____ _____    ______ ____
ROOT
ATOM      1  C   UNL     1      45.611  18.650  20.480  0.00  0.00    +0.029 C 
ATOM      2  C   UNL     1      45.421  19.451  19.190  0.00  0.00    -0.028 C 
ATOM      5  C   UNL     1      46.044  18.688  18.019  0.00  0.00    +0.021 C 
ATOM      6  C   UNL     1      47.519  18.406  18.314  0.00  0.00    +0.027 C 
ATOM      7  C   UNL     1      48.274  19.732  18.441  0.00  0.00    +0.039 C 
ATOM      8  C   UNL     1      47.599  20.592  19.467  0.00  0.00    -0.106 C 
ATOM      9  C   UNL     1      48.218  21.152  20.465  0.00  0.00    -0.056 C 
ATOM     10  C   UNL     1      49.689  20.988  20.708  0.00  0.00    +0.055 C 
ATOM     11  C   UNL     1      50.393  20.697  19.378  0.00  0.00    +0.033 C 
ATOM     12  C   UNL     1      51.876  20.433  19.655  0.00  0.00    -0.039 C 
ATOM     16  C   UNL     1      52.510  21.683  20.267  0.00  0.00    +0.040 C 
ATOM     17  C   UNL     1      52.588  20.060  18.394  0.00  0.00    +0.180 C 
ATOM     20  C   UNL     1      51.945  18.815  17.778  0.00  0.00    -0.017 C 
ATOM     21  C   UNL     1      50.477  19.106  17.467  0.00  0.00    +0.025 C 
ATOM     22  C   UNL     1      49.738  19.471  18.757  0.00  0.00    -0.043 C 
ATOM     23  C   UNL     1      49.840  18.290  19.725  0.00  0.00    +0.019 C 
ATOM     24  C   UNL     1      46.102  20.816  19.331  0.00  0.00    +0.068 C 
ENDROOT
BRANCH   2   3
ATOM      3  C   UNL     1      43.949  19.648  18.933  0.00  0.00    -0.040 C 
ATOM      4  C   UNL     1      43.315  20.649  19.491  0.00  0.00    +0.001 C 
ENDBRANCH   2   3
BRANCH  17  18
ATOM     18  O   UNL     1      52.488  21.151  17.475  0.00  0.00    -0.562 OA
ATOM     19  H   UNL     1      52.814  20.949  16.587  0.00  0.00    +0.373 HD
ENDBRANCH  17  18
BRANCH  12  13
ATOM     13  C   UNL     1      52.009  19.263  20.633  0.00  0.00    +0.179 C 
BRANCH  13  14
ATOM     14  O   UNL     1      52.773  19.678  21.767  0.00  0.00    -0.575 OA
ATOM     15  H   UNL     1      52.501  19.263  22.598  0.00  0.00    +0.377 HD
ENDBRANCH  13  14
ENDBRANCH  12  13
TORSDOF 4
ENDMDL
MODEL 3
REMARK VINA RESULT:      -5.5      3.188      6.464
REMARK  Name = ZINC95486315
REMARK  7 active torsions:
REMARK  status: ('A' for Active; 'I' for Inactive)
REMARK    1  A    between atoms: C1_1  and  C2_2
REMARK    2  A    between atoms: C2_2  and  C19_24
REMARK    3  A    between atoms: C10_12  and  C17_22
REMARK    4  A    between atoms: C13_15  and  O2_21
REMARK    5  A    between atoms: C14_17  and  C15_18
REMARK    6  A    between atoms: C14_17  and  C16_19
REMARK    7  A    between atoms: C16_19  and  O1_20
REMARK                            x       y       z     vdW  Elec       q    Type
REMARK                         _______ _______ _______ _____ _____    ______ ____
ROOT
ATOM      1  C   UNL     1      45.238  19.675  20.698  0.00  0.00    +0.029 C 
ATOM      2  C   UNL     1      45.312  21.097  20.139  0.00  0.00    -0.028 C 
ATOM      5  C   UNL     1      45.882  21.058  18.720  0.00  0.00    +0.021 C 
ATOM      6  C   UNL     1      47.248  20.368  18.730  0.00  0.00    +0.027 C 
ATOM      7  C   UNL     1      48.222  21.183  19.585  0.00  0.00    +0.039 C 
ATOM      8  C   UNL     1      47.632  21.393  20.948  0.00  0.00    -0.106 C 
ATOM      9  C   UNL     1      48.255  21.124  22.057  0.00  0.00    -0.056 C 
ATOM     10  C   UNL     1      49.644  20.557  22.097  0.00  0.00    +0.055 C 
ATOM     11  C   UNL     1      50.394  20.967  20.824  0.00  0.00    +0.033 C 
ATOM     12  C   UNL     1      51.772  20.299  20.831  0.00  0.00    -0.039 C 
ATOM     16  C   UNL     1      52.572  20.795  22.037  0.00  0.00    +0.040 C 
ATOM     17  C   UNL     1      52.509  20.602  19.565  0.00  0.00    +0.180 C 
ATOM     20  C   UNL     1      51.702  20.113  18.360  0.00  0.00    -0.017 C 
ATOM     21  C   UNL     1      50.346  20.819  18.341  0.00  0.00    +0.025 C 
ATOM     22  C   UNL     1      49.579  20.499  19.626  0.00  0.00    -0.043 C 
ATOM     23  C   UNL     1      49.376  18.984  19.705  0.00  0.00    +0.019 C 
ATOM     24  C   UNL     1      46.220  21.949  21.032  0.00  0.00    +0.068 C 
ENDROOT
BRANCH   2   3
ATOM      3  C   UNL     1      43.931  21.698  20.109  0.00  0.00    -0.040 C 
ATOM      4  C   UNL     1      43.771  22.958  19.790  0.00  0.00    +0.001 C 
ENDBRANCH   2   3
BRANCH  17  18
ATOM     18  O   UNL     1      52.694  22.016  19.474  0.00  0.00    -0.562 OA
ATOM     19  H   UNL     1      53.611  22.284  19.324  0.00  0.00    +0.373 HD
ENDBRANCH  17  18
BRANCH  12  13
ATOM     13  C   UNL     1      51.601  18.781  20.923  0.00  0.00    +0.179 C 
BRANCH  13  14
ATOM     14  O   UNL     1      52.803  18.197  21.429  0.00  0.00    -0.575 OA
ATOM     15  H   UNL     1      53.170  17.502  20.866  0.00  0.00    +0.377 HD
ENDBRANCH  13  14
ENDBRANCH  12  13
TORSDOF 4
ENDMDL
MODEL 4
REMARK VINA RESULT:      -5.4      1.303      2.692
REMARK  Name = ZINC95486315
REMARK  7 active torsions:
REMARK  status: ('A' for Active; 'I' for Inactive)
REMARK    1  A    between atoms: C1_1  and  C2_2
REMARK    2  A    between atoms: C2_2  and  C19_24
REMARK    3  A    between atoms: C10_12  and  C17_22
REMARK    4  A    between atoms: C13_15  and  O2_21
REMARK    5  A    between atoms: C14_17  and  C15_18
REMARK    6  A    between atoms: C14_17  and  C16_19
REMARK    7  A    between atoms: C16_19  and  O1_20
REMARK                            x       y       z     vdW  Elec       q    Type
REMARK                         _______ _______ _______ _____ _____    ______ ____
ROOT
ATOM      1  C   UNL     1      50.472  21.127  18.177  0.00  0.00    +0.029 C 
ATOM      2  C   UNL     1      50.713  19.906  19.067  0.00  0.00    -0.028 C 
ATOM      5  C   UNL     1      49.848  18.742  18.579  0.00  0.00    +0.021 C 
ATOM      6  C   UNL     1      48.377  19.163  18.559  0.00  0.00    +0.027 C 
ATOM      7  C   UNL     1      47.925  19.495  19.984  0.00  0.00    +0.039 C 
ATOM      8  C   UNL     1      48.848  20.521  20.573  0.00  0.00    -0.106 C 
ATOM      9  C   UNL     1      48.445  21.627  21.125  0.00  0.00    -0.056 C 
ATOM     10  C   UNL     1      46.997  22.009  21.226  0.00  0.00    +0.055 C 
ATOM     11  C   UNL     1      46.138  20.740  21.233  0.00  0.00    +0.033 C 
ATOM     12  C   UNL     1      44.662  21.147  21.233  0.00  0.00    -0.039 C 
ATOM     16  C   UNL     1      44.353  21.939  22.505  0.00  0.00    +0.040 C 
ATOM     17  C   UNL     1      43.784  19.939  21.154  0.00  0.00    +0.180 C 
ATOM     20  C   UNL     1      44.101  19.143  19.886  0.00  0.00    -0.017 C 
ATOM     21  C   UNL     1      45.566  18.707  19.918  0.00  0.00    +0.025 C 
ATOM     22  C   UNL     1      46.472  19.939  19.980  0.00  0.00    -0.043 C 
ATOM     23  C   UNL     1      46.211  20.796  18.740  0.00  0.00    +0.019 C 
ATOM     24  C   UNL     1      50.342  20.248  20.513  0.00  0.00    +0.068 C 
ENDROOT
BRANCH   2   3
ATOM      3  C   UNL     1      52.166  19.514  19.000  0.00  0.00    -0.040 C 
ATOM      4  C   UNL     1      52.524  18.431  18.358  0.00  0.00    +0.001 C 
ENDBRANCH   2   3
BRANCH  17  18
ATOM     18  O   UNL     1      44.027  19.123  22.302  0.00  0.00    -0.562 OA
ATOM     19  H   UNL     1      43.308  18.510  22.509  0.00  0.00    +0.373 HD
ENDBRANCH  17  18
BRANCH  12  13
ATOM     13  C   UNL     1      44.374  22.019  20.009  0.00  0.00    +0.179 C 
BRANCH  13  14
ATOM     14  O   UNL     1      43.633  23.172  20.410  0.00  0.00    -0.575 OA
ATOM     15  H   UNL     1      42.674  23.059  20.367  0.00  0.00    +0.377 HD
ENDBRANCH  13  14
ENDBRANCH  12  13
TORSDOF 4
ENDMDL
MODEL 5
REMARK VINA RESULT:      -5.4      1.379      1.622
REMARK  Name = ZINC95486315
REMARK  7 active torsions:
REMARK  status: ('A' for Active; 'I' for Inactive)
REMARK    1  A    between atoms: C1_1  and  C2_2
REMARK    2  A    between atoms: C2_2  and  C19_24
REMARK    3  A    between atoms: C10_12  and  C17_22
REMARK    4  A    between atoms: C13_15  and  O2_21
REMARK    5  A    between atoms: C14_17  and  C15_18
REMARK    6  A    between atoms: C14_17  and  C16_19
REMARK    7  A    between atoms: C16_19  and  O1_20
REMARK                            x       y       z     vdW  Elec       q    Type
REMARK                         _______ _______ _______ _____ _____    ______ ____
ROOT
ATOM      1  C   UNL     1      49.345  17.193  19.625  0.00  0.00    +0.029 C 
ATOM      2  C   UNL     1      49.312  17.898  18.268  0.00  0.00    -0.028 C 
ATOM      5  C   UNL     1      49.443  19.408  18.475  0.00  0.00    +0.021 C 
ATOM      6  C   UNL     1      48.335  19.900  19.410  0.00  0.00    +0.027 C 
ATOM      7  C   UNL     1      46.973  19.650  18.757  0.00  0.00    +0.039 C 
ATOM      8  C   UNL     1      46.859  18.203  18.381  0.00  0.00    -0.106 C 
ATOM      9  C   UNL     1      45.858  17.443  18.715  0.00  0.00    -0.056 C 
ATOM     10  C   UNL     1      44.698  17.932  19.532  0.00  0.00    +0.055 C 
ATOM     11  C   UNL     1      44.537  19.443  19.326  0.00  0.00    +0.033 C 
ATOM     12  C   UNL     1      43.417  19.945  20.242  0.00  0.00    -0.039 C 
ATOM     16  C   UNL     1      42.101  19.267  19.854  0.00  0.00    +0.040 C 
ATOM     17  C   UNL     1      43.280  21.431  20.138  0.00  0.00    +0.180 C 
ATOM     20  C   UNL     1      44.600  22.106  20.517  0.00  0.00    -0.017 C 
ATOM     21  C   UNL     1      45.700  21.628  19.568  0.00  0.00    +0.025 C 
ATOM     22  C   UNL     1      45.859  20.110  19.683  0.00  0.00    -0.043 C 
ATOM     23  C   UNL     1      46.231  19.769  21.127  0.00  0.00    +0.019 C 
ATOM     24  C   UNL     1      47.986  17.591  17.565  0.00  0.00    +0.068 C 
ENDROOT
BRANCH   2   3
ATOM      3  C   UNL     1      50.456  17.407  17.419  0.00  0.00    -0.040 C 
ATOM      4  C   UNL     1      51.031  18.215  16.563  0.00  0.00    +0.001 C 
ENDBRANCH   2   3
BRANCH  17  18
ATOM     18  O   UNL     1      42.944  21.764  18.789  0.00  0.00    -0.562 OA
ATOM     19  H   UNL     1      43.465  21.292  18.125  0.00  0.00    +0.373 HD
ENDBRANCH  17  18
BRANCH  12  13
ATOM     13  C   UNL     1      43.756  19.605  21.695  0.00  0.00    +0.179 C 
BRANCH  13  14
ATOM     14  O   UNL     1      42.557  19.593  22.472  0.00  0.00    -0.575 OA
ATOM     15  H   UNL     1      42.609  20.119  23.283  0.00  0.00    +0.377 HD
ENDBRANCH  13  14
ENDBRANCH  12  13
TORSDOF 4
ENDMDL
MODEL 6
REMARK VINA RESULT:      -5.3      2.654      3.537
REMARK  Name = ZINC95486315
REMARK  7 active torsions:
REMARK  status: ('A' for Active; 'I' for Inactive)
REMARK    1  A    between atoms: C1_1  and  C2_2
REMARK    2  A    between atoms: C2_2  and  C19_24
REMARK    3  A    between atoms: C10_12  and  C17_22
REMARK    4  A    between atoms: C13_15  and  O2_21
REMARK    5  A    between atoms: C14_17  and  C15_18
REMARK    6  A    between atoms: C14_17  and  C16_19
REMARK    7  A    between atoms: C16_19  and  O1_20
REMARK                            x       y       z     vdW  Elec       q    Type
REMARK                         _______ _______ _______ _____ _____    ______ ____
ROOT
ATOM      1  C   UNL     1      48.580  15.481  19.445  0.00  0.00    +0.029 C 
ATOM      2  C   UNL     1      47.813  15.265  18.139  0.00  0.00    -0.028 C 
ATOM      5  C   UNL     1      47.848  16.550  17.309  0.00  0.00    +0.021 C 
ATOM      6  C   UNL     1      47.279  17.710  18.129  0.00  0.00    +0.027 C 
ATOM      7  C   UNL     1      45.811  17.426  18.460  0.00  0.00    +0.039 C 
ATOM      8  C   UNL     1      45.703  16.090  19.132  0.00  0.00    -0.106 C 
ATOM      9  C   UNL     1      45.085  15.893  20.260  0.00  0.00    -0.056 C 
ATOM     10  C   UNL     1      44.414  16.995  21.026  0.00  0.00    +0.055 C 
ATOM     11  C   UNL     1      43.996  18.105  20.055  0.00  0.00    +0.033 C 
ATOM     12  C   UNL     1      43.406  19.266  20.861  0.00  0.00    -0.039 C 
ATOM     16  C   UNL     1      42.157  18.786  21.604  0.00  0.00    +0.040 C 
ATOM     17  C   UNL     1      43.061  20.409  19.961  0.00  0.00    +0.180 C 
ATOM     20  C   UNL     1      44.310  20.881  19.212  0.00  0.00    -0.017 C 
ATOM     21  C   UNL     1      44.864  19.725  18.378  0.00  0.00    +0.025 C 
ATOM     22  C   UNL     1      45.236  18.558  19.296  0.00  0.00    -0.043 C 
ATOM     23  C   UNL     1      46.297  19.039  20.288  0.00  0.00    +0.019 C 
ATOM     24  C   UNL     1      46.360  14.899  18.454  0.00  0.00    +0.068 C 
ENDROOT
BRANCH   2   3
ATOM      3  C   UNL     1      48.455  14.147  17.359  0.00  0.00    -0.040 C 
ATOM      4  C   UNL     1      47.717  13.349  16.629  0.00  0.00    +0.001 C 
ENDBRANCH   2   3
BRANCH  17  18
ATOM     18  O   UNL     1      42.079  19.968  19.020  0.00  0.00    -0.562 OA
ATOM     19  H   UNL     1      41.379  20.613  18.850  0.00  0.00    +0.373 HD
ENDBRANCH  17  18
BRANCH  12  13
ATOM     13  C   UNL     1      44.441  19.760  21.874  0.00  0.00    +0.179 C 
BRANCH  13  14
ATOM     14  O   UNL     1      43.959  20.948  22.505  0.00  0.00    -0.575 OA
ATOM     15  H   UNL     1      44.502  21.246  23.249  0.00  0.00    +0.377 HD
ENDBRANCH  13  14
ENDBRANCH  12  13
TORSDOF 4
ENDMDL
MODEL 7
REMARK VINA RESULT:      -5.3      3.375      6.591
REMARK  Name = ZINC95486315
REMARK  7 active torsions:
REMARK  status: ('A' for Active; 'I' for Inactive)
REMARK    1  A    between atoms: C1_1  and  C2_2
REMARK    2  A    between atoms: C2_2  and  C19_24
REMARK    3  A    between atoms: C10_12  and  C17_22
REMARK    4  A    between atoms: C13_15  and  O2_21
REMARK    5  A    between atoms: C14_17  and  C15_18
REMARK    6  A    between atoms: C14_17  and  C16_19
REMARK    7  A    between atoms: C16_19  and  O1_20
REMARK                            x       y       z     vdW  Elec       q    Type
REMARK                         _______ _______ _______ _____ _____    ______ ____
ROOT
ATOM      1  C   UNL     1      46.633  19.152  22.305  0.00  0.00    +0.029 C 
ATOM      2  C   UNL     1      46.280  18.054  21.299  0.00  0.00    -0.028 C 
ATOM      5  C   UNL     1      47.308  16.926  21.394  0.00  0.00    +0.021 C 
ATOM      6  C   UNL     1      48.714  17.488  21.168  0.00  0.00    +0.027 C 
ATOM      7  C   UNL     1      48.808  18.066  19.753  0.00  0.00    +0.039 C 
ATOM      8  C   UNL     1      47.709  19.067  19.551  0.00  0.00    -0.106 C 
ATOM      9  C   UNL     1      47.901  20.276  19.114  0.00  0.00    -0.056 C 
ATOM     10  C   UNL     1      49.259  20.815  18.771  0.00  0.00    +0.055 C 
ATOM     11  C   UNL     1      50.178  19.654  18.373  0.00  0.00    +0.033 C 
ATOM     12  C   UNL     1      51.584  20.204  18.124  0.00  0.00    -0.039 C 
ATOM     16  C   UNL     1      51.542  21.199  16.962  0.00  0.00    +0.040 C 
ATOM     17  C   UNL     1      52.537  19.094  17.815  0.00  0.00    +0.180 C 
ATOM     20  C   UNL     1      52.569  18.095  18.975  0.00  0.00    -0.017 C 
ATOM     21  C   UNL     1      51.168  17.521  19.185  0.00  0.00    +0.025 C 
ATOM     22  C   UNL     1      50.191  18.651  19.520  0.00  0.00    -0.043 C 
ATOM     23  C   UNL     1      50.668  19.342  20.799  0.00  0.00    +0.019 C 
ATOM     24  C   UNL     1      46.289  18.638  19.883  0.00  0.00    +0.068 C 
ENDROOT
BRANCH   2   3
ATOM      3  C   UNL     1      44.909  17.511  21.610  0.00  0.00    -0.040 C 
ATOM      4  C   UNL     1      44.554  16.334  21.161  0.00  0.00    +0.001 C 
ENDBRANCH   2   3
BRANCH  17  18
ATOM     18  O   UNL     1      52.095  18.431  16.628  0.00  0.00    -0.562 OA
ATOM     19  H   UNL     1      51.306  17.886  16.753  0.00  0.00    +0.373 HD
ENDBRANCH  17  18
BRANCH  12  13
ATOM     13  C   UNL     1      52.083  20.915  19.384  0.00  0.00    +0.179 C 
BRANCH  13  14
ATOM     14  O   UNL     1      53.296  21.610  19.090  0.00  0.00    -0.575 OA
ATOM     15  H   UNL     1      53.211  22.272  18.390  0.00  0.00    +0.377 HD
ENDBRANCH  13  14
ENDBRANCH  12  13
TORSDOF 4
ENDMDL
MODEL 8
REMARK VINA RESULT:      -5.2      1.084      2.977
REMARK  Name = ZINC95486315
REMARK  7 active torsions:
REMARK  status: ('A' for Active; 'I' for Inactive)
REMARK    1  A    between atoms: C1_1  and  C2_2
REMARK    2  A    between atoms: C2_2  and  C19_24
REMARK    3  A    between atoms: C10_12  and  C17_22
REMARK    4  A    between atoms: C13_15  and  O2_21
REMARK    5  A    between atoms: C14_17  and  C15_18
REMARK    6  A    between atoms: C14_17  and  C16_19
REMARK    7  A    between atoms: C16_19  and  O1_20
REMARK                            x       y       z     vdW  Elec       q    Type
REMARK                         _______ _______ _______ _____ _____    ______ ____
ROOT
ATOM      1  C   UNL     1      49.619  17.934  17.498  0.00  0.00    +0.029 C 
ATOM      2  C   UNL     1      50.120  18.134  18.929  0.00  0.00    -0.028 C 
ATOM      5  C   UNL     1      49.424  17.136  19.857  0.00  0.00    +0.021 C 
ATOM      6  C   UNL     1      47.906  17.299  19.746  0.00  0.00    +0.027 C 
ATOM      7  C   UNL     1      47.511  18.702  20.215  0.00  0.00    +0.039 C 
ATOM      8  C   UNL     1      48.294  19.723  19.445  0.00  0.00    -0.106 C 
ATOM      9  C   UNL     1      47.757  20.732  18.824  0.00  0.00    -0.056 C 
ATOM     10  C   UNL     1      46.278  20.982  18.800  0.00  0.00    +0.055 C 
ATOM     11  C   UNL     1      45.640  20.368  20.051  0.00  0.00    +0.033 C 
ATOM     12  C   UNL     1      44.121  20.542  19.964  0.00  0.00    -0.039 C 
ATOM     16  C   UNL     1      43.781  22.033  19.938  0.00  0.00    +0.040 C 
ATOM     17  C   UNL     1      43.449  19.881  21.125  0.00  0.00    +0.180 C 
ATOM     20  C   UNL     1      43.799  18.391  21.154  0.00  0.00    -0.017 C 
ATOM     21  C   UNL     1      45.314  18.232  21.285  0.00  0.00    +0.025 C 
ATOM     22  C   UNL     1      46.008  18.890  20.090  0.00  0.00    -0.043 C 
ATOM     23  C   UNL     1      45.521  18.208  18.809  0.00  0.00    +0.019 C 
ATOM     24  C   UNL     1      49.804  19.562  19.385  0.00  0.00    +0.068 C 
ENDROOT
BRANCH   2   3
ATOM      3  C   UNL     1      51.609  17.909  18.976  0.00  0.00    -0.040 C 
ATOM      4  C   UNL     1      52.423  18.801  18.469  0.00  0.00    +0.001 C 
ENDBRANCH   2   3
BRANCH  17  18
ATOM     18  O   UNL     1      43.906  20.501  22.329  0.00  0.00    -0.562 OA
ATOM     19  H   UNL     1      44.525  19.961  22.840  0.00  0.00    +0.373 HD
ENDBRANCH  17  18
BRANCH  12  13
ATOM     13  C   UNL     1      43.607  19.880  18.684  0.00  0.00    +0.179 C 
BRANCH  13  14
ATOM     14  O   UNL     1      42.413  20.538  18.255  0.00  0.00    -0.575 OA
ATOM     15  H   UNL     1      42.559  21.424  17.896  0.00  0.00    +0.377 HD
ENDBRANCH  13  14
ENDBRANCH  12  13
TORSDOF 4
ENDMDL
MODEL 9
REMARK VINA RESULT:      -5.2      3.481      4.716
REMARK  Name = ZINC95486315
REMARK  7 active torsions:
REMARK  status: ('A' for Active; 'I' for Inactive)
REMARK    1  A    between atoms: C1_1  and  C2_2
REMARK    2  A    between atoms: C2_2  and  C19_24
REMARK    3  A    between atoms: C10_12  and  C17_22
REMARK    4  A    between atoms: C13_15  and  O2_21
REMARK    5  A    between atoms: C14_17  and  C15_18
REMARK    6  A    between atoms: C14_17  and  C16_19
REMARK    7  A    between atoms: C16_19  and  O1_20
REMARK                            x       y       z     vdW  Elec       q    Type
REMARK                         _______ _______ _______ _____ _____    ______ ____
ROOT
ATOM      1  C   UNL     1      51.933  19.271  20.513  0.00  0.00    +0.029 C 
ATOM      2  C   UNL     1      51.674  20.155  19.292  0.00  0.00    -0.028 C 
ATOM      5  C   UNL     1      50.243  20.692  19.346  0.00  0.00    +0.021 C 
ATOM      6  C   UNL     1      49.256  19.526  19.437  0.00  0.00    +0.027 C 
ATOM      7  C   UNL     1      49.368  18.667  18.174  0.00  0.00    +0.039 C 
ATOM      8  C   UNL     1      50.795  18.248  17.982  0.00  0.00    -0.106 C 
ATOM      9  C   UNL     1      51.170  17.017  17.795  0.00  0.00    -0.056 C 
ATOM     10  C   UNL     1      50.207  15.866  17.760  0.00  0.00    +0.055 C 
ATOM     11  C   UNL     1      48.831  16.372  17.313  0.00  0.00    +0.033 C 
ATOM     12  C   UNL     1      47.837  15.209  17.379  0.00  0.00    -0.039 C 
ATOM     16  C   UNL     1      48.278  14.107  16.413  0.00  0.00    +0.040 C 
ATOM     17  C   UNL     1      46.459  15.675  17.032  0.00  0.00    +0.180 C 
ATOM     20  C   UNL     1      46.024  16.784  17.994  0.00  0.00    -0.017 C 
ATOM     21  C   UNL     1      47.001  17.956  17.886  0.00  0.00    +0.025 C 
ATOM     22  C   UNL     1      48.411  17.490  18.258  0.00  0.00    -0.043 C 
ATOM     23  C   UNL     1      48.385  16.963  19.694  0.00  0.00    +0.019 C 
ATOM     24  C   UNL     1      51.862  19.330  18.015  0.00  0.00    +0.068 C 
ENDROOT
BRANCH   2   3
ATOM      3  C   UNL     1      52.643  21.308  19.292  0.00  0.00    -0.040 C 
ATOM      4  C   UNL     1      52.801  22.031  20.373  0.00  0.00    +0.001 C 
ENDBRANCH   2   3
BRANCH  17  18
ATOM     18  O   UNL     1      46.472  16.182  15.696  0.00  0.00    -0.562 OA
ATOM     19  H   UNL     1      46.192  17.105  15.622  0.00  0.00    +0.373 HD
ENDBRANCH  17  18
BRANCH  12  13
ATOM     13  C   UNL     1      47.800  14.652  18.804  0.00  0.00    +0.179 C 
BRANCH  13  14
ATOM     14  O   UNL     1      47.054  13.433  18.819  0.00  0.00    -0.575 OA
ATOM     15  H   UNL     1      47.601  12.636  18.781  0.00  0.00    +0.377 HD
ENDBRANCH  13  14
ENDBRANCH  12  13
TORSDOF 4
ENDMDL
