MODEL 1
REMARK VINA RESULT:      -6.0      0.000      0.000
REMARK  Name = ZINC95486095
REMARK  3 active torsions:
REMARK  status: ('A' for Active; 'I' for Inactive)
REMARK    1  A    between atoms: C1_1  and  C2_2
REMARK    2  A    between atoms: C7_7  and  O1_8
REMARK    3  A    between atoms: C8_9  and  C16_19
REMARK                            x       y       z     vdW  Elec       q    Type
REMARK                         _______ _______ _______ _____ _____    ______ ____
ROOT
ATOM      1  C   UNL     1      59.266  30.924   3.271  0.00  0.00    +0.095 C 
ATOM      2  C   UNL     1      57.926  31.536   3.590  0.00  0.00    -0.109 A 
ATOM      3  C   UNL     1      57.831  32.536   4.533  0.00  0.00    +0.017 A 
ATOM      4  C   UNL     1      56.600  33.109   4.838  0.00  0.00    -0.076 A 
ATOM      5  C   UNL     1      55.468  32.665   4.193  0.00  0.00    -0.058 A 
ATOM      6  C   UNL     1      54.097  33.226   4.495  0.00  0.00    -0.015 C 
ATOM      7  C   UNL     1      53.291  33.343   3.201  0.00  0.00    +0.043 C 
ATOM      8  C   UNL     1      53.400  32.270   5.471  0.00  0.00    +0.049 C 
ATOM      9  C   UNL     1      51.998  32.788   5.798  0.00  0.00    +0.020 C 
ATOM     10  C   UNL     1      52.128  34.197   6.337  0.00  0.00    +0.363 C 
ATOM     11  C   UNL     1      52.902  35.198   5.510  0.00  0.00    +0.029 C 
ATOM     12  O   UNL     1      51.629  34.510   7.392  0.00  0.00    -0.455 OA
ATOM     13  C   UNL     1      54.253  34.605   5.132  0.00  0.00    +0.013 C 
ATOM     14  C   UNL     1      55.158  34.475   6.357  0.00  0.00    +0.020 C 
ATOM     15  C   UNL     1      55.559  31.664   3.239  0.00  0.00    -0.006 A 
ATOM     16  C   UNL     1      56.581  34.206   5.870  0.00  0.00    +0.077 C 
ATOM     17  C   UNL     1      56.787  31.100   2.930  0.00  0.00    +0.100 A 
ENDROOT
BRANCH  17  18
ATOM     18  O   UNL     1      56.873  30.122   1.989  0.00  0.00    -0.495 OA
ATOM     19  H   UNL     1      57.389  30.370   1.210  0.00  0.00    +0.388 HD
ENDBRANCH  17  18
TORSDOF 1
ENDMDL
MODEL 2
REMARK VINA RESULT:      -5.5     19.172     20.890
REMARK  Name = ZINC95486095
REMARK  3 active torsions:
REMARK  status: ('A' for Active; 'I' for Inactive)
REMARK    1  A    between atoms: C1_1  and  C2_2
REMARK    2  A    between atoms: C7_7  and  O1_8
REMARK    3  A    between atoms: C8_9  and  C16_19
REMARK                            x       y       z     vdW  Elec       q    Type
REMARK                         _______ _______ _______ _____ _____    ______ ____
ROOT
ATOM      1  C   UNL     1      52.210  18.985  17.233  0.00  0.00    +0.095 C 
ATOM      2  C   UNL     1      50.894  19.338  17.878  0.00  0.00    -0.109 A 
ATOM      3  C   UNL     1      49.888  18.400  17.952  0.00  0.00    +0.017 A 
ATOM      4  C   UNL     1      48.668  18.713  18.543  0.00  0.00    -0.076 A 
ATOM      5  C   UNL     1      48.466  19.976  19.052  0.00  0.00    -0.058 A 
ATOM      6  C   UNL     1      47.156  20.390  19.683  0.00  0.00    -0.015 C 
ATOM      7  C   UNL     1      47.427  21.289  20.890  0.00  0.00    +0.043 C 
ATOM      8  C   UNL     1      46.342  21.147  18.628  0.00  0.00    +0.049 C 
ATOM      9  C   UNL     1      45.008  21.602  19.224  0.00  0.00    +0.020 C 
ATOM     10  C   UNL     1      44.292  20.383  19.765  0.00  0.00    +0.363 C 
ATOM     11  C   UNL     1      45.046  19.492  20.727  0.00  0.00    +0.029 C 
ATOM     12  O   UNL     1      43.156  20.131  19.441  0.00  0.00    -0.455 OA
ATOM     13  C   UNL     1      46.403  19.140  20.131  0.00  0.00    +0.013 C 
ATOM     14  C   UNL     1      46.249  18.209  18.928  0.00  0.00    +0.020 C 
ATOM     15  C   UNL     1      49.478  20.922  18.985  0.00  0.00    -0.006 A 
ATOM     16  C   UNL     1      47.623  17.629  18.597  0.00  0.00    +0.077 C 
ATOM     17  C   UNL     1      50.695  20.606  18.405  0.00  0.00    +0.100 A 
ENDROOT
BRANCH  17  18
ATOM     18  O   UNL     1      51.687  21.534  18.347  0.00  0.00    -0.495 OA
ATOM     19  H   UNL     1      51.390  22.410  18.062  0.00  0.00    +0.388 HD
ENDBRANCH  17  18
TORSDOF 1
ENDMDL
MODEL 3
REMARK VINA RESULT:      -5.4     20.698     22.568
REMARK  Name = ZINC95486095
REMARK  3 active torsions:
REMARK  status: ('A' for Active; 'I' for Inactive)
REMARK    1  A    between atoms: C1_1  and  C2_2
REMARK    2  A    between atoms: C7_7  and  O1_8
REMARK    3  A    between atoms: C8_9  and  C16_19
REMARK                            x       y       z     vdW  Elec       q    Type
REMARK                         _______ _______ _______ _____ _____    ______ ____
ROOT
ATOM      1  C   UNL     1      39.656  21.591  18.385  0.00  0.00    +0.095 C 
ATOM      2  C   UNL     1      41.064  21.240  18.792  0.00  0.00    -0.109 A 
ATOM      3  C   UNL     1      41.965  22.239  19.090  0.00  0.00    +0.017 A 
ATOM      4  C   UNL     1      43.269  21.929  19.464  0.00  0.00    -0.076 A 
ATOM      5  C   UNL     1      43.660  20.611  19.530  0.00  0.00    -0.058 A 
ATOM      6  C   UNL     1      45.067  20.206  19.904  0.00  0.00    -0.015 C 
ATOM      7  C   UNL     1      45.028  18.951  20.778  0.00  0.00    +0.043 C 
ATOM      8  C   UNL     1      45.839  19.927  18.609  0.00  0.00    +0.049 C 
ATOM      9  C   UNL     1      47.271  19.498  18.936  0.00  0.00    +0.020 C 
ATOM     10  C   UNL     1      47.906  20.578  19.785  0.00  0.00    +0.363 C 
ATOM     11  C   UNL     1      47.169  21.019  21.030  0.00  0.00    +0.029 C 
ATOM     12  O   UNL     1      48.966  21.070  19.480  0.00  0.00    -0.455 OA
ATOM     13  C   UNL     1      45.726  21.348  20.673  0.00  0.00    +0.013 C 
ATOM     14  C   UNL     1      45.647  22.616  19.821  0.00  0.00    +0.020 C 
ATOM     15  C   UNL     1      42.755  19.602  19.236  0.00  0.00    -0.006 A 
ATOM     16  C   UNL     1      44.190  23.076  19.788  0.00  0.00    +0.077 C 
ATOM     17  C   UNL     1      41.455  19.912  18.872  0.00  0.00    +0.100 A 
ENDROOT
BRANCH  17  18
ATOM     18  O   UNL     1      40.568  18.920  18.591  0.00  0.00    -0.495 OA
ATOM     19  H   UNL     1      40.889  18.278  17.942  0.00  0.00    +0.388 HD
ENDBRANCH  17  18
TORSDOF 1
ENDMDL
MODEL 4
REMARK VINA RESULT:      -5.4      1.990      3.050
REMARK  Name = ZINC95486095
REMARK  3 active torsions:
REMARK  status: ('A' for Active; 'I' for Inactive)
REMARK    1  A    between atoms: C1_1  and  C2_2
REMARK    2  A    between atoms: C7_7  and  O1_8
REMARK    3  A    between atoms: C8_9  and  C16_19
REMARK                            x       y       z     vdW  Elec       q    Type
REMARK                         _______ _______ _______ _____ _____    ______ ____
ROOT
ATOM      1  C   UNL     1      59.300  32.083   4.007  0.00  0.00    +0.095 C 
ATOM      2  C   UNL     1      57.862  32.439   4.286  0.00  0.00    -0.109 A 
ATOM      3  C   UNL     1      56.867  32.009   3.436  0.00  0.00    +0.017 A 
ATOM      4  C   UNL     1      55.536  32.333   3.681  0.00  0.00    -0.076 A 
ATOM      5  C   UNL     1      55.216  33.096   4.781  0.00  0.00    -0.058 A 
ATOM      6  C   UNL     1      53.794  33.505   5.091  0.00  0.00    -0.015 C 
ATOM      7  C   UNL     1      53.559  33.452   6.601  0.00  0.00    +0.043 C 
ATOM      8  C   UNL     1      53.589  34.933   4.572  0.00  0.00    +0.049 C 
ATOM      9  C   UNL     1      52.165  35.401   4.875  0.00  0.00    +0.020 C 
ATOM     10  C   UNL     1      51.200  34.404   4.268  0.00  0.00    +0.363 C 
ATOM     11  C   UNL     1      51.384  32.944   4.618  0.00  0.00    +0.029 C 
ATOM     12  O   UNL     1      50.314  34.762   3.530  0.00  0.00    -0.455 OA
ATOM     13  C   UNL     1      52.836  32.548   4.387  0.00  0.00    +0.013 C 
ATOM     14  C   UNL     1      53.170  32.536   2.895  0.00  0.00    +0.020 C 
ATOM     15  C   UNL     1      56.213  33.526   5.642  0.00  0.00    -0.006 A 
ATOM     16  C   UNL     1      54.505  31.814   2.713  0.00  0.00    +0.077 C 
ATOM     17  C   UNL     1      57.537  33.196   5.402  0.00  0.00    +0.100 A 
ENDROOT
BRANCH  17  18
ATOM     18  O   UNL     1      58.512  33.615   6.253  0.00  0.00    -0.495 OA
ATOM     19  H   UNL     1      58.250  34.355   6.817  0.00  0.00    +0.388 HD
ENDBRANCH  17  18
TORSDOF 1
ENDMDL
MODEL 5
REMARK VINA RESULT:      -5.4     22.251     24.604
REMARK  Name = ZINC95486095
REMARK  3 active torsions:
REMARK  status: ('A' for Active; 'I' for Inactive)
REMARK    1  A    between atoms: C1_1  and  C2_2
REMARK    2  A    between atoms: C7_7  and  O1_8
REMARK    3  A    between atoms: C8_9  and  C16_19
REMARK                            x       y       z     vdW  Elec       q    Type
REMARK                         _______ _______ _______ _____ _____    ______ ____
ROOT
ATOM      1  C   UNL     1      40.363  20.797  19.251  0.00  0.00    +0.095 C 
ATOM      2  C   UNL     1      41.572  20.004  19.678  0.00  0.00    -0.109 A 
ATOM      3  C   UNL     1      42.708  20.006  18.898  0.00  0.00    +0.017 A 
ATOM      4  C   UNL     1      43.830  19.277  19.279  0.00  0.00    -0.076 A 
ATOM      5  C   UNL     1      43.799  18.543  20.443  0.00  0.00    -0.058 A 
ATOM      6  C   UNL     1      44.973  17.709  20.901  0.00  0.00    -0.015 C 
ATOM      7  C   UNL     1      45.111  17.804  22.421  0.00  0.00    +0.043 C 
ATOM      8  C   UNL     1      44.714  16.257  20.481  0.00  0.00    +0.049 C 
ATOM      9  C   UNL     1      45.872  15.367  20.936  0.00  0.00    +0.020 C 
ATOM     10  C   UNL     1      47.155  15.931  20.365  0.00  0.00    +0.363 C 
ATOM     11  C   UNL     1      47.456  17.391  20.617  0.00  0.00    +0.029 C 
ATOM     12  O   UNL     1      47.914  15.238  19.730  0.00  0.00    -0.455 OA
ATOM     13  C   UNL     1      46.244  18.230  20.235  0.00  0.00    +0.013 C 
ATOM     14  C   UNL     1      46.033  18.231  18.721  0.00  0.00    +0.020 C 
ATOM     15  C   UNL     1      42.659  18.543  21.234  0.00  0.00    -0.006 A 
ATOM     16  C   UNL     1      45.038  19.341  18.381  0.00  0.00    +0.077 C 
ATOM     17  C   UNL     1      41.546  19.276  20.858  0.00  0.00    +0.100 A 
ENDROOT
BRANCH  17  18
ATOM     18  O   UNL     1      40.433  19.278  21.639  0.00  0.00    -0.495 OA
ATOM     19  H   UNL     1      40.000  20.140  21.704  0.00  0.00    +0.388 HD
ENDBRANCH  17  18
TORSDOF 1
ENDMDL
MODEL 6
REMARK VINA RESULT:      -5.3     18.960     21.101
REMARK  Name = ZINC95486095
REMARK  3 active torsions:
REMARK  status: ('A' for Active; 'I' for Inactive)
REMARK    1  A    between atoms: C1_1  and  C2_2
REMARK    2  A    between atoms: C7_7  and  O1_8
REMARK    3  A    between atoms: C8_9  and  C16_19
REMARK                            x       y       z     vdW  Elec       q    Type
REMARK                         _______ _______ _______ _____ _____    ______ ____
ROOT
ATOM      1  C   UNL     1      44.617  22.661  21.353  0.00  0.00    +0.095 C 
ATOM      2  C   UNL     1      45.837  21.972  20.798  0.00  0.00    -0.109 A 
ATOM      3  C   UNL     1      46.996  21.916  21.540  0.00  0.00    +0.017 A 
ATOM      4  C   UNL     1      48.130  21.285  21.038  0.00  0.00    -0.076 A 
ATOM      5  C   UNL     1      48.091  20.719  19.784  0.00  0.00    -0.058 A 
ATOM      6  C   UNL     1      49.294  20.042  19.168  0.00  0.00    -0.015 C 
ATOM      7  C   UNL     1      48.847  18.805  18.389  0.00  0.00    +0.043 C 
ATOM      8  C   UNL     1      49.972  21.046  18.229  0.00  0.00    +0.049 C 
ATOM      9  C   UNL     1      51.192  20.402  17.567  0.00  0.00    +0.020 C 
ATOM     10  C   UNL     1      52.110  19.896  18.659  0.00  0.00    +0.363 C 
ATOM     11  C   UNL     1      51.517  18.990  19.715  0.00  0.00    +0.029 C 
ATOM     12  O   UNL     1      53.278  20.206  18.687  0.00  0.00    -0.455 OA
ATOM     13  C   UNL     1      50.256  19.630  20.280  0.00  0.00    +0.013 C 
ATOM     14  C   UNL     1      50.595  20.867  21.112  0.00  0.00    +0.020 C 
ATOM     15  C   UNL     1      46.925  20.769  19.035  0.00  0.00    -0.006 A 
ATOM     16  C   UNL     1      49.353  21.253  21.916  0.00  0.00    +0.077 C 
ATOM     17  C   UNL     1      45.794  21.389  19.540  0.00  0.00    +0.100 A 
ENDROOT
BRANCH  17  18
ATOM     18  O   UNL     1      44.651  21.430  18.805  0.00  0.00    -0.495 OA
ATOM     19  H   UNL     1      43.844  21.477  19.335  0.00  0.00    +0.388 HD
ENDBRANCH  17  18
TORSDOF 1
ENDMDL
MODEL 7
REMARK VINA RESULT:      -5.3     21.224     23.584
REMARK  Name = ZINC95486095
REMARK  3 active torsions:
REMARK  status: ('A' for Active; 'I' for Inactive)
REMARK    1  A    between atoms: C1_1  and  C2_2
REMARK    2  A    between atoms: C7_7  and  O1_8
REMARK    3  A    between atoms: C8_9  and  C16_19
REMARK                            x       y       z     vdW  Elec       q    Type
REMARK                         _______ _______ _______ _____ _____    ______ ____
ROOT
ATOM      1  C   UNL     1      44.695  23.983  19.464  0.00  0.00    +0.095 C 
ATOM      2  C   UNL     1      44.919  22.553  19.882  0.00  0.00    -0.109 A 
ATOM      3  C   UNL     1      45.351  21.624  18.961  0.00  0.00    +0.017 A 
ATOM      4  C   UNL     1      45.559  20.299  19.332  0.00  0.00    -0.076 A 
ATOM      5  C   UNL     1      45.324  19.916  20.634  0.00  0.00    -0.058 A 
ATOM      6  C   UNL     1      45.505  18.489  21.098  0.00  0.00    -0.015 C 
ATOM      7  C   UNL     1      46.103  18.477  22.505  0.00  0.00    +0.043 C 
ATOM      8  C   UNL     1      44.128  17.814  21.100  0.00  0.00    +0.049 C 
ATOM      9  C   UNL     1      44.256  16.367  21.578  0.00  0.00    +0.020 C 
ATOM     10  C   UNL     1      45.262  15.663  20.692  0.00  0.00    +0.363 C 
ATOM     11  C   UNL     1      46.620  16.305  20.521  0.00  0.00    +0.029 C 
ATOM     12  O   UNL     1      44.989  14.623  20.141  0.00  0.00    -0.455 OA
ATOM     13  C   UNL     1      46.443  17.767  20.134  0.00  0.00    +0.013 C 
ATOM     14  C   UNL     1      45.877  17.896  18.719  0.00  0.00    +0.020 C 
ATOM     15  C   UNL     1      44.895  20.849  21.566  0.00  0.00    -0.006 A 
ATOM     16  C   UNL     1      46.044  19.347  18.271  0.00  0.00    +0.077 C 
ATOM     17  C   UNL     1      44.697  22.169  21.196  0.00  0.00    +0.100 A 
ENDROOT
BRANCH  17  18
ATOM     18  O   UNL     1      44.282  23.082  22.115  0.00  0.00    -0.495 OA
ATOM     19  H   UNL     1      44.456  22.825  23.031  0.00  0.00    +0.388 HD
ENDBRANCH  17  18
TORSDOF 1
ENDMDL
MODEL 8
REMARK VINA RESULT:      -5.3     19.240     20.826
REMARK  Name = ZINC95486095
REMARK  3 active torsions:
REMARK  status: ('A' for Active; 'I' for Inactive)
REMARK    1  A    between atoms: C1_1  and  C2_2
REMARK    2  A    between atoms: C7_7  and  O1_8
REMARK    3  A    between atoms: C8_9  and  C16_19
REMARK                            x       y       z     vdW  Elec       q    Type
REMARK                         _______ _______ _______ _____ _____    ______ ____
ROOT
ATOM      1  C   UNL     1      52.043  18.859  15.711  0.00  0.00    +0.095 C 
ATOM      2  C   UNL     1      51.096  19.169  16.842  0.00  0.00    -0.109 A 
ATOM      3  C   UNL     1      50.182  18.224  17.255  0.00  0.00    +0.017 A 
ATOM      4  C   UNL     1      49.300  18.497  18.296  0.00  0.00    -0.076 A 
ATOM      5  C   UNL     1      49.341  19.727  18.913  0.00  0.00    -0.058 A 
ATOM      6  C   UNL     1      48.395  20.099  20.032  0.00  0.00    -0.015 C 
ATOM      7  C   UNL     1      49.138  20.926  21.082  0.00  0.00    +0.043 C 
ATOM      8  C   UNL     1      47.246  20.915  19.428  0.00  0.00    +0.049 C 
ATOM      9  C   UNL     1      46.265  21.329  20.527  0.00  0.00    +0.020 C 
ATOM     10  C   UNL     1      45.796  20.077  21.238  0.00  0.00    +0.363 C 
ATOM     11  C   UNL     1      46.850  19.134  21.772  0.00  0.00    +0.029 C 
ATOM     12  O   UNL     1      44.619  19.841  21.374  0.00  0.00    -0.455 OA
ATOM     13  C   UNL     1      47.854  18.822  20.670  0.00  0.00    +0.013 C 
ATOM     14  C   UNL     1      47.219  17.963  19.576  0.00  0.00    +0.020 C 
ATOM     15  C   UNL     1      50.263  20.679  18.505  0.00  0.00    -0.006 A 
ATOM     16  C   UNL     1      48.340  17.408  18.697  0.00  0.00    +0.077 C 
ATOM     17  C   UNL     1      51.146  20.402  17.474  0.00  0.00    +0.100 A 
ENDROOT
BRANCH  17  18
ATOM     18  O   UNL     1      52.053  21.336  17.081  0.00  0.00    -0.495 OA
ATOM     19  H   UNL     1      51.662  22.185  16.833  0.00  0.00    +0.388 HD
ENDBRANCH  17  18
TORSDOF 1
ENDMDL
MODEL 9
REMARK VINA RESULT:      -5.1     19.739     21.234
REMARK  Name = ZINC95486095
REMARK  3 active torsions:
REMARK  status: ('A' for Active; 'I' for Inactive)
REMARK    1  A    between atoms: C1_1  and  C2_2
REMARK    2  A    between atoms: C7_7  and  O1_8
REMARK    3  A    between atoms: C8_9  and  C16_19
REMARK                            x       y       z     vdW  Elec       q    Type
REMARK                         _______ _______ _______ _____ _____    ______ ____
ROOT
ATOM      1  C   UNL     1      52.818  19.964  18.184  0.00  0.00    +0.095 C 
ATOM      2  C   UNL     1      51.384  19.501  18.217  0.00  0.00    -0.109 A 
ATOM      3  C   UNL     1      50.424  20.273  18.834  0.00  0.00    +0.017 A 
ATOM      4  C   UNL     1      49.097  19.857  18.874  0.00  0.00    -0.076 A 
ATOM      5  C   UNL     1      48.745  18.659  18.295  0.00  0.00    -0.058 A 
ATOM      6  C   UNL     1      47.327  18.135  18.325  0.00  0.00    -0.015 C 
ATOM      7  C   UNL     1      46.998  17.460  16.993  0.00  0.00    +0.043 C 
ATOM      8  C   UNL     1      47.221  17.125  19.473  0.00  0.00    +0.049 C 
ATOM      9  C   UNL     1      45.803  16.554  19.536  0.00  0.00    +0.020 C 
ATOM     10  C   UNL     1      44.833  17.708  19.669  0.00  0.00    +0.363 C 
ATOM     11  C   UNL     1      44.928  18.827  18.656  0.00  0.00    +0.029 C 
ATOM     12  O   UNL     1      44.011  17.735  20.554  0.00  0.00    -0.455 OA
ATOM     13  C   UNL     1      46.371  19.302  18.561  0.00  0.00    +0.013 C 
ATOM     14  C   UNL     1      46.796  20.027  19.839  0.00  0.00    +0.020 C 
ATOM     15  C   UNL     1      49.707  17.881  17.668  0.00  0.00    -0.006 A 
ATOM     16  C   UNL     1      48.104  20.763  19.555  0.00  0.00    +0.077 C 
ATOM     17  C   UNL     1      51.026  18.301  17.621  0.00  0.00    +0.100 A 
ENDROOT
BRANCH  17  18
ATOM     18  O   UNL     1      51.965  17.538  17.000  0.00  0.00    -0.495 OA
ATOM     19  H   UNL     1      51.763  16.593  16.995  0.00  0.00    +0.388 HD
ENDBRANCH  17  18
TORSDOF 1
ENDMDL
