MODEL 1
REMARK VINA RESULT:      -6.0      0.000      0.000
REMARK  Name = ZINC14645888
REMARK  8 active torsions:
REMARK  status: ('A' for Active; 'I' for Inactive)
REMARK    1  A    between atoms: C1_1  and  O1_2
REMARK    2  A    between atoms: O1_2  and  C2_3
REMARK    3  A    between atoms: C4_5  and  O7_24
REMARK    4  A    between atoms: C7_9  and  C11_15
REMARK    5  A    between atoms: C10_13  and  O4_14
REMARK    6  A    between atoms: C15_19  and  O6_23
REMARK    7  A    between atoms: C16_20  and  O5_21
REMARK    8  A    between atoms: O5_21  and  C17_22
REMARK                            x       y       z     vdW  Elec       q    Type
REMARK                         _______ _______ _______ _____ _____    ______ ____
ROOT
ATOM      3  C   UNL     1      46.238  13.966  18.156  0.00  0.00    +0.185 A 
ATOM      4  C   UNL     1      46.710  14.787  17.138  0.00  0.00    -0.102 A 
ATOM      5  C   UNL     1      46.577  16.158  17.234  0.00  0.00    +0.237 A 
ATOM      8  C   UNL     1      45.951  16.715  18.357  0.00  0.00    -0.274 A 
ATOM      9  C   UNL     1      45.783  18.170  18.495  0.00  0.00    +0.434 A 
ATOM     10  C   UNL     1      45.112  18.650  19.716  0.00  0.00    -0.234 A 
ATOM     21  C   UNL     1      44.692  17.738  20.630  0.00  0.00    +0.330 A 
ATOM     22  O   UNL     1      44.866  16.424  20.466  0.00  0.00    -0.207 OA
ATOM     23  O   UNL     1      46.182  18.943  17.639  0.00  0.00    -0.425 OA
ATOM     24  C   UNL     1      45.468  15.886  19.386  0.00  0.00    +0.175 A 
ATOM     25  C   UNL     1      45.617  14.508  19.273  0.00  0.00    +0.038 A 
ENDROOT
BRANCH  10  11
ATOM     11  C   UNL     1      44.898  20.100  19.941  0.00  0.00    -0.034 A 
ATOM     12  C   UNL     1      45.848  20.848  20.635  0.00  0.00    +0.030 A 
ATOM     13  C   UNL     1      45.649  22.198  20.838  0.00  0.00    +0.028 A 
ATOM     14  C   UNL     1      44.503  22.814  20.366  0.00  0.00    +0.010 A 
ATOM     15  C   UNL     1      43.549  22.079  19.679  0.00  0.00    +0.088 A 
ATOM     18  C   UNL     1      43.741  20.720  19.464  0.00  0.00    +0.098 A 
BRANCH  15  16
ATOM     16  O   UNL     1      42.424  22.689  19.216  0.00  0.00    -0.484 OA
ATOM     17  H   UNL     1      42.357  23.624  19.455  0.00  0.00    +0.387 HD
ENDBRANCH  15  16
BRANCH  18  19
ATOM     19  O   UNL     1      42.807  19.996  18.791  0.00  0.00    -0.317 OA
ATOM     20  C   UNL     1      41.652  19.587  19.525  0.00  0.00    +0.219 C 
ENDBRANCH  18  19
ENDBRANCH  10  11
BRANCH   3   2
ATOM      1  C   UNL     1      45.844  11.997  16.884  0.00  0.00    +0.256 C 
ATOM      2  O   UNL     1      46.380  12.618  18.055  0.00  0.00    -0.293 OA
ENDBRANCH   3   2
BRANCH   5   6
ATOM      6  O   UNL     1      47.043  16.962  16.244  0.00  0.00    -0.472 OA
ATOM      7  H   UNL     1      47.688  17.618  16.541  0.00  0.00    +0.405 HD
ENDBRANCH   5   6
BRANCH  25  26
ATOM     26  O   UNL     1      45.155  13.691  20.259  0.00  0.00    -0.466 OA
ATOM     27  H   UNL     1      45.704  12.910  20.413  0.00  0.00    +0.388 HD
ENDBRANCH  25  26
TORSDOF 6
ENDMDL
MODEL 2
REMARK VINA RESULT:      -6.0      0.939      2.338
REMARK  Name = ZINC14645888
REMARK  8 active torsions:
REMARK  status: ('A' for Active; 'I' for Inactive)
REMARK    1  A    between atoms: C1_1  and  O1_2
REMARK    2  A    between atoms: O1_2  and  C2_3
REMARK    3  A    between atoms: C4_5  and  O7_24
REMARK    4  A    between atoms: C7_9  and  C11_15
REMARK    5  A    between atoms: C10_13  and  O4_14
REMARK    6  A    between atoms: C15_19  and  O6_23
REMARK    7  A    between atoms: C16_20  and  O5_21
REMARK    8  A    between atoms: O5_21  and  C17_22
REMARK                            x       y       z     vdW  Elec       q    Type
REMARK                         _______ _______ _______ _____ _____    ______ ____
ROOT
ATOM      3  C   UNL     1      46.183  14.295  18.023  0.00  0.00    +0.185 A 
ATOM      4  C   UNL     1      45.607  14.285  19.288  0.00  0.00    -0.102 A 
ATOM      5  C   UNL     1      45.343  15.474  19.940  0.00  0.00    +0.237 A 
ATOM      8  C   UNL     1      45.671  16.688  19.324  0.00  0.00    -0.274 A 
ATOM      9  C   UNL     1      45.413  17.976  19.988  0.00  0.00    +0.434 A 
ATOM     10  C   UNL     1      45.797  19.193  19.250  0.00  0.00    -0.234 A 
ATOM     21  C   UNL     1      46.358  19.061  18.021  0.00  0.00    +0.330 A 
ATOM     22  O   UNL     1      46.574  17.871  17.454  0.00  0.00    -0.207 OA
ATOM     23  O   UNL     1      44.904  18.033  21.095  0.00  0.00    -0.425 OA
ATOM     24  C   UNL     1      46.259  16.701  18.046  0.00  0.00    +0.175 A 
ATOM     25  C   UNL     1      46.511  15.493  17.403  0.00  0.00    +0.038 A 
ENDROOT
BRANCH  10  11
ATOM     11  C   UNL     1      45.575  20.535  19.840  0.00  0.00    -0.034 A 
ATOM     12  C   UNL     1      46.571  21.136  20.608  0.00  0.00    +0.030 A 
ATOM     13  C   UNL     1      46.364  22.387  21.151  0.00  0.00    +0.028 A 
ATOM     14  C   UNL     1      45.165  23.047  20.946  0.00  0.00    +0.010 A 
ATOM     15  C   UNL     1      44.165  22.458  20.187  0.00  0.00    +0.088 A 
ATOM     18  C   UNL     1      44.364  21.200  19.631  0.00  0.00    +0.098 A 
BRANCH  15  16
ATOM     16  O   UNL     1      42.988  23.111  19.988  0.00  0.00    -0.484 OA
ATOM     17  H   UNL     1      42.206  22.594  20.227  0.00  0.00    +0.387 HD
ENDBRANCH  15  16
BRANCH  18  19
ATOM     19  O   UNL     1      43.386  20.619  18.888  0.00  0.00    -0.317 OA
ATOM     20  C   UNL     1      42.324  19.980  19.599  0.00  0.00    +0.219 C 
ENDBRANCH  18  19
ENDBRANCH  10  11
BRANCH   3   2
ATOM      1  C   UNL     1      45.313  12.263  17.146  0.00  0.00    +0.256 C 
ATOM      2  O   UNL     1      46.432  13.120  17.387  0.00  0.00    -0.293 OA
ENDBRANCH   3   2
BRANCH   5   6
ATOM      6  O   UNL     1      44.775  15.466  21.173  0.00  0.00    -0.472 OA
ATOM      7  H   UNL     1      45.317  15.042  21.853  0.00  0.00    +0.405 HD
ENDBRANCH   5   6
BRANCH  25  26
ATOM     26  O   UNL     1      47.080  15.487  16.166  0.00  0.00    -0.466 OA
ATOM     27  H   UNL     1      48.032  15.659  16.169  0.00  0.00    +0.388 HD
ENDBRANCH  25  26
TORSDOF 6
ENDMDL
MODEL 3
REMARK VINA RESULT:      -5.5      2.870      4.502
REMARK  Name = ZINC14645888
REMARK  8 active torsions:
REMARK  status: ('A' for Active; 'I' for Inactive)
REMARK    1  A    between atoms: C1_1  and  O1_2
REMARK    2  A    between atoms: O1_2  and  C2_3
REMARK    3  A    between atoms: C4_5  and  O7_24
REMARK    4  A    between atoms: C7_9  and  C11_15
REMARK    5  A    between atoms: C10_13  and  O4_14
REMARK    6  A    between atoms: C15_19  and  O6_23
REMARK    7  A    between atoms: C16_20  and  O5_21
REMARK    8  A    between atoms: O5_21  and  C17_22
REMARK                            x       y       z     vdW  Elec       q    Type
REMARK                         _______ _______ _______ _____ _____    ______ ____
ROOT
ATOM      3  C   UNL     1      50.395  18.364  17.632  0.00  0.00    +0.185 A 
ATOM      4  C   UNL     1      49.556  17.523  16.909  0.00  0.00    -0.102 A 
ATOM      5  C   UNL     1      48.239  17.360  17.292  0.00  0.00    +0.237 A 
ATOM      8  C   UNL     1      47.758  18.038  18.419  0.00  0.00    -0.274 A 
ATOM      9  C   UNL     1      46.364  17.886  18.864  0.00  0.00    +0.434 A 
ATOM     10  C   UNL     1      45.962  18.644  20.063  0.00  0.00    -0.234 A 
ATOM     21  C   UNL     1      46.884  19.425  20.679  0.00  0.00    +0.330 A 
ATOM     22  O   UNL     1      48.141  19.535  20.242  0.00  0.00    -0.207 OA
ATOM     23  O   UNL     1      45.578  17.169  18.268  0.00  0.00    -0.425 OA
ATOM     24  C   UNL     1      48.606  18.884  19.156  0.00  0.00    +0.175 A 
ATOM     25  C   UNL     1      49.928  19.040  18.751  0.00  0.00    +0.038 A 
ENDROOT
BRANCH  10  11
ATOM     11  C   UNL     1      44.577  18.554  20.585  0.00  0.00    -0.034 A 
ATOM     12  C   UNL     1      44.254  17.605  21.554  0.00  0.00    +0.030 A 
ATOM     13  C   UNL     1      42.966  17.527  22.042  0.00  0.00    +0.028 A 
ATOM     14  C   UNL     1      41.986  18.380  21.565  0.00  0.00    +0.010 A 
ATOM     15  C   UNL     1      42.294  19.324  20.598  0.00  0.00    +0.088 A 
ATOM     18  C   UNL     1      43.589  19.416  20.103  0.00  0.00    +0.098 A 
BRANCH  15  16
ATOM     16  O   UNL     1      41.327  20.161  20.133  0.00  0.00    -0.484 OA
ATOM     17  H   UNL     1      41.668  20.915  19.632  0.00  0.00    +0.387 HD
ENDBRANCH  15  16
BRANCH  18  19
ATOM     19  O   UNL     1      43.894  20.340  19.154  0.00  0.00    -0.317 OA
ATOM     20  C   UNL     1      44.156  21.670  19.606  0.00  0.00    +0.219 C 
ENDBRANCH  18  19
ENDBRANCH  10  11
BRANCH   3   2
ATOM      1  C   UNL     1      51.923  19.338  16.094  0.00  0.00    +0.256 C 
ATOM      2  O   UNL     1      51.688  18.522  17.244  0.00  0.00    -0.293 OA
ENDBRANCH   3   2
BRANCH   5   6
ATOM      6  O   UNL     1      47.417  16.545  16.583  0.00  0.00    -0.472 OA
ATOM      7  H   UNL     1      46.476  16.708  16.733  0.00  0.00    +0.405 HD
ENDBRANCH   5   6
BRANCH  25  26
ATOM     26  O   UNL     1      50.763  19.854  19.452  0.00  0.00    -0.466 OA
ATOM     27  H   UNL     1      50.520  19.960  20.383  0.00  0.00    +0.388 HD
ENDBRANCH  25  26
TORSDOF 6
ENDMDL
MODEL 4
REMARK VINA RESULT:      -5.4      2.966      4.841
REMARK  Name = ZINC14645888
REMARK  8 active torsions:
REMARK  status: ('A' for Active; 'I' for Inactive)
REMARK    1  A    between atoms: C1_1  and  O1_2
REMARK    2  A    between atoms: O1_2  and  C2_3
REMARK    3  A    between atoms: C4_5  and  O7_24
REMARK    4  A    between atoms: C7_9  and  C11_15
REMARK    5  A    between atoms: C10_13  and  O4_14
REMARK    6  A    between atoms: C15_19  and  O6_23
REMARK    7  A    between atoms: C16_20  and  O5_21
REMARK    8  A    between atoms: O5_21  and  C17_22
REMARK                            x       y       z     vdW  Elec       q    Type
REMARK                         _______ _______ _______ _____ _____    ______ ____
ROOT
ATOM      3  C   UNL     1      50.417  18.813  18.023  0.00  0.00    +0.185 A 
ATOM      4  C   UNL     1      49.749  17.741  17.441  0.00  0.00    -0.102 A 
ATOM      5  C   UNL     1      48.383  17.609  17.595  0.00  0.00    +0.237 A 
ATOM      8  C   UNL     1      47.677  18.554  18.350  0.00  0.00    -0.274 A 
ATOM      9  C   UNL     1      46.223  18.446  18.542  0.00  0.00    +0.434 A 
ATOM     10  C   UNL     1      45.579  19.494  19.355  0.00  0.00    -0.234 A 
ATOM     21  C   UNL     1      46.351  20.484  19.871  0.00  0.00    +0.330 A 
ATOM     22  O   UNL     1      47.670  20.545  19.671  0.00  0.00    -0.207 OA
ATOM     23  O   UNL     1      45.580  17.532  18.052  0.00  0.00    -0.425 OA
ATOM     24  C   UNL     1      48.351  19.636  18.944  0.00  0.00    +0.175 A 
ATOM     25  C   UNL     1      49.727  19.755  18.773  0.00  0.00    +0.038 A 
ENDROOT
BRANCH  10  11
ATOM     11  C   UNL     1      44.118  19.467  19.603  0.00  0.00    -0.034 A 
ATOM     12  C   UNL     1      43.251  20.151  18.752  0.00  0.00    +0.030 A 
ATOM     13  C   UNL     1      41.890  20.120  18.982  0.00  0.00    +0.028 A 
ATOM     14  C   UNL     1      41.381  19.422  20.063  0.00  0.00    +0.010 A 
ATOM     15  C   UNL     1      42.234  18.742  20.919  0.00  0.00    +0.088 A 
ATOM     18  C   UNL     1      43.605  18.762  20.695  0.00  0.00    +0.098 A 
BRANCH  15  16
ATOM     16  O   UNL     1      41.729  18.057  21.980  0.00  0.00    -0.484 OA
ATOM     17  H   UNL     1      41.964  18.433  22.840  0.00  0.00    +0.387 HD
ENDBRANCH  15  16
BRANCH  18  19
ATOM     19  O   UNL     1      44.445  18.098  21.533  0.00  0.00    -0.317 OA
ATOM     20  C   UNL     1      44.572  16.688  21.338  0.00  0.00    +0.219 C 
ENDBRANCH  18  19
ENDBRANCH  10  11
BRANCH   3   2
ATOM      1  C   UNL     1      52.216  19.483  16.620  0.00  0.00    +0.256 C 
ATOM      2  O   UNL     1      51.761  18.937  17.861  0.00  0.00    -0.293 OA
ENDBRANCH   3   2
BRANCH   5   6
ATOM      6  O   UNL     1      47.728  16.566  17.022  0.00  0.00    -0.472 OA
ATOM      7  H   UNL     1      47.427  16.739  16.120  0.00  0.00    +0.405 HD
ENDBRANCH   5   6
BRANCH  25  26
ATOM     26  O   UNL     1      50.395  20.796  19.341  0.00  0.00    -0.466 OA
ATOM     27  H   UNL     1      50.371  21.611  18.821  0.00  0.00    +0.388 HD
ENDBRANCH  25  26
TORSDOF 6
ENDMDL
MODEL 5
REMARK VINA RESULT:      -5.3      3.734      6.654
REMARK  Name = ZINC14645888
REMARK  8 active torsions:
REMARK  status: ('A' for Active; 'I' for Inactive)
REMARK    1  A    between atoms: C1_1  and  O1_2
REMARK    2  A    between atoms: O1_2  and  C2_3
REMARK    3  A    between atoms: C4_5  and  O7_24
REMARK    4  A    between atoms: C7_9  and  C11_15
REMARK    5  A    between atoms: C10_13  and  O4_14
REMARK    6  A    between atoms: C15_19  and  O6_23
REMARK    7  A    between atoms: C16_20  and  O5_21
REMARK    8  A    between atoms: O5_21  and  C17_22
REMARK                            x       y       z     vdW  Elec       q    Type
REMARK                         _______ _______ _______ _____ _____    ______ ____
ROOT
ATOM      3  C   UNL     1      43.184  20.707  19.193  0.00  0.00    +0.185 A 
ATOM      4  C   UNL     1      43.653  19.652  18.419  0.00  0.00    -0.102 A 
ATOM      5  C   UNL     1      45.004  19.366  18.381  0.00  0.00    +0.237 A 
ATOM      8  C   UNL     1      45.898  20.154  19.117  0.00  0.00    -0.274 A 
ATOM      9  C   UNL     1      47.345  19.887  19.097  0.00  0.00    +0.434 A 
ATOM     10  C   UNL     1      48.197  20.776  19.907  0.00  0.00    -0.234 A 
ATOM     21  C   UNL     1      47.609  21.776  20.613  0.00  0.00    +0.330 A 
ATOM     22  O   UNL     1      46.290  21.983  20.603  0.00  0.00    -0.207 OA
ATOM     23  O   UNL     1      47.817  18.972  18.443  0.00  0.00    -0.425 OA
ATOM     24  C   UNL     1      45.427  21.226  19.895  0.00  0.00    +0.175 A 
ATOM     25  C   UNL     1      44.062  21.494  19.926  0.00  0.00    +0.038 A 
ENDROOT
BRANCH  10  11
ATOM     11  C   UNL     1      49.666  20.584  19.949  0.00  0.00    -0.034 A 
ATOM     12  C   UNL     1      50.475  21.151  18.966  0.00  0.00    +0.030 A 
ATOM     13  C   UNL     1      51.843  20.976  19.011  0.00  0.00    +0.028 A 
ATOM     14  C   UNL     1      52.418  20.227  20.023  0.00  0.00    +0.010 A 
ATOM     15  C   UNL     1      51.623  19.653  21.004  0.00  0.00    +0.088 A 
ATOM     18  C   UNL     1      50.245  19.828  20.972  0.00  0.00    +0.098 A 
BRANCH  15  16
ATOM     16  O   UNL     1      52.192  18.918  21.997  0.00  0.00    -0.484 OA
ATOM     17  H   UNL     1      52.630  18.113  21.689  0.00  0.00    +0.387 HD
ENDBRANCH  15  16
BRANCH  18  19
ATOM     19  O   UNL     1      49.462  19.267  21.932  0.00  0.00    -0.317 OA
ATOM     20  C   UNL     1      49.073  17.906  21.736  0.00  0.00    +0.219 C 
ENDBRANCH  18  19
ENDBRANCH  10  11
BRANCH   3   2
ATOM      1  C   UNL     1      41.010  20.193  18.379  0.00  0.00    +0.256 C 
ATOM      2  O   UNL     1      41.853  20.976  19.229  0.00  0.00    -0.293 OA
ENDBRANCH   3   2
BRANCH   5   6
ATOM      6  O   UNL     1      45.463  18.332  17.630  0.00  0.00    -0.472 OA
ATOM      7  H   UNL     1      44.835  17.602  17.539  0.00  0.00    +0.405 HD
ENDBRANCH   5   6
BRANCH  25  26
ATOM     26  O   UNL     1      43.589  22.527  20.674  0.00  0.00    -0.466 OA
ATOM     27  H   UNL     1      43.876  23.399  20.369  0.00  0.00    +0.388 HD
ENDBRANCH  25  26
TORSDOF 6
ENDMDL
MODEL 6
REMARK VINA RESULT:      -5.3      1.695      3.274
REMARK  Name = ZINC14645888
REMARK  8 active torsions:
REMARK  status: ('A' for Active; 'I' for Inactive)
REMARK    1  A    between atoms: C1_1  and  O1_2
REMARK    2  A    between atoms: O1_2  and  C2_3
REMARK    3  A    between atoms: C4_5  and  O7_24
REMARK    4  A    between atoms: C7_9  and  C11_15
REMARK    5  A    between atoms: C10_13  and  O4_14
REMARK    6  A    between atoms: C15_19  and  O6_23
REMARK    7  A    between atoms: C16_20  and  O5_21
REMARK    8  A    between atoms: O5_21  and  C17_22
REMARK                            x       y       z     vdW  Elec       q    Type
REMARK                         _______ _______ _______ _____ _____    ______ ____
ROOT
ATOM      3  C   UNL     1      46.143  14.447  18.171  0.00  0.00    +0.185 A 
ATOM      4  C   UNL     1      45.536  14.449  19.422  0.00  0.00    -0.102 A 
ATOM      5  C   UNL     1      45.229  15.644  20.043  0.00  0.00    +0.237 A 
ATOM      8  C   UNL     1      45.542  16.853  19.409  0.00  0.00    -0.274 A 
ATOM      9  C   UNL     1      45.237  18.147  20.040  0.00  0.00    +0.434 A 
ATOM     10  C   UNL     1      45.610  19.358  19.286  0.00  0.00    -0.234 A 
ATOM     21  C   UNL     1      46.203  19.215  18.074  0.00  0.00    +0.330 A 
ATOM     22  O   UNL     1      46.462  18.020  17.537  0.00  0.00    -0.207 OA
ATOM     23  O   UNL     1      44.700  18.214  21.133  0.00  0.00    -0.425 OA
ATOM     24  C   UNL     1      46.161  16.854  18.146  0.00  0.00    +0.175 A 
ATOM     25  C   UNL     1      46.457  15.640  17.534  0.00  0.00    +0.038 A 
ENDROOT
BRANCH  10  11
ATOM     11  C   UNL     1      45.341  20.706  19.842  0.00  0.00    -0.034 A 
ATOM     12  C   UNL     1      44.200  21.408  19.455  0.00  0.00    +0.030 A 
ATOM     13  C   UNL     1      43.950  22.660  19.978  0.00  0.00    +0.028 A 
ATOM     14  C   UNL     1      44.833  23.230  20.878  0.00  0.00    +0.010 A 
ATOM     15  C   UNL     1      45.973  22.544  21.267  0.00  0.00    +0.088 A 
ATOM     18  C   UNL     1      46.233  21.280  20.751  0.00  0.00    +0.098 A 
BRANCH  15  16
ATOM     16  O   UNL     1      46.838  23.108  22.153  0.00  0.00    -0.484 OA
ATOM     17  H   UNL     1      47.701  22.672  22.191  0.00  0.00    +0.387 HD
ENDBRANCH  15  16
BRANCH  18  19
ATOM     19  O   UNL     1      47.351  20.604  21.129  0.00  0.00    -0.317 OA
ATOM     20  C   UNL     1      48.554  20.891  20.414  0.00  0.00    +0.219 C 
ENDBRANCH  18  19
ENDBRANCH  10  11
BRANCH   3   2
ATOM      1  C   UNL     1      45.336  12.409  17.251  0.00  0.00    +0.256 C 
ATOM      2  O   UNL     1      46.436  13.267  17.566  0.00  0.00    -0.293 OA
ENDBRANCH   3   2
BRANCH   5   6
ATOM      6  O   UNL     1      44.631  15.647  21.262  0.00  0.00    -0.472 OA
ATOM      7  H   UNL     1      43.773  16.093  21.278  0.00  0.00    +0.405 HD
ENDBRANCH   5   6
BRANCH  25  26
ATOM     26  O   UNL     1      47.056  15.623  16.312  0.00  0.00    -0.466 OA
ATOM     27  H   UNL     1      47.196  16.500  15.929  0.00  0.00    +0.388 HD
ENDBRANCH  25  26
TORSDOF 6
ENDMDL
MODEL 7
REMARK VINA RESULT:      -5.2      2.148      3.799
REMARK  Name = ZINC14645888
REMARK  8 active torsions:
REMARK  status: ('A' for Active; 'I' for Inactive)
REMARK    1  A    between atoms: C1_1  and  O1_2
REMARK    2  A    between atoms: O1_2  and  C2_3
REMARK    3  A    between atoms: C4_5  and  O7_24
REMARK    4  A    between atoms: C7_9  and  C11_15
REMARK    5  A    between atoms: C10_13  and  O4_14
REMARK    6  A    between atoms: C15_19  and  O6_23
REMARK    7  A    between atoms: C16_20  and  O5_21
REMARK    8  A    between atoms: O5_21  and  C17_22
REMARK                            x       y       z     vdW  Elec       q    Type
REMARK                         _______ _______ _______ _____ _____    ______ ____
ROOT
ATOM      3  C   UNL     1      46.491  12.637  17.003  0.00  0.00    +0.185 A 
ATOM      4  C   UNL     1      45.919  12.677  18.270  0.00  0.00    -0.102 A 
ATOM      5  C   UNL     1      45.714  13.888  18.900  0.00  0.00    +0.237 A 
ATOM      8  C   UNL     1      46.097  15.074  18.261  0.00  0.00    -0.274 A 
ATOM      9  C   UNL     1      45.902  16.384  18.902  0.00  0.00    +0.434 A 
ATOM     10  C   UNL     1      46.340  17.569  18.142  0.00  0.00    -0.234 A 
ATOM     21  C   UNL     1      46.890  17.388  16.914  0.00  0.00    +0.330 A 
ATOM     22  O   UNL     1      47.049  16.179  16.368  0.00  0.00    -0.207 OA
ATOM     23  O   UNL     1      45.400  16.486  20.009  0.00  0.00    -0.425 OA
ATOM     24  C   UNL     1      46.681  15.036  16.982  0.00  0.00    +0.175 A 
ATOM     25  C   UNL     1      46.873  13.807  16.361  0.00  0.00    +0.038 A 
ENDROOT
BRANCH  10  11
ATOM     11  C   UNL     1      46.184  18.930  18.707  0.00  0.00    -0.034 A 
ATOM     12  C   UNL     1      45.014  19.653  18.479  0.00  0.00    +0.030 A 
ATOM     13  C   UNL     1      44.868  20.917  19.011  0.00  0.00    +0.028 A 
ATOM     14  C   UNL     1      45.885  21.480  19.762  0.00  0.00    +0.010 A 
ATOM     15  C   UNL     1      47.055  20.773  19.992  0.00  0.00    +0.088 A 
ATOM     18  C   UNL     1      47.211  19.496  19.466  0.00  0.00    +0.098 A 
BRANCH  15  16
ATOM     16  O   UNL     1      48.052  21.330  20.732  0.00  0.00    -0.484 OA
ATOM     17  H   UNL     1      47.899  22.255  20.966  0.00  0.00    +0.387 HD
ENDBRANCH  15  16
BRANCH  18  19
ATOM     19  O   UNL     1      48.358  18.800  19.689  0.00  0.00    -0.317 OA
ATOM     20  C   UNL     1      49.479  19.117  18.861  0.00  0.00    +0.219 C 
ENDBRANCH  18  19
ENDBRANCH  10  11
BRANCH   3   2
ATOM      1  C   UNL     1      45.529  10.808  15.827  0.00  0.00    +0.256 C 
ATOM      2  O   UNL     1      46.683  11.440  16.388  0.00  0.00    -0.293 OA
ENDBRANCH   3   2
BRANCH   5   6
ATOM      6  O   UNL     1      45.151  13.930  20.135  0.00  0.00    -0.472 OA
ATOM      7  H   UNL     1      45.546  13.316  20.769  0.00  0.00    +0.405 HD
ENDBRANCH   5   6
BRANCH  25  26
ATOM     26  O   UNL     1      47.437  13.751  15.123  0.00  0.00    -0.466 OA
ATOM     27  H   UNL     1      47.611  12.853  14.809  0.00  0.00    +0.388 HD
ENDBRANCH  25  26
TORSDOF 6
ENDMDL
MODEL 8
REMARK VINA RESULT:      -5.2      2.901      4.647
REMARK  Name = ZINC14645888
REMARK  8 active torsions:
REMARK  status: ('A' for Active; 'I' for Inactive)
REMARK    1  A    between atoms: C1_1  and  O1_2
REMARK    2  A    between atoms: O1_2  and  C2_3
REMARK    3  A    between atoms: C4_5  and  O7_24
REMARK    4  A    between atoms: C7_9  and  C11_15
REMARK    5  A    between atoms: C10_13  and  O4_14
REMARK    6  A    between atoms: C15_19  and  O6_23
REMARK    7  A    between atoms: C16_20  and  O5_21
REMARK    8  A    between atoms: O5_21  and  C17_22
REMARK                            x       y       z     vdW  Elec       q    Type
REMARK                         _______ _______ _______ _____ _____    ______ ____
ROOT
ATOM      3  C   UNL     1      50.286  18.537  17.781  0.00  0.00    +0.185 A 
ATOM      4  C   UNL     1      50.235  19.498  18.785  0.00  0.00    -0.102 A 
ATOM      5  C   UNL     1      49.084  19.662  19.531  0.00  0.00    +0.237 A 
ATOM      8  C   UNL     1      47.966  18.863  19.261  0.00  0.00    -0.274 A 
ATOM      9  C   UNL     1      46.719  19.010  20.028  0.00  0.00    +0.434 A 
ATOM     10  C   UNL     1      45.604  18.119  19.663  0.00  0.00    -0.234 A 
ATOM     21  C   UNL     1      45.785  17.227  18.655  0.00  0.00    +0.330 A 
ATOM     22  O   UNL     1      46.935  17.126  17.984  0.00  0.00    -0.207 OA
ATOM     23  O   UNL     1      46.614  19.830  20.925  0.00  0.00    -0.425 OA
ATOM     24  C   UNL     1      48.013  17.894  18.242  0.00  0.00    +0.175 A 
ATOM     25  C   UNL     1      49.183  17.740  17.506  0.00  0.00    +0.038 A 
ENDROOT
BRANCH  10  11
ATOM     11  C   UNL     1      44.308  18.195  20.381  0.00  0.00    -0.034 A 
ATOM     12  C   UNL     1      44.054  17.348  21.458  0.00  0.00    +0.030 A 
ATOM     13  C   UNL     1      42.851  17.425  22.128  0.00  0.00    +0.028 A 
ATOM     14  C   UNL     1      41.886  18.333  21.728  0.00  0.00    +0.010 A 
ATOM     15  C   UNL     1      42.126  19.178  20.655  0.00  0.00    +0.088 A 
ATOM     18  C   UNL     1      43.336  19.113  19.976  0.00  0.00    +0.098 A 
BRANCH  15  16
ATOM     16  O   UNL     1      41.175  20.070  20.266  0.00  0.00    -0.484 OA
ATOM     17  H   UNL     1      40.818  20.605  20.989  0.00  0.00    +0.387 HD
ENDBRANCH  15  16
BRANCH  18  19
ATOM     19  O   UNL     1      43.574  19.940  18.923  0.00  0.00    -0.317 OA
ATOM     20  C   UNL     1      43.928  21.290  19.226  0.00  0.00    +0.219 C 
ENDBRANCH  18  19
ENDBRANCH  10  11
BRANCH   3   2
ATOM      1  C   UNL     1      51.726  19.394  16.094  0.00  0.00    +0.256 C 
ATOM      2  O   UNL     1      51.425  18.380  17.057  0.00  0.00    -0.293 OA
ENDBRANCH   3   2
BRANCH   5   6
ATOM      6  O   UNL     1      49.035  20.595  20.516  0.00  0.00    -0.472 OA
ATOM      7  H   UNL     1      48.973  20.224  21.407  0.00  0.00    +0.405 HD
ENDBRANCH   5   6
BRANCH  25  26
ATOM     26  O   UNL     1      49.247  16.808  16.516  0.00  0.00    -0.466 OA
ATOM     27  H   UNL     1      48.855  17.094  15.680  0.00  0.00    +0.388 HD
ENDBRANCH  25  26
TORSDOF 6
ENDMDL
MODEL 9
REMARK VINA RESULT:      -5.0      3.298      6.092
REMARK  Name = ZINC14645888
REMARK  8 active torsions:
REMARK  status: ('A' for Active; 'I' for Inactive)
REMARK    1  A    between atoms: C1_1  and  O1_2
REMARK    2  A    between atoms: O1_2  and  C2_3
REMARK    3  A    between atoms: C4_5  and  O7_24
REMARK    4  A    between atoms: C7_9  and  C11_15
REMARK    5  A    between atoms: C10_13  and  O4_14
REMARK    6  A    between atoms: C15_19  and  O6_23
REMARK    7  A    between atoms: C16_20  and  O5_21
REMARK    8  A    between atoms: O5_21  and  C17_22
REMARK                            x       y       z     vdW  Elec       q    Type
REMARK                         _______ _______ _______ _____ _____    ______ ____
ROOT
ATOM      3  C   UNL     1      43.331  18.772  21.125  0.00  0.00    +0.185 A 
ATOM      4  C   UNL     1      43.272  19.859  20.259  0.00  0.00    -0.102 A 
ATOM      5  C   UNL     1      44.411  20.289  19.607  0.00  0.00    +0.237 A 
ATOM      8  C   UNL     1      45.627  19.632  19.832  0.00  0.00    -0.274 A 
ATOM      9  C   UNL     1      46.864  20.064  19.162  0.00  0.00    +0.434 A 
ATOM     10  C   UNL     1      48.088  19.304  19.471  0.00  0.00    -0.234 A 
ATOM     21  C   UNL     1      48.008  18.265  20.341  0.00  0.00    +0.330 A 
ATOM     22  O   UNL     1      46.863  17.906  20.927  0.00  0.00    -0.207 OA
ATOM     23  O   UNL     1      46.875  21.006  18.387  0.00  0.00    -0.425 OA
ATOM     24  C   UNL     1      45.691  18.537  20.712  0.00  0.00    +0.175 A 
ATOM     25  C   UNL     1      44.532  18.114  21.355  0.00  0.00    +0.038 A 
ENDROOT
BRANCH  10  11
ATOM     11  C   UNL     1      49.381  19.666  18.843  0.00  0.00    -0.034 A 
ATOM     12  C   UNL     1      50.092  20.777  19.295  0.00  0.00    +0.030 A 
ATOM     13  C   UNL     1      51.298  21.109  18.713  0.00  0.00    +0.028 A 
ATOM     14  C   UNL     1      51.803  20.350  17.671  0.00  0.00    +0.010 A 
ATOM     15  C   UNL     1      51.103  19.246  17.210  0.00  0.00    +0.088 A 
ATOM     18  C   UNL     1      49.889  18.899  17.792  0.00  0.00    +0.098 A 
BRANCH  15  16
ATOM     16  O   UNL     1      51.603  18.502  16.186  0.00  0.00    -0.484 OA
ATOM     17  H   UNL     1      51.543  18.932  15.322  0.00  0.00    +0.387 HD
ENDBRANCH  15  16
BRANCH  18  19
ATOM     19  O   UNL     1      49.199  17.817  17.341  0.00  0.00    -0.317 OA
ATOM     20  C   UNL     1      49.694  16.531  17.718  0.00  0.00    +0.219 C 
ENDBRANCH  18  19
ENDBRANCH  10  11
BRANCH   3   2
ATOM      1  C   UNL     1      40.965  18.902  21.304  0.00  0.00    +0.256 C 
ATOM      2  O   UNL     1      42.204  18.352  21.757  0.00  0.00    -0.293 OA
ENDBRANCH   3   2
BRANCH   5   6
ATOM      6  O   UNL     1      44.353  21.346  18.756  0.00  0.00    -0.472 OA
ATOM      7  H   UNL     1      45.016  21.321  18.052  0.00  0.00    +0.405 HD
ENDBRANCH   5   6
BRANCH  25  26
ATOM     26  O   UNL     1      44.576  17.056  22.209  0.00  0.00    -0.466 OA
ATOM     27  H   UNL     1      45.405  16.560  22.180  0.00  0.00    +0.388 HD
ENDBRANCH  25  26
TORSDOF 6
ENDMDL
