MODEL 1
REMARK VINA RESULT:      -5.7      0.000      0.000
REMARK  Name = ZINC00057384
REMARK  7 active torsions:
REMARK  status: ('A' for Active; 'I' for Inactive)
REMARK    1  A    between atoms: C1_1  and  C2_2
REMARK    2  A    between atoms: C2_2  and  C3_3
REMARK    3  A    between atoms: C2_2  and  C4_4
REMARK    4  A    between atoms: C4_4  and  C5_5
REMARK    5  A    between atoms: C5_5  and  C6_7
REMARK    6  A    between atoms: C5_5  and  N2_39
REMARK    7  A    between atoms: N1_9  and  C7_10
REMARK                            x       y       z     vdW  Elec       q    Type
REMARK                         _______ _______ _______ _____ _____    ______ ____
ROOT
ATOM      9  C   UNL     1      43.006  19.247  19.900  0.00  0.00    +0.501 C 
ATOM     10  N   UNL     1      43.689  19.619  18.799  0.00  0.00    -0.643 N 
ATOM     11  H   UNL     1      43.229  19.707  17.948  0.00  0.00    +0.418 HD
ATOM     22  O   UNL     1      43.596  19.049  20.940  0.00  0.00    -0.504 OA
ENDROOT
BRANCH  10  12
ATOM     12  C   UNL     1      45.061  19.877  18.881  0.00  0.00    +0.124 A 
ATOM     13  C   UNL     1      45.505  21.154  19.243  0.00  0.00    +0.014 A 
ATOM     14  C   UNL     1      46.833  21.432  19.336  0.00  0.00    +0.058 A 
ATOM     15  C   UNL     1      47.779  20.431  19.055  0.00  0.00    -0.055 A 
ATOM     16  C   UNL     1      49.158  20.691  19.137  0.00  0.00    +0.028 A 
ATOM     17  C   UNL     1      50.049  19.701  18.858  0.00  0.00    +0.021 A 
ATOM     18  C   UNL     1      49.615  18.428  18.491  0.00  0.00    +0.027 A 
ATOM     19  C   UNL     1      48.289  18.139  18.402  0.00  0.00    +0.019 A 
ATOM     20  C   UNL     1      47.338  19.136  18.682  0.00  0.00    -0.037 A 
ATOM     21  C   UNL     1      45.962  18.873  18.599  0.00  0.00    +0.017 A 
ENDBRANCH  10  12
BRANCH   9   4
ATOM      4  C   UNL     1      41.509  19.083  19.838  0.00  0.00    +0.175 C 
BRANCH   4   5
ATOM      5  N   UNL     1      40.919  19.618  21.077  0.00  0.00    -0.629 N 
ATOM      6  H   UNL     1      39.910  19.749  20.941  0.00  0.00    +0.446 HD
ATOM      7  H   UNL     1      41.342  20.516  21.307  0.00  0.00    +0.447 HD
ATOM      8  H   UNL     1      41.068  18.966  21.845  0.00  0.00    +0.445 HD
ENDBRANCH   4   5
BRANCH   4   3
ATOM      3  C   UNL     1      40.964  19.834  18.620  0.00  0.00    +0.072 C 
BRANCH   3   2
ATOM      1  C   UNL     1      41.381  22.297  18.622  0.00  0.00    +0.031 C 
ATOM      2  C   UNL     1      40.418  21.193  19.063  0.00  0.00    -0.021 C 
ATOM     23  C   UNL     1      39.048  21.426  18.423  0.00  0.00    +0.045 C 
ENDBRANCH   3   2
ENDBRANCH   4   3
ENDBRANCH   9   4
TORSDOF 5
ENDMDL
MODEL 2
REMARK VINA RESULT:      -5.7      2.611      3.837
REMARK  Name = ZINC00057384
REMARK  7 active torsions:
REMARK  status: ('A' for Active; 'I' for Inactive)
REMARK    1  A    between atoms: C1_1  and  C2_2
REMARK    2  A    between atoms: C2_2  and  C3_3
REMARK    3  A    between atoms: C2_2  and  C4_4
REMARK    4  A    between atoms: C4_4  and  C5_5
REMARK    5  A    between atoms: C5_5  and  C6_7
REMARK    6  A    between atoms: C5_5  and  N2_39
REMARK    7  A    between atoms: N1_9  and  C7_10
REMARK                            x       y       z     vdW  Elec       q    Type
REMARK                         _______ _______ _______ _____ _____    ______ ____
ROOT
ATOM      9  C   UNL     1      46.083  22.065  21.116  0.00  0.00    +0.501 C 
ATOM     10  N   UNL     1      46.693  20.897  20.834  0.00  0.00    -0.643 N 
ATOM     11  H   UNL     1      46.172  20.079  20.774  0.00  0.00    +0.418 HD
ATOM     22  O   UNL     1      46.743  23.069  21.280  0.00  0.00    -0.504 OA
ENDROOT
BRANCH  10  12
ATOM     12  C   UNL     1      48.075  20.862  20.627  0.00  0.00    +0.124 A 
ATOM     13  C   UNL     1      48.940  20.834  21.727  0.00  0.00    +0.014 A 
ATOM     14  C   UNL     1      50.288  20.794  21.556  0.00  0.00    +0.058 A 
ATOM     15  C   UNL     1      50.830  20.793  20.258  0.00  0.00    -0.055 A 
ATOM     16  C   UNL     1      52.219  20.759  20.051  0.00  0.00    +0.028 A 
ATOM     17  C   UNL     1      52.712  20.759  18.782  0.00  0.00    +0.021 A 
ATOM     18  C   UNL     1      51.858  20.793  17.681  0.00  0.00    +0.027 A 
ATOM     19  C   UNL     1      50.508  20.826  17.843  0.00  0.00    +0.019 A 
ATOM     20  C   UNL     1      49.962  20.827  19.139  0.00  0.00    -0.037 A 
ATOM     21  C   UNL     1      48.573  20.861  19.342  0.00  0.00    +0.017 A 
ENDBRANCH  10  12
BRANCH   9   4
ATOM      4  C   UNL     1      44.581  22.123  21.223  0.00  0.00    +0.175 C 
BRANCH   4   5
ATOM      5  N   UNL     1      44.203  23.330  21.980  0.00  0.00    -0.629 N 
ATOM      6  H   UNL     1      44.616  23.282  22.919  0.00  0.00    +0.446 HD
ATOM      7  H   UNL     1      43.189  23.386  22.065  0.00  0.00    +0.447 HD
ATOM      8  H   UNL     1      44.551  24.162  21.506  0.00  0.00    +0.445 HD
ENDBRANCH   4   5
BRANCH   4   3
ATOM      3  C   UNL     1      43.970  22.161  19.820  0.00  0.00    +0.072 C 
BRANCH   3   2
ATOM      1  C   UNL     1      41.817  21.259  18.931  0.00  0.00    +0.031 C 
ATOM      2  C   UNL     1      43.149  20.892  19.588  0.00  0.00    -0.021 C 
ATOM     23  C   UNL     1      43.924  19.942  18.672  0.00  0.00    +0.045 C 
ENDBRANCH   3   2
ENDBRANCH   4   3
ENDBRANCH   9   4
TORSDOF 5
ENDMDL
MODEL 3
REMARK VINA RESULT:      -5.4      1.860      3.095
REMARK  Name = ZINC00057384
REMARK  7 active torsions:
REMARK  status: ('A' for Active; 'I' for Inactive)
REMARK    1  A    between atoms: C1_1  and  C2_2
REMARK    2  A    between atoms: C2_2  and  C3_3
REMARK    3  A    between atoms: C2_2  and  C4_4
REMARK    4  A    between atoms: C4_4  and  C5_5
REMARK    5  A    between atoms: C5_5  and  C6_7
REMARK    6  A    between atoms: C5_5  and  N2_39
REMARK    7  A    between atoms: N1_9  and  C7_10
REMARK                            x       y       z     vdW  Elec       q    Type
REMARK                         _______ _______ _______ _____ _____    ______ ____
ROOT
ATOM      9  C   UNL     1      45.343  20.477  19.559  0.00  0.00    +0.501 C 
ATOM     10  N   UNL     1      46.394  19.930  20.202  0.00  0.00    -0.643 N 
ATOM     11  H   UNL     1      46.346  19.767  21.159  0.00  0.00    +0.418 HD
ATOM     22  O   UNL     1      45.434  20.763  18.385  0.00  0.00    -0.504 OA
ENDROOT
BRANCH  10  12
ATOM     12  C   UNL     1      47.552  19.599  19.494  0.00  0.00    +0.124 A 
ATOM     13  C   UNL     1      47.706  18.304  18.985  0.00  0.00    +0.014 A 
ATOM     14  C   UNL     1      48.820  17.955  18.286  0.00  0.00    +0.058 A 
ATOM     15  C   UNL     1      49.841  18.899  18.079  0.00  0.00    -0.055 A 
ATOM     16  C   UNL     1      51.005  18.565  17.367  0.00  0.00    +0.028 A 
ATOM     17  C   UNL     1      51.976  19.502  17.184  0.00  0.00    +0.021 A 
ATOM     18  C   UNL     1      51.833  20.791  17.693  0.00  0.00    +0.027 A 
ATOM     19  C   UNL     1      50.719  21.151  18.387  0.00  0.00    +0.019 A 
ATOM     20  C   UNL     1      49.696  20.211  18.596  0.00  0.00    -0.037 A 
ATOM     21  C   UNL     1      48.533  20.548  19.308  0.00  0.00    +0.017 A 
ENDBRANCH  10  12
BRANCH   9   4
ATOM      4  C   UNL     1      44.054  20.725  20.298  0.00  0.00    +0.175 C 
BRANCH   4   5
ATOM      5  N   UNL     1      44.354  21.429  21.558  0.00  0.00    -0.629 N 
ATOM      6  H   UNL     1      44.751  22.351  21.342  0.00  0.00    +0.446 HD
ATOM      7  H   UNL     1      45.028  20.896  22.104  0.00  0.00    +0.447 HD
ATOM      8  H   UNL     1      43.500  21.554  22.100  0.00  0.00    +0.445 HD
ENDBRANCH   4   5
BRANCH   4   3
ATOM      3  C   UNL     1      43.119  21.567  19.427  0.00  0.00    +0.072 C 
BRANCH   3   2
ATOM      1  C   UNL     1      41.728  19.542  19.883  0.00  0.00    +0.031 C 
ATOM      2  C   UNL     1      41.983  20.687  18.901  0.00  0.00    -0.021 C 
ATOM     23  C   UNL     1      40.712  21.526  18.755  0.00  0.00    +0.045 C 
ENDBRANCH   3   2
ENDBRANCH   4   3
ENDBRANCH   9   4
TORSDOF 5
ENDMDL
MODEL 4
REMARK VINA RESULT:      -5.3      1.468      2.450
REMARK  Name = ZINC00057384
REMARK  7 active torsions:
REMARK  status: ('A' for Active; 'I' for Inactive)
REMARK    1  A    between atoms: C1_1  and  C2_2
REMARK    2  A    between atoms: C2_2  and  C3_3
REMARK    3  A    between atoms: C2_2  and  C4_4
REMARK    4  A    between atoms: C4_4  and  C5_5
REMARK    5  A    between atoms: C5_5  and  C6_7
REMARK    6  A    between atoms: C5_5  and  N2_39
REMARK    7  A    between atoms: N1_9  and  C7_10
REMARK                            x       y       z     vdW  Elec       q    Type
REMARK                         _______ _______ _______ _____ _____    ______ ____
ROOT
ATOM      9  C   UNL     1      44.139  21.110  19.874  0.00  0.00    +0.501 C 
ATOM     10  N   UNL     1      44.823  21.000  18.718  0.00  0.00    -0.643 N 
ATOM     11  H   UNL     1      44.486  21.425  17.912  0.00  0.00    +0.418 HD
ATOM     22  O   UNL     1      44.510  20.506  20.857  0.00  0.00    -0.504 OA
ENDROOT
BRANCH  10  12
ATOM     12  C   UNL     1      46.016  20.273  18.678  0.00  0.00    +0.124 A 
ATOM     13  C   UNL     1      46.001  18.938  18.259  0.00  0.00    +0.014 A 
ATOM     14  C   UNL     1      47.147  18.209  18.205  0.00  0.00    +0.058 A 
ATOM     15  C   UNL     1      48.368  18.794  18.585  0.00  0.00    -0.055 A 
ATOM     16  C   UNL     1      49.567  18.062  18.545  0.00  0.00    +0.028 A 
ATOM     17  C   UNL     1      50.733  18.658  18.919  0.00  0.00    +0.021 A 
ATOM     18  C   UNL     1      50.756  19.985  19.343  0.00  0.00    +0.027 A 
ATOM     19  C   UNL     1      49.615  20.724  19.394  0.00  0.00    +0.019 A 
ATOM     20  C   UNL     1      48.392  20.144  19.015  0.00  0.00    -0.037 A 
ATOM     21  C   UNL     1      47.195  20.877  19.056  0.00  0.00    +0.017 A 
ENDBRANCH  10  12
BRANCH   9   4
ATOM      4  C   UNL     1      42.917  21.989  19.945  0.00  0.00    +0.175 C 
BRANCH   4   5
ATOM      5  N   UNL     1      43.340  23.400  19.897  0.00  0.00    -0.629 N 
ATOM      6  H   UNL     1      43.099  23.854  20.786  0.00  0.00    +0.446 HD
ATOM      7  H   UNL     1      42.864  23.882  19.137  0.00  0.00    +0.447 HD
ATOM      8  H   UNL     1      44.348  23.457  19.758  0.00  0.00    +0.445 HD
ENDBRANCH   4   5
BRANCH   4   3
ATOM      3  C   UNL     1      41.990  21.671  18.770  0.00  0.00    +0.072 C 
BRANCH   3   2
ATOM      1  C   UNL     1      39.568  21.206  18.366  0.00  0.00    +0.031 C 
ATOM      2  C   UNL     1      40.760  20.918  19.281  0.00  0.00    -0.021 C 
ATOM     23  C   UNL     1      41.046  19.415  19.286  0.00  0.00    +0.045 C 
ENDBRANCH   3   2
ENDBRANCH   4   3
ENDBRANCH   9   4
TORSDOF 5
ENDMDL
MODEL 5
REMARK VINA RESULT:      -5.2      2.319      7.354
REMARK  Name = ZINC00057384
REMARK  7 active torsions:
REMARK  status: ('A' for Active; 'I' for Inactive)
REMARK    1  A    between atoms: C1_1  and  C2_2
REMARK    2  A    between atoms: C2_2  and  C3_3
REMARK    3  A    between atoms: C2_2  and  C4_4
REMARK    4  A    between atoms: C4_4  and  C5_5
REMARK    5  A    between atoms: C5_5  and  C6_7
REMARK    6  A    between atoms: C5_5  and  N2_39
REMARK    7  A    between atoms: N1_9  and  C7_10
REMARK                            x       y       z     vdW  Elec       q    Type
REMARK                         _______ _______ _______ _____ _____    ______ ____
ROOT
ATOM      9  C   UNL     1      47.526  20.421  19.695  0.00  0.00    +0.501 C 
ATOM     10  N   UNL     1      46.572  20.625  20.625  0.00  0.00    -0.643 N 
ATOM     11  H   UNL     1      46.817  20.943  21.509  0.00  0.00    +0.418 HD
ATOM     22  O   UNL     1      47.231  19.939  18.622  0.00  0.00    -0.504 OA
ENDROOT
BRANCH  10  12
ATOM     12  C   UNL     1      45.230  20.378  20.318  0.00  0.00    +0.124 A 
ATOM     13  C   UNL     1      44.696  19.101  20.522  0.00  0.00    +0.014 A 
ATOM     14  C   UNL     1      43.394  18.834  20.238  0.00  0.00    +0.058 A 
ATOM     15  C   UNL     1      42.569  19.847  19.719  0.00  0.00    -0.055 A 
ATOM     16  C   UNL     1      41.221  19.598  19.409  0.00  0.00    +0.028 A 
ATOM     17  C   UNL     1      40.448  20.600  18.908  0.00  0.00    +0.021 A 
ATOM     18  C   UNL     1      40.973  21.873  18.695  0.00  0.00    +0.027 A 
ATOM     19  C   UNL     1      42.274  22.151  18.984  0.00  0.00    +0.019 A 
ATOM     20  C   UNL     1      43.102  21.142  19.503  0.00  0.00    -0.037 A 
ATOM     21  C   UNL     1      44.449  21.393  19.811  0.00  0.00    +0.017 A 
ENDBRANCH  10  12
BRANCH   9   4
ATOM      4  C   UNL     1      48.955  20.797  19.986  0.00  0.00    +0.175 C 
BRANCH   4   5
ATOM      5  N   UNL     1      49.318  20.294  21.323  0.00  0.00    -0.629 N 
ATOM      6  H   UNL     1      48.462  20.141  21.869  0.00  0.00    +0.446 HD
ATOM      7  H   UNL     1      49.903  20.973  21.805  0.00  0.00    +0.447 HD
ATOM      8  H   UNL     1      49.820  19.411  21.239  0.00  0.00    +0.445 HD
ENDBRANCH   4   5
BRANCH   4   3
ATOM      3  C   UNL     1      49.871  20.189  18.921  0.00  0.00    +0.072 C 
BRANCH   3   2
ATOM      1  C   UNL     1      52.092  21.234  19.390  0.00  0.00    +0.031 C 
ATOM      2  C   UNL     1      50.879  21.242  18.457  0.00  0.00    -0.021 C 
ATOM     23  C   UNL     1      51.332  20.921  17.031  0.00  0.00    +0.045 C 
ENDBRANCH   3   2
ENDBRANCH   4   3
ENDBRANCH   9   4
TORSDOF 5
ENDMDL
MODEL 6
REMARK VINA RESULT:      -5.1      2.041      3.221
REMARK  Name = ZINC00057384
REMARK  7 active torsions:
REMARK  status: ('A' for Active; 'I' for Inactive)
REMARK    1  A    between atoms: C1_1  and  C2_2
REMARK    2  A    between atoms: C2_2  and  C3_3
REMARK    3  A    between atoms: C2_2  and  C4_4
REMARK    4  A    between atoms: C4_4  and  C5_5
REMARK    5  A    between atoms: C5_5  and  C6_7
REMARK    6  A    between atoms: C5_5  and  N2_39
REMARK    7  A    between atoms: N1_9  and  C7_10
REMARK                            x       y       z     vdW  Elec       q    Type
REMARK                         _______ _______ _______ _____ _____    ______ ____
ROOT
ATOM      9  C   UNL     1      45.877  19.332  19.576  0.00  0.00    +0.501 C 
ATOM     10  N   UNL     1      47.099  19.062  20.079  0.00  0.00    -0.643 N 
ATOM     11  H   UNL     1      47.183  18.627  20.943  0.00  0.00    +0.418 HD
ATOM     22  O   UNL     1      45.773  19.956  18.542  0.00  0.00    -0.504 OA
ENDROOT
BRANCH  10  12
ATOM     12  C   UNL     1      48.244  19.409  19.356  0.00  0.00    +0.124 A 
ATOM     13  C   UNL     1      48.813  20.676  19.526  0.00  0.00    +0.014 A 
ATOM     14  C   UNL     1      49.930  21.039  18.841  0.00  0.00    +0.058 A 
ATOM     15  C   UNL     1      50.522  20.137  17.939  0.00  0.00    -0.055 A 
ATOM     16  C   UNL     1      51.673  20.487  17.212  0.00  0.00    +0.028 A 
ATOM     17  C   UNL     1      52.222  19.592  16.346  0.00  0.00    +0.021 A 
ATOM     18  C   UNL     1      51.658  18.330  16.167  0.00  0.00    +0.027 A 
ATOM     19  C   UNL     1      50.544  17.956  16.853  0.00  0.00    +0.019 A 
ATOM     20  C   UNL     1      49.950  18.854  17.757  0.00  0.00    -0.037 A 
ATOM     21  C   UNL     1      48.799  18.502  18.481  0.00  0.00    +0.017 A 
ENDBRANCH  10  12
BRANCH   9   4
ATOM      4  C   UNL     1      44.644  18.854  20.298  0.00  0.00    +0.175 C 
BRANCH   4   5
ATOM      5  N   UNL     1      45.001  18.530  21.690  0.00  0.00    -0.629 N 
ATOM      6  H   UNL     1      46.001  18.298  21.736  0.00  0.00    +0.446 HD
ATOM      7  H   UNL     1      44.459  17.730  22.013  0.00  0.00    +0.447 HD
ATOM      8  H   UNL     1      44.818  19.330  22.293  0.00  0.00    +0.445 HD
ENDBRANCH   4   5
BRANCH   4   3
ATOM      3  C   UNL     1      43.576  19.950  20.264  0.00  0.00    +0.072 C 
BRANCH   3   2
ATOM      1  C   UNL     1      41.380  18.972  20.948  0.00  0.00    +0.031 C 
ATOM      2  C   UNL     1      42.258  19.360  19.756  0.00  0.00    -0.021 C 
ATOM     23  C   UNL     1      41.529  20.400  18.903  0.00  0.00    +0.045 C 
ENDBRANCH   3   2
ENDBRANCH   4   3
ENDBRANCH   9   4
TORSDOF 5
ENDMDL
MODEL 7
REMARK VINA RESULT:      -5.1     20.983     22.852
REMARK  Name = ZINC00057384
REMARK  7 active torsions:
REMARK  status: ('A' for Active; 'I' for Inactive)
REMARK    1  A    between atoms: C1_1  and  C2_2
REMARK    2  A    between atoms: C2_2  and  C3_3
REMARK    3  A    between atoms: C2_2  and  C4_4
REMARK    4  A    between atoms: C4_4  and  C5_5
REMARK    5  A    between atoms: C5_5  and  C6_7
REMARK    6  A    between atoms: C5_5  and  N2_39
REMARK    7  A    between atoms: N1_9  and  C7_10
REMARK                            x       y       z     vdW  Elec       q    Type
REMARK                         _______ _______ _______ _____ _____    ______ ____
ROOT
ATOM      9  C   UNL     1      50.680  34.000   4.034  0.00  0.00    +0.501 C 
ATOM     10  N   UNL     1      50.001  35.119   3.712  0.00  0.00    -0.643 N 
ATOM     11  H   UNL     1      50.305  35.982   4.038  0.00  0.00    +0.418 HD
ATOM     22  O   UNL     1      50.251  32.916   3.705  0.00  0.00    -0.504 OA
ENDROOT
BRANCH  10  12
ATOM     12  C   UNL     1      48.858  35.038   2.911  0.00  0.00    +0.124 A 
ATOM     13  C   UNL     1      48.984  35.091   1.518  0.00  0.00    +0.014 A 
ATOM     14  C   UNL     1      47.890  35.008   0.714  0.00  0.00    +0.058 A 
ATOM     15  C   UNL     1      46.611  34.880   1.283  0.00  0.00    -0.055 A 
ATOM     16  C   UNL     1      45.463  34.799   0.477  0.00  0.00    +0.028 A 
ATOM     17  C   UNL     1      44.238  34.675   1.058  0.00  0.00    +0.021 A 
ATOM     18  C   UNL     1      44.104  34.627   2.444  0.00  0.00    +0.027 A 
ATOM     19  C   UNL     1      45.193  34.702   3.256  0.00  0.00    +0.019 A 
ATOM     20  C   UNL     1      46.474  34.831   2.692  0.00  0.00    -0.037 A 
ATOM     21  C   UNL     1      47.619  34.912   3.500  0.00  0.00    +0.017 A 
ENDBRANCH  10  12
BRANCH   9   4
ATOM      4  C   UNL     1      51.975  34.099   4.798  0.00  0.00    +0.175 C 
BRANCH   4   5
ATOM      5  N   UNL     1      52.018  35.394   5.498  0.00  0.00    -0.629 N 
ATOM      6  H   UNL     1      52.450  36.095   4.885  0.00  0.00    +0.446 HD
ATOM      7  H   UNL     1      52.571  35.313   6.350  0.00  0.00    +0.447 HD
ATOM      8  H   UNL     1      51.074  35.696   5.733  0.00  0.00    +0.445 HD
ENDBRANCH   4   5
BRANCH   4   3
ATOM      3  C   UNL     1      52.065  32.947   5.802  0.00  0.00    +0.072 C 
BRANCH   3   2
ATOM      1  C   UNL     1      53.874  32.259   4.221  0.00  0.00    +0.031 C 
ATOM      2  C   UNL     1      53.436  32.278   5.687  0.00  0.00    -0.021 C 
ATOM     23  C   UNL     1      54.458  33.061   6.513  0.00  0.00    +0.045 C 
ENDBRANCH   3   2
ENDBRANCH   4   3
ENDBRANCH   9   4
TORSDOF 5
ENDMDL
MODEL 8
REMARK VINA RESULT:      -5.0      4.516      5.541
REMARK  Name = ZINC00057384
REMARK  7 active torsions:
REMARK  status: ('A' for Active; 'I' for Inactive)
REMARK    1  A    between atoms: C1_1  and  C2_2
REMARK    2  A    between atoms: C2_2  and  C3_3
REMARK    3  A    between atoms: C2_2  and  C4_4
REMARK    4  A    between atoms: C4_4  and  C5_5
REMARK    5  A    between atoms: C5_5  and  C6_7
REMARK    6  A    between atoms: C5_5  and  N2_39
REMARK    7  A    between atoms: N1_9  and  C7_10
REMARK                            x       y       z     vdW  Elec       q    Type
REMARK                         _______ _______ _______ _____ _____    ______ ____
ROOT
ATOM      9  C   UNL     1      47.006  17.295  19.785  0.00  0.00    +0.501 C 
ATOM     10  N   UNL     1      48.254  17.620  20.178  0.00  0.00    -0.643 N 
ATOM     11  H   UNL     1      48.624  17.233  20.988  0.00  0.00    +0.418 HD
ATOM     22  O   UNL     1      46.510  17.846  18.825  0.00  0.00    -0.504 OA
ENDROOT
BRANCH  10  12
ATOM     12  C   UNL     1      49.015  18.515  19.420  0.00  0.00    +0.124 A 
ATOM     13  C   UNL     1      48.990  19.880  19.728  0.00  0.00    +0.014 A 
ATOM     14  C   UNL     1      49.724  20.772  19.011  0.00  0.00    +0.058 A 
ATOM     15  C   UNL     1      50.513  20.326  17.936  0.00  0.00    -0.055 A 
ATOM     16  C   UNL     1      51.277  21.227  17.174  0.00  0.00    +0.028 A 
ATOM     17  C   UNL     1      52.030  20.764  16.139  0.00  0.00    +0.021 A 
ATOM     18  C   UNL     1      52.056  19.407  15.821  0.00  0.00    +0.027 A 
ATOM     19  C   UNL     1      51.329  18.506  16.537  0.00  0.00    +0.019 A 
ATOM     20  C   UNL     1      50.540  18.947  17.613  0.00  0.00    -0.037 A 
ATOM     21  C   UNL     1      49.777  18.045  18.373  0.00  0.00    +0.017 A 
ENDBRANCH  10  12
BRANCH   9   4
ATOM      4  C   UNL     1      46.231  16.243  20.535  0.00  0.00    +0.175 C 
BRANCH   4   5
ATOM      5  N   UNL     1      45.374  16.905  21.535  0.00  0.00    -0.629 N 
ATOM      6  H   UNL     1      45.393  16.363  22.407  0.00  0.00    +0.446 HD
ATOM      7  H   UNL     1      44.415  16.954  21.196  0.00  0.00    +0.447 HD
ATOM      8  H   UNL     1      45.718  17.846  21.722  0.00  0.00    +0.445 HD
ENDBRANCH   4   5
BRANCH   4   3
ATOM      3  C   UNL     1      45.377  15.439  19.551  0.00  0.00    +0.072 C 
BRANCH   3   2
ATOM      1  C   UNL     1      45.149  13.078  18.765  0.00  0.00    +0.031 C 
ATOM      2  C   UNL     1      45.339  13.974  19.991  0.00  0.00    -0.021 C 
ATOM     23  C   UNL     1      46.655  13.615  20.684  0.00  0.00    +0.045 C 
ENDBRANCH   3   2
ENDBRANCH   4   3
ENDBRANCH   9   4
TORSDOF 5
ENDMDL
MODEL 9
REMARK VINA RESULT:      -4.9      5.455      7.649
REMARK  Name = ZINC00057384
REMARK  7 active torsions:
REMARK  status: ('A' for Active; 'I' for Inactive)
REMARK    1  A    between atoms: C1_1  and  C2_2
REMARK    2  A    between atoms: C2_2  and  C3_3
REMARK    3  A    between atoms: C2_2  and  C4_4
REMARK    4  A    between atoms: C4_4  and  C5_5
REMARK    5  A    between atoms: C5_5  and  C6_7
REMARK    6  A    between atoms: C5_5  and  N2_39
REMARK    7  A    between atoms: N1_9  and  C7_10
REMARK                            x       y       z     vdW  Elec       q    Type
REMARK                         _______ _______ _______ _____ _____    ______ ____
ROOT
ATOM      9  C   UNL     1      48.398  15.004  17.382  0.00  0.00    +0.501 C 
ATOM     10  N   UNL     1      48.246  16.201  16.780  0.00  0.00    -0.643 N 
ATOM     11  H   UNL     1      47.771  16.261  15.935  0.00  0.00    +0.418 HD
ATOM     22  O   UNL     1      49.068  14.914  18.389  0.00  0.00    -0.504 OA
ENDROOT
BRANCH  10  12
ATOM     12  C   UNL     1      48.773  17.353  17.370  0.00  0.00    +0.124 A 
ATOM     13  C   UNL     1      48.004  18.072  18.293  0.00  0.00    +0.014 A 
ATOM     14  C   UNL     1      48.492  19.193  18.888  0.00  0.00    +0.058 A 
ATOM     15  C   UNL     1      49.783  19.650  18.567  0.00  0.00    -0.055 A 
ATOM     16  C   UNL     1      50.311  20.809  19.160  0.00  0.00    +0.028 A 
ATOM     17  C   UNL     1      51.563  21.226  18.828  0.00  0.00    +0.021 A 
ATOM     18  C   UNL     1      52.333  20.520  17.905  0.00  0.00    +0.027 A 
ATOM     19  C   UNL     1      51.855  19.393  17.311  0.00  0.00    +0.019 A 
ATOM     20  C   UNL     1      50.566  18.932  17.629  0.00  0.00    -0.037 A 
ATOM     21  C   UNL     1      50.040  17.774  17.034  0.00  0.00    +0.017 A 
ENDBRANCH  10  12
BRANCH   9   4
ATOM      4  C   UNL     1      47.731  13.782  16.808  0.00  0.00    +0.175 C 
BRANCH   4   5
ATOM      5  N   UNL     1      47.018  14.162  15.576  0.00  0.00    -0.629 N 
ATOM      6  H   UNL     1      46.131  14.615  15.826  0.00  0.00    +0.446 HD
ATOM      7  H   UNL     1      46.822  13.334  15.016  0.00  0.00    +0.447 HD
ATOM      8  H   UNL     1      47.582  14.814  15.033  0.00  0.00    +0.445 HD
ENDBRANCH   4   5
BRANCH   4   3
ATOM      3  C   UNL     1      48.789  12.718  16.504  0.00  0.00    +0.072 C 
BRANCH   3   2
ATOM      1  C   UNL     1      51.097  13.330  15.766  0.00  0.00    +0.031 C 
ATOM      2  C   UNL     1      49.642  13.173  15.318  0.00  0.00    -0.021 C 
ATOM     23  C   UNL     1      49.563  12.130  14.202  0.00  0.00    +0.045 C 
ENDBRANCH   3   2
ENDBRANCH   4   3
ENDBRANCH   9   4
TORSDOF 5
ENDMDL
