MODEL 1
REMARK VINA RESULT:      -4.9      0.000      0.000
REMARK  Name = ZINC43606073
REMARK  17 active torsions:
REMARK  status: ('A' for Active; 'I' for Inactive)
REMARK    1  A    between atoms: C1_1  and  C2_2
REMARK    2  A    between atoms: C2_2  and  C3_3
REMARK    3  A    between atoms: C3_3  and  C4_4
REMARK    4  A    between atoms: C4_4  and  C5_5
REMARK    5  A    between atoms: C5_5  and  C6_6
REMARK    6  A    between atoms: C6_6  and  C7_7
REMARK    7  A    between atoms: C7_7  and  C8_8
REMARK    8  A    between atoms: C8_8  and  C9_9
REMARK    9  A    between atoms: C9_9  and  C10_10
REMARK   10  A    between atoms: C10_10  and  C11_12
REMARK   11  A    between atoms: C10_10  and  O3_24
REMARK   12  A    between atoms: C12_13  and  C13_14
REMARK   13  A    between atoms: C14_15  and  C15_16
REMARK   14  A    between atoms: C15_16  and  C16_18
REMARK   15  A    between atoms: C15_16  and  O1_20
REMARK   16  A    between atoms: O1_20  and  C18_21
REMARK   17  A    between atoms: C18_21  and  C19_23
REMARK                            x       y       z     vdW  Elec       q    Type
REMARK                         _______ _______ _______ _____ _____    ______ ____
ROOT
ATOM     10  C   UNL     1      47.679  16.998  17.302  0.00  0.00    +0.349 C 
ENDROOT
BRANCH  10  11
ATOM     11  O   UNL     1      47.189  16.392  16.104  0.00  0.00    -0.544 OA
ATOM     12  H   UNL     1      47.137  15.427  16.145  0.00  0.00    +0.382 HD
ENDBRANCH  10  11
BRANCH  10  13
ATOM     13  C   UNL     1      46.682  17.953  17.812  0.00  0.00    -0.145 C 
ATOM     14  C   UNL     1      45.887  18.714  18.219  0.00  0.00    -0.064 C 
BRANCH  14  15
ATOM     15  C   UNL     1      44.954  19.608  18.697  0.00  0.00    -0.037 C 
ATOM     16  C   UNL     1      44.159  20.370  19.103  0.00  0.00    -0.121 C 
BRANCH  16  17
ATOM     17  C   UNL     1      43.162  21.325  19.614  0.00  0.00    +0.360 C 
BRANCH  17  22
ATOM     22  C   UNL     1      43.798  22.682  19.769  0.00  0.00    -0.047 C 
ATOM     23  C   UNL     1      43.326  23.708  19.105  0.00  0.00    +0.053 C 
ENDBRANCH  17  22
BRANCH  17  18
ATOM     18  O   UNL     1      42.071  21.413  18.693  0.00  0.00    -0.342 OA
BRANCH  18  19
ATOM     19  C   UNL     1      40.898  20.895  19.088  0.00  0.00    +0.460 C 
ATOM     20  C   UNL     1      39.609  21.437  18.528  0.00  0.00    +0.166 C 
ATOM     21  O   UNL     1      40.876  19.994  19.893  0.00  0.00    -0.501 OA
ENDBRANCH  18  19
ENDBRANCH  17  18
ENDBRANCH  16  17
ENDBRANCH  14  15
ENDBRANCH  10  13
BRANCH  10   9
ATOM      9  C   UNL     1      48.985  17.736  17.002  0.00  0.00    +0.004 C 
BRANCH   9   8
ATOM      8  C   UNL     1      50.172  16.836  17.351  0.00  0.00    +0.021 C 
BRANCH   8   7
ATOM      7  C   UNL     1      51.476  17.539  16.967  0.00  0.00    +0.002 C 
BRANCH   7   6
ATOM      6  C   UNL     1      51.158  18.777  16.126  0.00  0.00    +0.003 C 
BRANCH   6   5
ATOM      5  C   UNL     1      52.060  19.934  16.562  0.00  0.00    +0.000 C 
BRANCH   5   4
ATOM      4  C   UNL     1      51.205  21.045  17.174  0.00  0.00    +0.000 C 
BRANCH   4   3
ATOM      3  C   UNL     1      51.516  21.165  18.667  0.00  0.00    -0.001 C 
BRANCH   3   2
ATOM      1  C   UNL     1      49.079  20.727  19.004  0.00  0.00    +0.006 C 
ATOM      2  C   UNL     1      50.490  20.361  19.468  0.00  0.00    -0.006 C 
ENDBRANCH   3   2
ENDBRANCH   4   3
ENDBRANCH   5   4
ENDBRANCH   6   5
ENDBRANCH   7   6
ENDBRANCH   8   7
ENDBRANCH   9   8
ENDBRANCH  10   9
TORSDOF 15
ENDMDL
MODEL 2
REMARK VINA RESULT:      -4.8      2.235      4.122
REMARK  Name = ZINC43606073
REMARK  17 active torsions:
REMARK  status: ('A' for Active; 'I' for Inactive)
REMARK    1  A    between atoms: C1_1  and  C2_2
REMARK    2  A    between atoms: C2_2  and  C3_3
REMARK    3  A    between atoms: C3_3  and  C4_4
REMARK    4  A    between atoms: C4_4  and  C5_5
REMARK    5  A    between atoms: C5_5  and  C6_6
REMARK    6  A    between atoms: C6_6  and  C7_7
REMARK    7  A    between atoms: C7_7  and  C8_8
REMARK    8  A    between atoms: C8_8  and  C9_9
REMARK    9  A    between atoms: C9_9  and  C10_10
REMARK   10  A    between atoms: C10_10  and  C11_12
REMARK   11  A    between atoms: C10_10  and  O3_24
REMARK   12  A    between atoms: C12_13  and  C13_14
REMARK   13  A    between atoms: C14_15  and  C15_16
REMARK   14  A    between atoms: C15_16  and  C16_18
REMARK   15  A    between atoms: C15_16  and  O1_20
REMARK   16  A    between atoms: O1_20  and  C18_21
REMARK   17  A    between atoms: C18_21  and  C19_23
REMARK                            x       y       z     vdW  Elec       q    Type
REMARK                         _______ _______ _______ _____ _____    ______ ____
ROOT
ATOM     10  C   UNL     1      51.853  20.989  18.159  0.00  0.00    +0.349 C 
ENDROOT
BRANCH  10  11
ATOM     11  O   UNL     1      52.608  21.566  19.227  0.00  0.00    -0.544 OA
ATOM     12  H   UNL     1      52.070  21.862  19.974  0.00  0.00    +0.382 HD
ENDBRANCH  10  11
BRANCH  10  13
ATOM     13  C   UNL     1      50.429  20.952  18.529  0.00  0.00    -0.145 C 
ATOM     14  C   UNL     1      49.294  20.922  18.825  0.00  0.00    -0.064 C 
BRANCH  14  15
ATOM     15  C   UNL     1      47.961  20.887  19.171  0.00  0.00    -0.037 C 
ATOM     16  C   UNL     1      46.825  20.858  19.466  0.00  0.00    -0.121 C 
BRANCH  16  17
ATOM     17  C   UNL     1      45.401  20.821  19.837  0.00  0.00    +0.360 C 
BRANCH  17  22
ATOM     22  C   UNL     1      44.905  22.224  20.072  0.00  0.00    -0.047 C 
ATOM     23  C   UNL     1      44.759  22.671  21.295  0.00  0.00    +0.053 C 
ENDBRANCH  17  22
BRANCH  17  18
ATOM     18  O   UNL     1      44.649  20.221  18.779  0.00  0.00    -0.342 OA
BRANCH  18  19
ATOM     19  C   UNL     1      43.397  19.834  19.066  0.00  0.00    +0.460 C 
ATOM     20  C   UNL     1      43.141  18.911  20.228  0.00  0.00    +0.166 C 
ATOM     21  O   UNL     1      42.473  20.226  18.391  0.00  0.00    -0.501 OA
ENDBRANCH  18  19
ENDBRANCH  17  18
ENDBRANCH  16  17
ENDBRANCH  14  15
ENDBRANCH  10  13
BRANCH  10   9
ATOM      9  C   UNL     1      52.350  19.566  17.895  0.00  0.00    +0.004 C 
BRANCH   9   8
ATOM      8  C   UNL     1      52.074  19.191  16.438  0.00  0.00    +0.021 C 
BRANCH   8   7
ATOM      7  C   UNL     1      50.831  18.302  16.366  0.00  0.00    +0.002 C 
BRANCH   7   6
ATOM      6  C   UNL     1      50.814  17.352  17.566  0.00  0.00    +0.003 C 
BRANCH   6   5
ATOM      5  C   UNL     1      49.403  17.303  18.157  0.00  0.00    +0.000 C 
BRANCH   5   4
ATOM      4  C   UNL     1      48.378  17.220  17.024  0.00  0.00    +0.000 C 
BRANCH   4   3
ATOM      3  C   UNL     1      47.006  17.649  17.544  0.00  0.00    -0.001 C 
BRANCH   3   2
ATOM      1  C   UNL     1      45.628  16.361  19.182  0.00  0.00    +0.006 C 
ATOM      2  C   UNL     1      46.866  17.245  19.012  0.00  0.00    -0.006 C 
ENDBRANCH   3   2
ENDBRANCH   4   3
ENDBRANCH   5   4
ENDBRANCH   6   5
ENDBRANCH   7   6
ENDBRANCH   8   7
ENDBRANCH   9   8
ENDBRANCH  10   9
TORSDOF 15
ENDMDL
MODEL 3
REMARK VINA RESULT:      -4.6      2.746      8.145
REMARK  Name = ZINC43606073
REMARK  17 active torsions:
REMARK  status: ('A' for Active; 'I' for Inactive)
REMARK    1  A    between atoms: C1_1  and  C2_2
REMARK    2  A    between atoms: C2_2  and  C3_3
REMARK    3  A    between atoms: C3_3  and  C4_4
REMARK    4  A    between atoms: C4_4  and  C5_5
REMARK    5  A    between atoms: C5_5  and  C6_6
REMARK    6  A    between atoms: C6_6  and  C7_7
REMARK    7  A    between atoms: C7_7  and  C8_8
REMARK    8  A    between atoms: C8_8  and  C9_9
REMARK    9  A    between atoms: C9_9  and  C10_10
REMARK   10  A    between atoms: C10_10  and  C11_12
REMARK   11  A    between atoms: C10_10  and  O3_24
REMARK   12  A    between atoms: C12_13  and  C13_14
REMARK   13  A    between atoms: C14_15  and  C15_16
REMARK   14  A    between atoms: C15_16  and  C16_18
REMARK   15  A    between atoms: C15_16  and  O1_20
REMARK   16  A    between atoms: O1_20  and  C18_21
REMARK   17  A    between atoms: C18_21  and  C19_23
REMARK                            x       y       z     vdW  Elec       q    Type
REMARK                         _______ _______ _______ _____ _____    ______ ____
ROOT
ATOM     10  C   UNL     1      43.992  20.929  19.525  0.00  0.00    +0.349 C 
ENDROOT
BRANCH  10  11
ATOM     11  O   UNL     1      43.322  20.395  18.380  0.00  0.00    -0.544 OA
ATOM     12  H   UNL     1      43.563  20.826  17.548  0.00  0.00    +0.382 HD
ENDBRANCH  10  11
BRANCH  10  13
ATOM     13  C   UNL     1      45.447  20.873  19.312  0.00  0.00    -0.145 C 
ATOM     14  C   UNL     1      46.608  20.829  19.143  0.00  0.00    -0.064 C 
BRANCH  14  15
ATOM     15  C   UNL     1      47.970  20.778  18.944  0.00  0.00    -0.037 C 
ATOM     16  C   UNL     1      49.130  20.733  18.775  0.00  0.00    -0.121 C 
BRANCH  16  17
ATOM     17  C   UNL     1      50.586  20.678  18.562  0.00  0.00    +0.360 C 
BRANCH  17  22
ATOM     22  C   UNL     1      51.291  20.720  19.894  0.00  0.00    -0.047 C 
ATOM     23  C   UNL     1      52.309  21.526  20.071  0.00  0.00    +0.053 C 
ENDBRANCH  17  22
BRANCH  17  18
ATOM     18  O   UNL     1      50.923  19.465  17.884  0.00  0.00    -0.342 OA
BRANCH  18  19
ATOM     19  C   UNL     1      51.476  19.582  16.667  0.00  0.00    +0.460 C 
ATOM     20  C   UNL     1      51.837  20.943  16.131  0.00  0.00    +0.166 C 
ATOM     21  O   UNL     1      51.684  18.596  15.999  0.00  0.00    -0.501 OA
ENDBRANCH  18  19
ENDBRANCH  17  18
ENDBRANCH  16  17
ENDBRANCH  14  15
ENDBRANCH  10  13
BRANCH  10   9
ATOM      9  C   UNL     1      43.625  20.104  20.760  0.00  0.00    +0.004 C 
BRANCH   9   8
ATOM      8  C   UNL     1      42.364  19.287  20.473  0.00  0.00    +0.021 C 
BRANCH   8   7
ATOM      7  C   UNL     1      42.096  18.334  21.639  0.00  0.00    +0.002 C 
BRANCH   7   6
ATOM      6  C   UNL     1      43.409  18.045  22.372  0.00  0.00    +0.003 C 
BRANCH   6   5
ATOM      5  C   UNL     1      43.798  16.580  22.162  0.00  0.00    +0.000 C 
BRANCH   5   4
ATOM      4  C   UNL     1      45.313  16.476  21.978  0.00  0.00    +0.000 C 
BRANCH   4   3
ATOM      3  C   UNL     1      45.746  17.352  20.802  0.00  0.00    -0.001 C 
BRANCH   3   2
ATOM      1  C   UNL     1      45.920  17.286  18.310  0.00  0.00    +0.006 C 
ATOM      2  C   UNL     1      45.089  16.845  19.517  0.00  0.00    -0.006 C 
ENDBRANCH   3   2
ENDBRANCH   4   3
ENDBRANCH   5   4
ENDBRANCH   6   5
ENDBRANCH   7   6
ENDBRANCH   8   7
ENDBRANCH   9   8
ENDBRANCH  10   9
TORSDOF 15
ENDMDL
MODEL 4
REMARK VINA RESULT:      -4.5      1.532      2.689
REMARK  Name = ZINC43606073
REMARK  17 active torsions:
REMARK  status: ('A' for Active; 'I' for Inactive)
REMARK    1  A    between atoms: C1_1  and  C2_2
REMARK    2  A    between atoms: C2_2  and  C3_3
REMARK    3  A    between atoms: C3_3  and  C4_4
REMARK    4  A    between atoms: C4_4  and  C5_5
REMARK    5  A    between atoms: C5_5  and  C6_6
REMARK    6  A    between atoms: C6_6  and  C7_7
REMARK    7  A    between atoms: C7_7  and  C8_8
REMARK    8  A    between atoms: C8_8  and  C9_9
REMARK    9  A    between atoms: C9_9  and  C10_10
REMARK   10  A    between atoms: C10_10  and  C11_12
REMARK   11  A    between atoms: C10_10  and  O3_24
REMARK   12  A    between atoms: C12_13  and  C13_14
REMARK   13  A    between atoms: C14_15  and  C15_16
REMARK   14  A    between atoms: C15_16  and  C16_18
REMARK   15  A    between atoms: C15_16  and  O1_20
REMARK   16  A    between atoms: O1_20  and  C18_21
REMARK   17  A    between atoms: C18_21  and  C19_23
REMARK                            x       y       z     vdW  Elec       q    Type
REMARK                         _______ _______ _______ _____ _____    ______ ____
ROOT
ATOM     10  C   UNL     1      47.173  15.400  17.098  0.00  0.00    +0.349 C 
ENDROOT
BRANCH  10  11
ATOM     11  O   UNL     1      46.759  15.065  15.772  0.00  0.00    -0.544 OA
ATOM     12  H   UNL     1      47.049  15.696  15.099  0.00  0.00    +0.382 HD
ENDBRANCH  10  11
BRANCH  10  13
ATOM     13  C   UNL     1      46.453  16.601  17.549  0.00  0.00    -0.145 C 
ATOM     14  C   UNL     1      45.878  17.559  17.910  0.00  0.00    -0.064 C 
BRANCH  14  15
ATOM     15  C   UNL     1      45.204  18.683  18.332  0.00  0.00    -0.037 C 
ATOM     16  C   UNL     1      44.630  19.642  18.692  0.00  0.00    -0.121 C 
BRANCH  16  17
ATOM     17  C   UNL     1      43.910  20.843  19.144  0.00  0.00    +0.360 C 
BRANCH  17  22
ATOM     22  C   UNL     1      42.454  20.510  19.347  0.00  0.00    -0.047 C 
ATOM     23  C   UNL     1      41.527  21.276  18.827  0.00  0.00    +0.053 C 
ENDBRANCH  17  22
BRANCH  17  18
ATOM     18  O   UNL     1      44.471  21.300  20.377  0.00  0.00    -0.342 OA
BRANCH  18  19
ATOM     19  C   UNL     1      45.139  22.463  20.348  0.00  0.00    +0.460 C 
ATOM     20  C   UNL     1      44.600  23.622  19.551  0.00  0.00    +0.166 C 
ATOM     21  O   UNL     1      46.175  22.580  20.961  0.00  0.00    -0.501 OA
ENDBRANCH  18  19
ENDBRANCH  17  18
ENDBRANCH  16  17
ENDBRANCH  14  15
ENDBRANCH  10  13
BRANCH  10   9
ATOM      9  C   UNL     1      48.679  15.673  17.108  0.00  0.00    +0.004 C 
BRANCH   9   8
ATOM      8  C   UNL     1      48.925  17.181  17.019  0.00  0.00    +0.021 C 
BRANCH   8   7
ATOM      7  C   UNL     1      50.089  17.562  17.936  0.00  0.00    +0.002 C 
BRANCH   7   6
ATOM      6  C   UNL     1      51.392  17.556  17.133  0.00  0.00    +0.003 C 
BRANCH   6   5
ATOM      5  C   UNL     1      51.318  18.617  16.034  0.00  0.00    +0.000 C 
BRANCH   5   4
ATOM      4  C   UNL     1      52.280  19.761  16.362  0.00  0.00    +0.000 C 
BRANCH   4   3
ATOM      3  C   UNL     1      51.496  21.069  16.482  0.00  0.00    -0.001 C 
BRANCH   3   2
ATOM      1  C   UNL     1      52.055  20.894  18.911  0.00  0.00    +0.006 C 
ATOM      2  C   UNL     1      50.947  21.207  17.903  0.00  0.00    -0.006 C 
ENDBRANCH   3   2
ENDBRANCH   4   3
ENDBRANCH   5   4
ENDBRANCH   6   5
ENDBRANCH   7   6
ENDBRANCH   8   7
ENDBRANCH   9   8
ENDBRANCH  10   9
TORSDOF 15
ENDMDL
MODEL 5
REMARK VINA RESULT:      -4.4      4.983      8.830
REMARK  Name = ZINC43606073
REMARK  17 active torsions:
REMARK  status: ('A' for Active; 'I' for Inactive)
REMARK    1  A    between atoms: C1_1  and  C2_2
REMARK    2  A    between atoms: C2_2  and  C3_3
REMARK    3  A    between atoms: C3_3  and  C4_4
REMARK    4  A    between atoms: C4_4  and  C5_5
REMARK    5  A    between atoms: C5_5  and  C6_6
REMARK    6  A    between atoms: C6_6  and  C7_7
REMARK    7  A    between atoms: C7_7  and  C8_8
REMARK    8  A    between atoms: C8_8  and  C9_9
REMARK    9  A    between atoms: C9_9  and  C10_10
REMARK   10  A    between atoms: C10_10  and  C11_12
REMARK   11  A    between atoms: C10_10  and  O3_24
REMARK   12  A    between atoms: C12_13  and  C13_14
REMARK   13  A    between atoms: C14_15  and  C15_16
REMARK   14  A    between atoms: C15_16  and  C16_18
REMARK   15  A    between atoms: C15_16  and  O1_20
REMARK   16  A    between atoms: O1_20  and  C18_21
REMARK   17  A    between atoms: C18_21  and  C19_23
REMARK                            x       y       z     vdW  Elec       q    Type
REMARK                         _______ _______ _______ _____ _____    ______ ____
ROOT
ATOM     10  C   UNL     1      52.095  20.426  16.718  0.00  0.00    +0.349 C 
ENDROOT
BRANCH  10  11
ATOM     11  O   UNL     1      52.007  20.873  15.363  0.00  0.00    -0.544 OA
ATOM     12  H   UNL     1      51.357  21.575  15.222  0.00  0.00    +0.382 HD
ENDBRANCH  10  11
BRANCH  10  13
ATOM     13  C   UNL     1      51.838  18.978  16.775  0.00  0.00    -0.145 C 
ATOM     14  C   UNL     1      51.634  17.823  16.820  0.00  0.00    -0.064 C 
BRANCH  14  15
ATOM     15  C   UNL     1      51.394  16.468  16.873  0.00  0.00    -0.037 C 
ATOM     16  C   UNL     1      51.190  15.313  16.919  0.00  0.00    -0.121 C 
BRANCH  16  17
ATOM     17  C   UNL     1      50.933  13.864  16.976  0.00  0.00    +0.360 C 
BRANCH  17  22
ATOM     22  C   UNL     1      49.456  13.621  17.147  0.00  0.00    -0.047 C 
ATOM     23  C   UNL     1      48.667  13.613  16.101  0.00  0.00    +0.053 C 
ENDBRANCH  17  22
BRANCH  17  18
ATOM     18  O   UNL     1      51.378  13.254  15.762  0.00  0.00    -0.342 OA
BRANCH  18  19
ATOM     19  C   UNL     1      52.054  12.100  15.872  0.00  0.00    +0.460 C 
ATOM     20  C   UNL     1      52.521  11.628  17.225  0.00  0.00    +0.166 C 
ATOM     21  O   UNL     1      52.290  11.441  14.887  0.00  0.00    -0.501 OA
ENDBRANCH  18  19
ENDBRANCH  17  18
ENDBRANCH  16  17
ENDBRANCH  14  15
ENDBRANCH  10  13
BRANCH  10   9
ATOM      9  C   UNL     1      51.056  21.163  17.566  0.00  0.00    +0.004 C 
BRANCH   9   8
ATOM      8  C   UNL     1      51.415  21.027  19.046  0.00  0.00    +0.021 C 
BRANCH   8   7
ATOM      7  C   UNL     1      50.215  20.469  19.814  0.00  0.00    +0.002 C 
BRANCH   7   6
ATOM      6  C   UNL     1      48.934  20.736  19.020  0.00  0.00    +0.003 C 
BRANCH   6   5
ATOM      5  C   UNL     1      48.047  19.490  19.052  0.00  0.00    +0.000 C 
BRANCH   5   4
ATOM      4  C   UNL     1      48.909  18.256  19.325  0.00  0.00    +0.000 C 
BRANCH   4   3
ATOM      3  C   UNL     1      48.263  17.029  18.681  0.00  0.00    -0.001 C 
BRANCH   3   2
ATOM      1  C   UNL     1      46.594  16.600  16.871  0.00  0.00    +0.006 C 
ATOM      2  C   UNL     1      47.875  17.354  17.237  0.00  0.00    -0.006 C 
ENDBRANCH   3   2
ENDBRANCH   4   3
ENDBRANCH   5   4
ENDBRANCH   6   5
ENDBRANCH   7   6
ENDBRANCH   8   7
ENDBRANCH   9   8
ENDBRANCH  10   9
TORSDOF 15
ENDMDL
MODEL 6
REMARK VINA RESULT:      -4.4      2.733      4.407
REMARK  Name = ZINC43606073
REMARK  17 active torsions:
REMARK  status: ('A' for Active; 'I' for Inactive)
REMARK    1  A    between atoms: C1_1  and  C2_2
REMARK    2  A    between atoms: C2_2  and  C3_3
REMARK    3  A    between atoms: C3_3  and  C4_4
REMARK    4  A    between atoms: C4_4  and  C5_5
REMARK    5  A    between atoms: C5_5  and  C6_6
REMARK    6  A    between atoms: C6_6  and  C7_7
REMARK    7  A    between atoms: C7_7  and  C8_8
REMARK    8  A    between atoms: C8_8  and  C9_9
REMARK    9  A    between atoms: C9_9  and  C10_10
REMARK   10  A    between atoms: C10_10  and  C11_12
REMARK   11  A    between atoms: C10_10  and  O3_24
REMARK   12  A    between atoms: C12_13  and  C13_14
REMARK   13  A    between atoms: C14_15  and  C15_16
REMARK   14  A    between atoms: C15_16  and  C16_18
REMARK   15  A    between atoms: C15_16  and  O1_20
REMARK   16  A    between atoms: O1_20  and  C18_21
REMARK   17  A    between atoms: C18_21  and  C19_23
REMARK                            x       y       z     vdW  Elec       q    Type
REMARK                         _______ _______ _______ _____ _____    ______ ____
ROOT
ATOM     10  C   UNL     1      51.831  21.123  18.145  0.00  0.00    +0.349 C 
ENDROOT
BRANCH  10  11
ATOM     11  O   UNL     1      52.580  21.689  19.223  0.00  0.00    -0.544 OA
ATOM     12  H   UNL     1      53.532  21.740  19.056  0.00  0.00    +0.382 HD
ENDBRANCH  10  11
BRANCH  10  13
ATOM     13  C   UNL     1      50.427  20.965  18.554  0.00  0.00    -0.145 C 
ATOM     14  C   UNL     1      49.306  20.838  18.880  0.00  0.00    -0.064 C 
BRANCH  14  15
ATOM     15  C   UNL     1      47.992  20.689  19.263  0.00  0.00    -0.037 C 
ATOM     16  C   UNL     1      46.871  20.563  19.589  0.00  0.00    -0.121 C 
BRANCH  16  17
ATOM     17  C   UNL     1      45.466  20.404  19.998  0.00  0.00    +0.360 C 
BRANCH  17  22
ATOM     22  C   UNL     1      45.238  18.993  20.477  0.00  0.00    -0.047 C 
ATOM     23  C   UNL     1      45.952  18.512  21.464  0.00  0.00    +0.053 C 
ENDBRANCH  17  22
BRANCH  17  18
ATOM     18  O   UNL     1      45.172  21.319  21.057  0.00  0.00    -0.342 OA
BRANCH  18  19
ATOM     19  C   UNL     1      44.918  22.590  20.710  0.00  0.00    +0.460 C 
ATOM     20  C   UNL     1      43.800  22.899  19.749  0.00  0.00    +0.166 C 
ATOM     21  O   UNL     1      45.587  23.487  21.167  0.00  0.00    -0.501 OA
ENDBRANCH  18  19
ENDBRANCH  17  18
ENDBRANCH  16  17
ENDBRANCH  14  15
ENDBRANCH  10  13
BRANCH  10   9
ATOM      9  C   UNL     1      52.415  19.756  17.782  0.00  0.00    +0.004 C 
BRANCH   9   8
ATOM      8  C   UNL     1      51.807  19.275  16.463  0.00  0.00    +0.021 C 
BRANCH   8   7
ATOM      7  C   UNL     1      51.415  17.801  16.589  0.00  0.00    +0.002 C 
BRANCH   7   6
ATOM      6  C   UNL     1      49.925  17.696  16.921  0.00  0.00    +0.003 C 
BRANCH   6   5
ATOM      5  C   UNL     1      49.711  16.592  17.959  0.00  0.00    +0.000 C 
BRANCH   5   4
ATOM      4  C   UNL     1      49.205  17.210  19.264  0.00  0.00    +0.000 C 
BRANCH   4   3
ATOM      3  C   UNL     1      50.388  17.473  20.197  0.00  0.00    -0.001 C 
BRANCH   3   2
ATOM      1  C   UNL     1      50.900  19.279  21.846  0.00  0.00    +0.006 C 
ATOM      2  C   UNL     1      49.898  18.191  21.455  0.00  0.00    -0.006 C 
ENDBRANCH   3   2
ENDBRANCH   4   3
ENDBRANCH   5   4
ENDBRANCH   6   5
ENDBRANCH   7   6
ENDBRANCH   8   7
ENDBRANCH   9   8
ENDBRANCH  10   9
TORSDOF 15
ENDMDL
MODEL 7
REMARK VINA RESULT:      -4.4      1.718      2.585
REMARK  Name = ZINC43606073
REMARK  17 active torsions:
REMARK  status: ('A' for Active; 'I' for Inactive)
REMARK    1  A    between atoms: C1_1  and  C2_2
REMARK    2  A    between atoms: C2_2  and  C3_3
REMARK    3  A    between atoms: C3_3  and  C4_4
REMARK    4  A    between atoms: C4_4  and  C5_5
REMARK    5  A    between atoms: C5_5  and  C6_6
REMARK    6  A    between atoms: C6_6  and  C7_7
REMARK    7  A    between atoms: C7_7  and  C8_8
REMARK    8  A    between atoms: C8_8  and  C9_9
REMARK    9  A    between atoms: C9_9  and  C10_10
REMARK   10  A    between atoms: C10_10  and  C11_12
REMARK   11  A    between atoms: C10_10  and  O3_24
REMARK   12  A    between atoms: C12_13  and  C13_14
REMARK   13  A    between atoms: C14_15  and  C15_16
REMARK   14  A    between atoms: C15_16  and  C16_18
REMARK   15  A    between atoms: C15_16  and  O1_20
REMARK   16  A    between atoms: O1_20  and  C18_21
REMARK   17  A    between atoms: C18_21  and  C19_23
REMARK                            x       y       z     vdW  Elec       q    Type
REMARK                         _______ _______ _______ _____ _____    ______ ____
ROOT
ATOM     10  C   UNL     1      47.543  14.248  16.803  0.00  0.00    +0.349 C 
ENDROOT
BRANCH  10  11
ATOM     11  O   UNL     1      47.002  13.973  15.509  0.00  0.00    -0.544 OA
ATOM     12  H   UNL     1      46.094  13.639  15.525  0.00  0.00    +0.382 HD
ENDBRANCH  10  11
BRANCH  10  13
ATOM     13  C   UNL     1      46.863  15.418  17.381  0.00  0.00    -0.145 C 
ATOM     14  C   UNL     1      46.322  16.351  17.842  0.00  0.00    -0.064 C 
BRANCH  14  15
ATOM     15  C   UNL     1      45.686  17.447  18.383  0.00  0.00    -0.037 C 
ATOM     16  C   UNL     1      45.144  18.381  18.843  0.00  0.00    -0.121 C 
BRANCH  16  17
ATOM     17  C   UNL     1      44.465  19.552  19.422  0.00  0.00    +0.360 C 
BRANCH  17  22
ATOM     22  C   UNL     1      45.478  20.630  19.710  0.00  0.00    -0.047 C 
ATOM     23  C   UNL     1      45.874  21.430  18.751  0.00  0.00    +0.053 C 
ENDBRANCH  17  22
BRANCH  17  18
ATOM     18  O   UNL     1      43.494  20.045  18.495  0.00  0.00    -0.342 OA
BRANCH  18  19
ATOM     19  C   UNL     1      42.235  20.169  18.941  0.00  0.00    +0.460 C 
ATOM     20  C   UNL     1      41.768  19.348  20.115  0.00  0.00    +0.166 C 
ATOM     21  O   UNL     1      41.474  20.937  18.400  0.00  0.00    -0.501 OA
ENDBRANCH  18  19
ENDBRANCH  17  18
ENDBRANCH  16  17
ENDBRANCH  14  15
ENDBRANCH  10  13
BRANCH  10   9
ATOM      9  C   UNL     1      49.040  14.536  16.679  0.00  0.00    +0.004 C 
BRANCH   9   8
ATOM      8  C   UNL     1      49.560  15.120  17.994  0.00  0.00    +0.021 C 
BRANCH   8   7
ATOM      7  C   UNL     1      50.543  16.254  17.696  0.00  0.00    +0.002 C 
BRANCH   7   6
ATOM      6  C   UNL     1      49.776  17.573  17.572  0.00  0.00    +0.003 C 
BRANCH   6   5
ATOM      5  C   UNL     1      49.438  18.099  18.968  0.00  0.00    +0.000 C 
BRANCH   5   4
ATOM      4  C   UNL     1      48.988  19.557  18.869  0.00  0.00    +0.000 C 
BRANCH   4   3
ATOM      3  C   UNL     1      50.140  20.477  19.276  0.00  0.00    -0.001 C 
BRANCH   3   2
ATOM      1  C   UNL     1      52.180  20.498  17.833  0.00  0.00    +0.006 C 
ATOM      2  C   UNL     1      50.778  21.081  18.024  0.00  0.00    -0.006 C 
ENDBRANCH   3   2
ENDBRANCH   4   3
ENDBRANCH   5   4
ENDBRANCH   6   5
ENDBRANCH   7   6
ENDBRANCH   8   7
ENDBRANCH   9   8
ENDBRANCH  10   9
TORSDOF 15
ENDMDL
MODEL 8
REMARK VINA RESULT:      -4.3     19.265     20.760
REMARK  Name = ZINC43606073
REMARK  17 active torsions:
REMARK  status: ('A' for Active; 'I' for Inactive)
REMARK    1  A    between atoms: C1_1  and  C2_2
REMARK    2  A    between atoms: C2_2  and  C3_3
REMARK    3  A    between atoms: C3_3  and  C4_4
REMARK    4  A    between atoms: C4_4  and  C5_5
REMARK    5  A    between atoms: C5_5  and  C6_6
REMARK    6  A    between atoms: C6_6  and  C7_7
REMARK    7  A    between atoms: C7_7  and  C8_8
REMARK    8  A    between atoms: C8_8  and  C9_9
REMARK    9  A    between atoms: C9_9  and  C10_10
REMARK   10  A    between atoms: C10_10  and  C11_12
REMARK   11  A    between atoms: C10_10  and  O3_24
REMARK   12  A    between atoms: C12_13  and  C13_14
REMARK   13  A    between atoms: C14_15  and  C15_16
REMARK   14  A    between atoms: C15_16  and  C16_18
REMARK   15  A    between atoms: C15_16  and  O1_20
REMARK   16  A    between atoms: O1_20  and  C18_21
REMARK   17  A    between atoms: C18_21  and  C19_23
REMARK                            x       y       z     vdW  Elec       q    Type
REMARK                         _______ _______ _______ _____ _____    ______ ____
ROOT
ATOM     10  C   UNL     1      48.164  35.248   3.146  0.00  0.00    +0.349 C 
ENDROOT
BRANCH  10  11
ATOM     11  O   UNL     1      48.882  34.535   4.156  0.00  0.00    -0.544 OA
ATOM     12  H   UNL     1      49.306  35.105   4.813  0.00  0.00    +0.382 HD
ENDBRANCH  10  11
BRANCH  10  13
ATOM     13  C   UNL     1      46.815  34.676   3.008  0.00  0.00    -0.145 C 
ATOM     14  C   UNL     1      45.739  34.220   2.898  0.00  0.00    -0.064 C 
BRANCH  14  15
ATOM     15  C   UNL     1      44.476  33.686   2.768  0.00  0.00    -0.037 C 
ATOM     16  C   UNL     1      43.400  33.230   2.658  0.00  0.00    -0.121 C 
BRANCH  16  17
ATOM     17  C   UNL     1      42.050  32.659   2.519  0.00  0.00    +0.360 C 
BRANCH  17  22
ATOM     22  C   UNL     1      41.026  33.759   2.620  0.00  0.00    -0.047 C 
ATOM     23  C   UNL     1      39.892  33.661   1.971  0.00  0.00    +0.053 C 
ENDBRANCH  17  22
BRANCH  17  18
ATOM     18  O   UNL     1      41.934  32.015   1.248  0.00  0.00    -0.342 OA
BRANCH  18  19
ATOM     19  C   UNL     1      42.105  30.684   1.222  0.00  0.00    +0.460 C 
ATOM     20  C   UNL     1      42.567  30.009  -0.043  0.00  0.00    +0.166 C 
ATOM     21  O   UNL     1      41.886  30.027   2.212  0.00  0.00    -0.501 OA
ENDBRANCH  18  19
ENDBRANCH  17  18
ENDBRANCH  16  17
ENDBRANCH  14  15
ENDBRANCH  10  13
BRANCH  10   9
ATOM      9  C   UNL     1      48.907  35.131   1.814  0.00  0.00    +0.004 C 
BRANCH   9   8
ATOM      8  C   UNL     1      50.326  34.617   2.064  0.00  0.00    +0.021 C 
BRANCH   8   7
ATOM      7  C   UNL     1      50.521  33.283   1.339  0.00  0.00    +0.002 C 
BRANCH   7   6
ATOM      6  C   UNL     1      51.321  32.331   2.230  0.00  0.00    +0.003 C 
BRANCH   6   5
ATOM      5  C   UNL     1      52.793  32.361   1.813  0.00  0.00    +0.000 C 
BRANCH   5   4
ATOM      4  C   UNL     1      53.676  32.420   3.061  0.00  0.00    +0.000 C 
BRANCH   4   3
ATOM      3  C   UNL     1      52.810  32.715   4.286  0.00  0.00    -0.001 C 
BRANCH   3   2
ATOM      1  C   UNL     1      53.816  33.384   6.474  0.00  0.00    +0.006 C 
ATOM      2  C   UNL     1      53.514  32.206   5.545  0.00  0.00    -0.006 C 
ENDBRANCH   3   2
ENDBRANCH   4   3
ENDBRANCH   5   4
ENDBRANCH   6   5
ENDBRANCH   7   6
ENDBRANCH   8   7
ENDBRANCH   9   8
ENDBRANCH  10   9
TORSDOF 15
ENDMDL
MODEL 9
REMARK VINA RESULT:      -4.3      3.442      6.597
REMARK  Name = ZINC43606073
REMARK  17 active torsions:
REMARK  status: ('A' for Active; 'I' for Inactive)
REMARK    1  A    between atoms: C1_1  and  C2_2
REMARK    2  A    between atoms: C2_2  and  C3_3
REMARK    3  A    between atoms: C3_3  and  C4_4
REMARK    4  A    between atoms: C4_4  and  C5_5
REMARK    5  A    between atoms: C5_5  and  C6_6
REMARK    6  A    between atoms: C6_6  and  C7_7
REMARK    7  A    between atoms: C7_7  and  C8_8
REMARK    8  A    between atoms: C8_8  and  C9_9
REMARK    9  A    between atoms: C9_9  and  C10_10
REMARK   10  A    between atoms: C10_10  and  C11_12
REMARK   11  A    between atoms: C10_10  and  O3_24
REMARK   12  A    between atoms: C12_13  and  C13_14
REMARK   13  A    between atoms: C14_15  and  C15_16
REMARK   14  A    between atoms: C15_16  and  C16_18
REMARK   15  A    between atoms: C15_16  and  O1_20
REMARK   16  A    between atoms: O1_20  and  C18_21
REMARK   17  A    between atoms: C18_21  and  C19_23
REMARK                            x       y       z     vdW  Elec       q    Type
REMARK                         _______ _______ _______ _____ _____    ______ ____
ROOT
ATOM     10  C   UNL     1      51.967  19.717  16.361  0.00  0.00    +0.349 C 
ENDROOT
BRANCH  10  11
ATOM     11  O   UNL     1      51.794  20.165  15.015  0.00  0.00    -0.544 OA
ATOM     12  H   UNL     1      52.615  20.434  14.581  0.00  0.00    +0.382 HD
ENDBRANCH  10  11
BRANCH  10  13
ATOM     13  C   UNL     1      50.945  18.708  16.678  0.00  0.00    -0.145 C 
ATOM     14  C   UNL     1      50.129  17.902  16.931  0.00  0.00    -0.064 C 
BRANCH  14  15
ATOM     15  C   UNL     1      49.172  16.958  17.228  0.00  0.00    -0.037 C 
ATOM     16  C   UNL     1      48.357  16.152  17.481  0.00  0.00    -0.121 C 
BRANCH  16  17
ATOM     17  C   UNL     1      47.333  15.142  17.798  0.00  0.00    +0.360 C 
BRANCH  17  22
ATOM     22  C   UNL     1      46.083  15.829  18.284  0.00  0.00    -0.047 C 
ATOM     23  C   UNL     1      45.795  15.840  19.562  0.00  0.00    +0.053 C 
ENDBRANCH  17  22
BRANCH  17  18
ATOM     18  O   UNL     1      47.035  14.382  16.625  0.00  0.00    -0.342 OA
BRANCH  18  19
ATOM     19  C   UNL     1      47.109  13.046  16.730  0.00  0.00    +0.460 C 
ATOM     20  C   UNL     1      45.853  12.234  16.911  0.00  0.00    +0.166 C 
ATOM     21  O   UNL     1      48.184  12.495  16.681  0.00  0.00    -0.501 OA
ENDBRANCH  18  19
ENDBRANCH  17  18
ENDBRANCH  16  17
ENDBRANCH  14  15
ENDBRANCH  10  13
BRANCH  10   9
ATOM      9  C   UNL     1      51.825  20.905  17.315  0.00  0.00    +0.004 C 
BRANCH   9   8
ATOM      8  C   UNL     1      52.262  20.487  18.720  0.00  0.00    +0.021 C 
BRANCH   8   7
ATOM      7  C   UNL     1      51.298  21.077  19.751  0.00  0.00    +0.002 C 
BRANCH   7   6
ATOM      6  C   UNL     1      49.863  20.966  19.229  0.00  0.00    +0.003 C 
BRANCH   6   5
ATOM      5  C   UNL     1      49.141  19.834  19.964  0.00  0.00    +0.000 C 
BRANCH   5   4
ATOM      4  C   UNL     1      47.637  20.113  19.976  0.00  0.00    +0.000 C 
BRANCH   4   3
ATOM      3  C   UNL     1      46.968  19.357  18.827  0.00  0.00    -0.001 C 
BRANCH   3   2
ATOM      1  C   UNL     1      45.629  21.460  18.997  0.00  0.00    +0.006 C 
ATOM      2  C   UNL     1      45.627  20.014  18.496  0.00  0.00    -0.006 C 
ENDBRANCH   3   2
ENDBRANCH   4   3
ENDBRANCH   5   4
ENDBRANCH   6   5
ENDBRANCH   7   6
ENDBRANCH   8   7
ENDBRANCH   9   8
ENDBRANCH  10   9
TORSDOF 15
ENDMDL
