MODEL 1
REMARK VINA RESULT:      -6.3      0.000      0.000
REMARK  Name = ZINC95486251
REMARK  5 active torsions:
REMARK  status: ('A' for Active; 'I' for Inactive)
REMARK    1  A    between atoms: C1_1  and  C2_2
REMARK    2  A    between atoms: C6_6  and  C19_25
REMARK    3  A    between atoms: C6_6  and  C20_26
REMARK    4  A    between atoms: C10_11  and  C18_24
REMARK    5  A    between atoms: C14_16  and  C17_21
REMARK                            x       y       z     vdW  Elec       q    Type
REMARK                         _______ _______ _______ _____ _____    ______ ____
ROOT
ATOM      1  C   UNL     1      45.696  16.657  18.975  0.00  0.00    +0.014 C 
ATOM      2  C   UNL     1      45.253  16.992  20.413  0.00  0.00    -0.032 C 
ATOM      3  C   UNL     1      46.454  17.556  21.168  0.00  0.00    +0.022 C 
ATOM      4  C   UNL     1      47.551  16.504  21.327  0.00  0.00    -0.005 C 
ATOM      5  C   UNL     1      47.013  15.302  22.097  0.00  0.00    +0.011 C 
ATOM      6  C   UNL     1      45.817  14.688  21.375  0.00  0.00    -0.050 C 
ATOM      7  C   UNL     1      46.281  13.964  20.109  0.00  0.00    +0.018 C 
ATOM      8  C   UNL     1      45.247  13.579  22.291  0.00  0.00    +0.010 C 
ATOM      9  C   UNL     1      44.156  18.066  20.278  0.00  0.00    -0.048 C 
ATOM     10  C   UNL     1      44.555  19.062  19.195  0.00  0.00    +0.019 C 
ATOM     11  C   UNL     1      43.792  20.399  19.128  0.00  0.00    +0.021 C 
ATOM     12  C   UNL     1      44.595  21.457  19.956  0.00  0.00    -0.087 C 
ATOM     16  C   UNL     1      44.448  21.169  21.402  0.00  0.00    -0.012 C 
ATOM     17  C   UNL     1      45.123  19.912  21.876  0.00  0.00    +0.188 C 
ATOM     18  O   UNL     1      44.174  19.076  22.505  0.00  0.00    -0.357 OA
ATOM     19  C   UNL     1      43.395  18.365  21.513  0.00  0.00    +0.138 C 
ATOM     20  C   UNL     1      42.066  19.107  21.225  0.00  0.00    +0.013 C 
ATOM     21  C   UNL     1      42.918  17.049  22.179  0.00  0.00    +0.016 C 
ATOM     22  C   UNL     1      44.120  16.152  22.451  0.00  0.00    +0.016 C 
ATOM     23  C   UNL     1      44.741  15.734  21.110  0.00  0.00    +0.010 C 
ENDROOT
BRANCH  12  13
ATOM     13  C   UNL     1      44.060  22.834  19.651  0.00  0.00    +0.493 C 
ATOM     14  O   UNL     1      42.859  23.008  19.528  0.00  0.00    -0.701 OA
ATOM     15  O   UNL     1      44.828  23.773  19.529  0.00  0.00    -0.700 OA
ENDBRANCH  12  13
TORSDOF 1
ENDMDL
MODEL 2
REMARK VINA RESULT:      -5.8      2.481      4.351
REMARK  Name = ZINC95486251
REMARK  5 active torsions:
REMARK  status: ('A' for Active; 'I' for Inactive)
REMARK    1  A    between atoms: C1_1  and  C2_2
REMARK    2  A    between atoms: C6_6  and  C19_25
REMARK    3  A    between atoms: C6_6  and  C20_26
REMARK    4  A    between atoms: C10_11  and  C18_24
REMARK    5  A    between atoms: C14_16  and  C17_21
REMARK                            x       y       z     vdW  Elec       q    Type
REMARK                         _______ _______ _______ _____ _____    ______ ____
ROOT
ATOM      1  C   UNL     1      46.610  16.576  20.104  0.00  0.00    +0.014 C 
ATOM      2  C   UNL     1      46.695  17.988  19.491  0.00  0.00    -0.032 C 
ATOM      3  C   UNL     1      46.232  17.911  18.038  0.00  0.00    +0.022 C 
ATOM      4  C   UNL     1      47.181  17.056  17.199  0.00  0.00    -0.005 C 
ATOM      5  C   UNL     1      48.584  17.652  17.230  0.00  0.00    +0.011 C 
ATOM      6  C   UNL     1      49.105  17.737  18.663  0.00  0.00    -0.050 C 
ATOM      7  C   UNL     1      49.434  16.337  19.187  0.00  0.00    +0.018 C 
ATOM      8  C   UNL     1      50.459  18.482  18.617  0.00  0.00    +0.010 C 
ATOM      9  C   UNL     1      45.732  18.865  20.312  0.00  0.00    -0.048 C 
ATOM     10  C   UNL     1      44.459  18.079  20.607  0.00  0.00    +0.019 C 
ATOM     11  C   UNL     1      43.228  18.859  21.106  0.00  0.00    +0.021 C 
ATOM     12  C   UNL     1      42.345  19.217  19.863  0.00  0.00    -0.087 C 
ATOM     16  C   UNL     1      43.005  20.286  19.078  0.00  0.00    -0.012 C 
ATOM     17  C   UNL     1      44.271  19.877  18.378  0.00  0.00    +0.188 C 
ATOM     18  O   UNL     1      45.327  20.726  18.778  0.00  0.00    -0.357 OA
ATOM     19  C   UNL     1      45.831  20.324  20.074  0.00  0.00    +0.138 C 
ATOM     20  C   UNL     1      45.170  21.155  21.203  0.00  0.00    +0.013 C 
ATOM     21  C   UNL     1      47.312  20.776  20.137  0.00  0.00    +0.016 C 
ATOM     22  C   UNL     1      48.131  19.975  19.131  0.00  0.00    +0.016 C 
ATOM     23  C   UNL     1      48.133  18.499  19.554  0.00  0.00    +0.010 C 
ENDROOT
BRANCH  12  13
ATOM     13  C   UNL     1      40.993  19.689  20.336  0.00  0.00    +0.493 C 
ATOM     14  O   UNL     1      40.539  19.280  21.392  0.00  0.00    -0.701 OA
ATOM     15  O   UNL     1      40.355  20.481  19.664  0.00  0.00    -0.700 OA
ENDBRANCH  12  13
TORSDOF 1
ENDMDL
MODEL 3
REMARK VINA RESULT:      -5.7      4.350      6.273
REMARK  Name = ZINC95486251
REMARK  5 active torsions:
REMARK  status: ('A' for Active; 'I' for Inactive)
REMARK    1  A    between atoms: C1_1  and  C2_2
REMARK    2  A    between atoms: C6_6  and  C19_25
REMARK    3  A    between atoms: C6_6  and  C20_26
REMARK    4  A    between atoms: C10_11  and  C18_24
REMARK    5  A    between atoms: C14_16  and  C17_21
REMARK                            x       y       z     vdW  Elec       q    Type
REMARK                         _______ _______ _______ _____ _____    ______ ____
ROOT
ATOM      1  C   UNL     1      46.226  21.492  18.768  0.00  0.00    +0.014 C 
ATOM      2  C   UNL     1      46.651  20.253  19.581  0.00  0.00    -0.032 C 
ATOM      3  C   UNL     1      46.386  19.009  18.738  0.00  0.00    +0.022 C 
ATOM      4  C   UNL     1      44.890  18.822  18.484  0.00  0.00    -0.005 C 
ATOM      5  C   UNL     1      44.150  18.677  19.810  0.00  0.00    +0.011 C 
ATOM      6  C   UNL     1      44.369  19.907  20.689  0.00  0.00    -0.050 C 
ATOM      7  C   UNL     1      43.601  21.103  20.122  0.00  0.00    +0.018 C 
ATOM      8  C   UNL     1      43.714  19.615  22.059  0.00  0.00    +0.010 C 
ATOM      9  C   UNL     1      48.162  20.413  19.836  0.00  0.00    -0.048 C 
ATOM     10  C   UNL     1      48.833  20.945  18.574  0.00  0.00    +0.019 C 
ATOM     11  C   UNL     1      50.369  20.853  18.480  0.00  0.00    +0.021 C 
ATOM     12  C   UNL     1      50.729  19.525  17.733  0.00  0.00    -0.087 C 
ATOM     16  C   UNL     1      50.474  18.371  18.626  0.00  0.00    -0.012 C 
ATOM     17  C   UNL     1      49.026  18.104  18.929  0.00  0.00    +0.188 C 
ATOM     18  O   UNL     1      48.828  18.111  20.327  0.00  0.00    -0.357 OA
ATOM     19  C   UNL     1      48.751  19.472  20.817  0.00  0.00    +0.138 C 
ATOM     20  C   UNL     1      50.131  19.946  21.338  0.00  0.00    +0.013 C 
ATOM     21  C   UNL     1      47.890  19.436  22.105  0.00  0.00    +0.016 C 
ATOM     22  C   UNL     1      46.455  19.065  21.747  0.00  0.00    +0.016 C 
ATOM     23  C   UNL     1      45.855  20.183  20.882  0.00  0.00    +0.010 C 
ENDROOT
BRANCH  12  13
ATOM     13  C   UNL     1      52.185  19.557  17.342  0.00  0.00    +0.493 C 
ATOM     14  O   UNL     1      52.500  19.708  16.173  0.00  0.00    -0.701 OA
ATOM     15  O   UNL     1      53.049  19.434  18.194  0.00  0.00    -0.700 OA
ENDBRANCH  12  13
TORSDOF 1
ENDMDL
MODEL 4
REMARK VINA RESULT:      -5.6      3.908      5.433
REMARK  Name = ZINC95486251
REMARK  5 active torsions:
REMARK  status: ('A' for Active; 'I' for Inactive)
REMARK    1  A    between atoms: C1_1  and  C2_2
REMARK    2  A    between atoms: C6_6  and  C19_25
REMARK    3  A    between atoms: C6_6  and  C20_26
REMARK    4  A    between atoms: C10_11  and  C18_24
REMARK    5  A    between atoms: C14_16  and  C17_21
REMARK                            x       y       z     vdW  Elec       q    Type
REMARK                         _______ _______ _______ _____ _____    ______ ____
ROOT
ATOM      1  C   UNL     1      50.142  20.925  18.544  0.00  0.00    +0.014 C 
ATOM      2  C   UNL     1      49.558  19.516  18.769  0.00  0.00    -0.032 C 
ATOM      3  C   UNL     1      50.089  18.981  20.096  0.00  0.00    +0.022 C 
ATOM      4  C   UNL     1      51.603  18.780  20.045  0.00  0.00    -0.005 C 
ATOM      5  C   UNL     1      51.960  17.786  18.944  0.00  0.00    +0.011 C 
ATOM      6  C   UNL     1      51.464  18.282  17.587  0.00  0.00    -0.050 C 
ATOM      7  C   UNL     1      52.313  19.466  17.118  0.00  0.00    +0.018 C 
ATOM      8  C   UNL     1      51.733  17.157  16.561  0.00  0.00    +0.010 C 
ATOM      9  C   UNL     1      48.030  19.698  18.840  0.00  0.00    -0.048 C 
ATOM     10  C   UNL     1      47.707  20.953  19.643  0.00  0.00    +0.019 C 
ATOM     11  C   UNL     1      46.260  21.142  20.137  0.00  0.00    +0.021 C 
ATOM     12  C   UNL     1      46.166  20.568  21.590  0.00  0.00    -0.087 C 
ATOM     16  C   UNL     1      46.212  19.088  21.542  0.00  0.00    -0.012 C 
ATOM     17  C   UNL     1      47.532  18.502  21.125  0.00  0.00    +0.188 C 
ATOM     18  O   UNL     1      47.343  17.661  20.006  0.00  0.00    -0.357 OA
ATOM     19  C   UNL     1      47.232  18.450  18.798  0.00  0.00    +0.138 C 
ATOM     20  C   UNL     1      45.746  18.708  18.444  0.00  0.00    +0.013 C 
ATOM     21  C   UNL     1      47.711  17.549  17.630  0.00  0.00    +0.016 C 
ATOM     22  C   UNL     1      49.202  17.270  17.783  0.00  0.00    +0.016 C 
ATOM     23  C   UNL     1      49.973  18.590  17.628  0.00  0.00    +0.010 C 
ENDROOT
BRANCH  12  13
ATOM     13  C   UNL     1      44.871  21.019  22.217  0.00  0.00    +0.493 C 
ATOM     14  O   UNL     1      44.708  22.194  22.504  0.00  0.00    -0.701 OA
ATOM     15  O   UNL     1      43.985  20.210  22.438  0.00  0.00    -0.700 OA
ENDBRANCH  12  13
TORSDOF 1
ENDMDL
MODEL 5
REMARK VINA RESULT:      -5.6      3.146      4.890
REMARK  Name = ZINC95486251
REMARK  5 active torsions:
REMARK  status: ('A' for Active; 'I' for Inactive)
REMARK    1  A    between atoms: C1_1  and  C2_2
REMARK    2  A    between atoms: C6_6  and  C19_25
REMARK    3  A    between atoms: C6_6  and  C20_26
REMARK    4  A    between atoms: C10_11  and  C18_24
REMARK    5  A    between atoms: C14_16  and  C17_21
REMARK                            x       y       z     vdW  Elec       q    Type
REMARK                         _______ _______ _______ _____ _____    ______ ____
ROOT
ATOM      1  C   UNL     1      47.995  18.340  19.674  0.00  0.00    +0.014 C 
ATOM      2  C   UNL     1      47.796  19.793  20.148  0.00  0.00    -0.032 C 
ATOM      3  C   UNL     1      47.916  20.715  18.937  0.00  0.00    +0.022 C 
ATOM      4  C   UNL     1      49.327  20.679  18.352  0.00  0.00    -0.005 C 
ATOM      5  C   UNL     1      50.339  21.123  19.403  0.00  0.00    +0.011 C 
ATOM      6  C   UNL     1      50.273  20.221  20.634  0.00  0.00    -0.050 C 
ATOM      7  C   UNL     1      50.861  18.846  20.310  0.00  0.00    +0.018 C 
ATOM      8  C   UNL     1      51.217  20.826  21.699  0.00  0.00    +0.010 C 
ATOM      9  C   UNL     1      46.370  19.858  20.729  0.00  0.00    -0.048 C 
ATOM     10  C   UNL     1      45.426  19.056  19.840  0.00  0.00    +0.019 C 
ATOM     11  C   UNL     1      43.910  19.263  20.025  0.00  0.00    +0.021 C 
ATOM     12  C   UNL     1      43.443  20.352  19.002  0.00  0.00    -0.087 C 
ATOM     16  C   UNL     1      43.923  21.683  19.441  0.00  0.00    -0.012 C 
ATOM     17  C   UNL     1      45.410  21.885  19.362  0.00  0.00    +0.188 C 
ATOM     18  O   UNL     1      45.904  22.257  20.632  0.00  0.00    -0.357 OA
ATOM     19  C   UNL     1      46.038  21.091  21.480  0.00  0.00    +0.138 C 
ATOM     20  C   UNL     1      44.787  20.919  22.378  0.00  0.00    +0.013 C 
ATOM     21  C   UNL     1      47.156  21.409  22.505  0.00  0.00    +0.016 C 
ATOM     22  C   UNL     1      48.492  21.524  21.780  0.00  0.00    +0.016 C 
ATOM     23  C   UNL     1      48.855  20.154  21.187  0.00  0.00    +0.010 C 
ENDROOT
BRANCH  12  13
ATOM     13  C   UNL     1      41.937  20.349  18.930  0.00  0.00    +0.493 C 
ATOM     14  O   UNL     1      41.356  21.191  18.266  0.00  0.00    -0.701 OA
ATOM     15  O   UNL     1      41.299  19.504  19.535  0.00  0.00    -0.700 OA
ENDBRANCH  12  13
TORSDOF 1
ENDMDL
MODEL 6
REMARK VINA RESULT:      -5.6      3.266      6.546
REMARK  Name = ZINC95486251
REMARK  5 active torsions:
REMARK  status: ('A' for Active; 'I' for Inactive)
REMARK    1  A    between atoms: C1_1  and  C2_2
REMARK    2  A    between atoms: C6_6  and  C19_25
REMARK    3  A    between atoms: C6_6  and  C20_26
REMARK    4  A    between atoms: C10_11  and  C18_24
REMARK    5  A    between atoms: C14_16  and  C17_21
REMARK                            x       y       z     vdW  Elec       q    Type
REMARK                         _______ _______ _______ _____ _____    ______ ____
ROOT
ATOM      1  C   UNL     1      44.557  20.304  18.713  0.00  0.00    +0.014 C 
ATOM      2  C   UNL     1      45.794  19.983  19.576  0.00  0.00    -0.032 C 
ATOM      3  C   UNL     1      45.335  19.198  20.802  0.00  0.00    +0.022 C 
ATOM      4  C   UNL     1      44.436  20.049  21.699  0.00  0.00    -0.005 C 
ATOM      5  C   UNL     1      45.192  21.287  22.169  0.00  0.00    +0.011 C 
ATOM      6  C   UNL     1      45.662  22.120  20.979  0.00  0.00    -0.050 C 
ATOM      7  C   UNL     1      44.468  22.813  20.317  0.00  0.00    +0.018 C 
ATOM      8  C   UNL     1      46.539  23.265  21.536  0.00  0.00    +0.010 C 
ATOM      9  C   UNL     1      46.708  19.110  18.695  0.00  0.00    -0.048 C 
ATOM     10  C   UNL     1      45.858  18.110  17.919  0.00  0.00    +0.019 C 
ATOM     11  C   UNL     1      46.573  16.920  17.251  0.00  0.00    +0.021 C 
ATOM     12  C   UNL     1      46.529  15.710  18.243  0.00  0.00    -0.087 C 
ATOM     16  C   UNL     1      47.467  15.955  19.364  0.00  0.00    -0.012 C 
ATOM     17  C   UNL     1      47.070  17.062  20.300  0.00  0.00    +0.188 C 
ATOM     18  O   UNL     1      48.111  18.014  20.373  0.00  0.00    -0.357 OA
ATOM     19  C   UNL     1      48.077  18.885  19.217  0.00  0.00    +0.138 C 
ATOM     20  C   UNL     1      49.053  18.383  18.122  0.00  0.00    +0.013 C 
ATOM     21  C   UNL     1      48.711  20.231  19.652  0.00  0.00    +0.016 C 
ATOM     22  C   UNL     1      47.811  20.906  20.681  0.00  0.00    +0.016 C 
ATOM     23  C   UNL     1      46.480  21.276  20.009  0.00  0.00    +0.010 C 
ENDROOT
BRANCH  12  13
ATOM     13  C   UNL     1      46.926  14.454  17.509  0.00  0.00    +0.493 C 
ATOM     14  O   UNL     1      47.306  13.477  18.132  0.00  0.00    -0.701 OA
ATOM     15  O   UNL     1      46.866  14.414  16.292  0.00  0.00    -0.700 OA
ENDBRANCH  12  13
TORSDOF 1
ENDMDL
MODEL 7
REMARK VINA RESULT:      -5.5     22.692     24.762
REMARK  Name = ZINC95486251
REMARK  5 active torsions:
REMARK  status: ('A' for Active; 'I' for Inactive)
REMARK    1  A    between atoms: C1_1  and  C2_2
REMARK    2  A    between atoms: C6_6  and  C19_25
REMARK    3  A    between atoms: C6_6  and  C20_26
REMARK    4  A    between atoms: C10_11  and  C18_24
REMARK    5  A    between atoms: C14_16  and  C17_21
REMARK                            x       y       z     vdW  Elec       q    Type
REMARK                         _______ _______ _______ _____ _____    ______ ____
ROOT
ATOM      1  C   UNL     1      54.312  31.656   2.127  0.00  0.00    +0.014 C 
ATOM      2  C   UNL     1      54.328  32.755   3.207  0.00  0.00    -0.032 C 
ATOM      3  C   UNL     1      54.653  34.087   2.534  0.00  0.00    +0.022 C 
ATOM      4  C   UNL     1      56.067  34.081   1.952  0.00  0.00    -0.005 C 
ATOM      5  C   UNL     1      57.085  33.835   3.061  0.00  0.00    +0.011 C 
ATOM      6  C   UNL     1      56.815  32.504   3.759  0.00  0.00    -0.050 C 
ATOM      7  C   UNL     1      57.188  31.341   2.837  0.00  0.00    +0.018 C 
ATOM      8  C   UNL     1      57.792  32.405   4.954  0.00  0.00    +0.010 C 
ATOM      9  C   UNL     1      52.905  32.790   3.797  0.00  0.00    -0.048 C 
ATOM     10  C   UNL     1      51.888  32.638   2.671  0.00  0.00    +0.019 C 
ATOM     11  C   UNL     1      50.418  32.990   2.974  0.00  0.00    +0.021 C 
ATOM     12  C   UNL     1      50.183  34.481   2.561  0.00  0.00    -0.087 C 
ATOM     16  C   UNL     1      50.850  35.376   3.536  0.00  0.00    -0.012 C 
ATOM     17  C   UNL     1      52.353  35.342   3.511  0.00  0.00    +0.188 C 
ATOM     18  O   UNL     1      52.838  35.021   4.798  0.00  0.00    -0.357 OA
ATOM     19  C   UNL     1      52.741  33.595   5.030  0.00  0.00    +0.138 C 
ATOM     20  C   UNL     1      51.436  33.250   5.793  0.00  0.00    +0.013 C 
ATOM     21  C   UNL     1      53.845  33.232   6.055  0.00  0.00    +0.016 C 
ATOM     22  C   UNL     1      55.215  33.434   5.419  0.00  0.00    +0.016 C 
ATOM     23  C   UNL     1      55.380  32.434   4.265  0.00  0.00    +0.010 C 
ENDROOT
BRANCH  12  13
ATOM     13  C   UNL     1      48.701  34.761   2.540  0.00  0.00    +0.493 C 
ATOM     14  O   UNL     1      48.147  35.038   1.490  0.00  0.00    -0.701 OA
ATOM     15  O   UNL     1      48.056  34.709   3.574  0.00  0.00    -0.700 OA
ENDBRANCH  12  13
TORSDOF 1
ENDMDL
MODEL 8
REMARK VINA RESULT:      -5.5      4.729      7.333
REMARK  Name = ZINC95486251
REMARK  5 active torsions:
REMARK  status: ('A' for Active; 'I' for Inactive)
REMARK    1  A    between atoms: C1_1  and  C2_2
REMARK    2  A    between atoms: C6_6  and  C19_25
REMARK    3  A    between atoms: C6_6  and  C20_26
REMARK    4  A    between atoms: C10_11  and  C18_24
REMARK    5  A    between atoms: C14_16  and  C17_21
REMARK                            x       y       z     vdW  Elec       q    Type
REMARK                         _______ _______ _______ _____ _____    ______ ____
ROOT
ATOM      1  C   UNL     1      51.375  16.887  18.797  0.00  0.00    +0.014 C 
ATOM      2  C   UNL     1      50.178  17.807  18.488  0.00  0.00    -0.032 C 
ATOM      3  C   UNL     1      49.981  17.849  16.975  0.00  0.00    +0.022 C 
ATOM      4  C   UNL     1      51.175  18.504  16.280  0.00  0.00    -0.005 C 
ATOM      5  C   UNL     1      51.354  19.932  16.787  0.00  0.00    +0.011 C 
ATOM      6  C   UNL     1      51.571  19.946  18.299  0.00  0.00    -0.050 C 
ATOM      7  C   UNL     1      52.961  19.403  18.636  0.00  0.00    +0.018 C 
ATOM      8  C   UNL     1      51.594  21.426  18.746  0.00  0.00    +0.010 C 
ATOM      9  C   UNL     1      48.958  17.156  19.167  0.00  0.00    -0.048 C 
ATOM     10  C   UNL     1      49.016  15.645  18.969  0.00  0.00    +0.019 C 
ATOM     11  C   UNL     1      47.739  14.830  19.253  0.00  0.00    +0.021 C 
ATOM     12  C   UNL     1      46.963  14.660  17.905  0.00  0.00    -0.087 C 
ATOM     16  C   UNL     1      46.344  15.952  17.524  0.00  0.00    -0.012 C 
ATOM     17  C   UNL     1      47.310  17.032  17.124  0.00  0.00    +0.188 C 
ATOM     18  O   UNL     1      47.105  18.171  17.934  0.00  0.00    -0.357 OA
ATOM     19  C   UNL     1      47.734  17.990  19.225  0.00  0.00    +0.138 C 
ATOM     20  C   UNL     1      46.711  17.469  20.266  0.00  0.00    +0.013 C 
ATOM     21  C   UNL     1      48.078  19.404  19.757  0.00  0.00    +0.016 C 
ATOM     22  C   UNL     1      49.155  20.030  18.879  0.00  0.00    +0.016 C 
ATOM     23  C   UNL     1      50.448  19.212  19.020  0.00  0.00    +0.010 C 
ENDROOT
BRANCH  12  13
ATOM     13  C   UNL     1      45.894  13.611  18.078  0.00  0.00    +0.493 C 
ATOM     14  O   UNL     1      45.704  12.783  17.202  0.00  0.00    -0.701 OA
ATOM     15  O   UNL     1      45.220  13.590  19.093  0.00  0.00    -0.700 OA
ENDBRANCH  12  13
TORSDOF 1
ENDMDL
MODEL 9
REMARK VINA RESULT:      -5.4      3.843      6.110
REMARK  Name = ZINC95486251
REMARK  5 active torsions:
REMARK  status: ('A' for Active; 'I' for Inactive)
REMARK    1  A    between atoms: C1_1  and  C2_2
REMARK    2  A    between atoms: C6_6  and  C19_25
REMARK    3  A    between atoms: C6_6  and  C20_26
REMARK    4  A    between atoms: C10_11  and  C18_24
REMARK    5  A    between atoms: C14_16  and  C17_21
REMARK                            x       y       z     vdW  Elec       q    Type
REMARK                         _______ _______ _______ _____ _____    ______ ____
ROOT
ATOM      1  C   UNL     1      48.574  20.777  19.245  0.00  0.00    +0.014 C 
ATOM      2  C   UNL     1      48.881  19.275  19.079  0.00  0.00    -0.032 C 
ATOM      3  C   UNL     1      49.563  18.779  20.351  0.00  0.00    +0.022 C 
ATOM      4  C   UNL     1      50.926  19.443  20.544  0.00  0.00    -0.005 C 
ATOM      5  C   UNL     1      51.830  19.131  19.355  0.00  0.00    +0.011 C 
ATOM      6  C   UNL     1      51.201  19.623  18.053  0.00  0.00    -0.050 C 
ATOM      7  C   UNL     1      51.250  21.151  17.990  0.00  0.00    +0.018 C 
ATOM      8  C   UNL     1      52.104  19.139  16.895  0.00  0.00    +0.010 C 
ATOM      9  C   UNL     1      47.517  18.582  18.899  0.00  0.00    -0.048 C 
ATOM     10  C   UNL     1      46.506  19.201  19.858  0.00  0.00    +0.019 C 
ATOM     11  C   UNL     1      45.185  18.445  20.101  0.00  0.00    +0.021 C 
ATOM     12  C   UNL     1      45.369  17.548  21.371  0.00  0.00    -0.087 C 
ATOM     16  C   UNL     1      46.247  16.400  21.045  0.00  0.00    -0.012 C 
ATOM     17  C   UNL     1      47.683  16.750  20.774  0.00  0.00    +0.188 C 
ATOM     18  O   UNL     1      48.053  16.272  19.497  0.00  0.00    -0.357 OA
ATOM     19  C   UNL     1      47.568  17.166  18.466  0.00  0.00    +0.138 C 
ATOM     20  C   UNL     1      46.213  16.669  17.901  0.00  0.00    +0.013 C 
ATOM     21  C   UNL     1      48.523  17.012  17.256  0.00  0.00    +0.016 C 
ATOM     22  C   UNL     1      49.902  17.547  17.625  0.00  0.00    +0.016 C 
ATOM     23  C   UNL     1      49.797  19.059  17.876  0.00  0.00    +0.010 C 
ENDROOT
BRANCH  12  13
ATOM     13  C   UNL     1      44.020  17.048  21.823  0.00  0.00    +0.493 C 
ATOM     14  O   UNL     1      43.913  15.936  22.313  0.00  0.00    -0.701 OA
ATOM     15  O   UNL     1      43.035  17.757  21.700  0.00  0.00    -0.700 OA
ENDBRANCH  12  13
TORSDOF 1
ENDMDL
