MODEL 1
REMARK VINA RESULT:      -5.4      0.000      0.000
REMARK  Name = ZINC02389301
REMARK  1 active torsions:
REMARK  status: ('A' for Active; 'I' for Inactive)
REMARK    1  A    between atoms: C8_10  and  C9_11
REMARK                            x       y       z     vdW  Elec       q    Type
REMARK                         _______ _______ _______ _____ _____    ______ ____
ROOT
ATOM      1  C   UNL     1      36.979  34.246  11.508  0.00  0.00    +0.091 A 
ATOM      2  C   UNL     1      36.475  34.504  10.269  0.00  0.00    -0.018 A 
ATOM      3  C   UNL     1      35.611  33.595   9.659  0.00  0.00    +0.124 A 
ATOM      4  C   UNL     1      35.261  32.406  10.331  0.00  0.00    -0.131 A 
ATOM      5  C   UNL     1      35.776  32.144  11.596  0.00  0.00    +0.128 A 
ATOM      6  C   UNL     1      34.355  31.685   9.431  0.00  0.00    -0.042 A 
ATOM      7  C   UNL     1      34.214  32.441   8.332  0.00  0.00    +0.222 A 
ATOM      8  N   UNL     1      34.961  33.582   8.450  0.00  0.00    -0.592 N 
ATOM      9  H   UNL     1      35.020  34.280   7.779  0.00  0.00    +0.419 HD
ATOM     10  C   UNL     1      36.639  33.066  12.189  0.00  0.00    -0.223 A 
ENDROOT
BRANCH  10  11
ATOM     11  C   UNL     1      37.192  32.802  13.525  0.00  0.00    +0.489 C 
ATOM     12  O   UNL     1      38.316  32.363  13.639  0.00  0.00    -0.467 OA
ENDBRANCH  10  11
TORSDOF 1
ENDMDL
MODEL 2
REMARK VINA RESULT:      -5.2      2.659      4.123
REMARK  Name = ZINC02389301
REMARK  1 active torsions:
REMARK  status: ('A' for Active; 'I' for Inactive)
REMARK    1  A    between atoms: C8_10  and  C9_11
REMARK                            x       y       z     vdW  Elec       q    Type
REMARK                         _______ _______ _______ _____ _____    ______ ____
ROOT
ATOM      1  C   UNL     1      35.622  34.287   9.094  0.00  0.00    +0.091 A 
ATOM      2  C   UNL     1      36.383  34.791  10.106  0.00  0.00    -0.018 A 
ATOM      3  C   UNL     1      36.604  34.040  11.259  0.00  0.00    +0.124 A 
ATOM      4  C   UNL     1      36.037  32.756  11.376  0.00  0.00    -0.131 A 
ATOM      5  C   UNL     1      35.261  32.241  10.343  0.00  0.00    +0.128 A 
ATOM      6  C   UNL     1      36.456  32.246  12.686  0.00  0.00    -0.042 A 
ATOM      7  C   UNL     1      37.214  33.198  13.250  0.00  0.00    +0.222 A 
ATOM      8  N   UNL     1      37.308  34.278  12.414  0.00  0.00    -0.592 N 
ATOM      9  H   UNL     1      37.803  35.090  12.608  0.00  0.00    +0.419 HD
ATOM     10  C   UNL     1      35.052  33.008   9.196  0.00  0.00    -0.223 A 
ENDROOT
BRANCH  10  11
ATOM     11  C   UNL     1      34.233  32.477   8.097  0.00  0.00    +0.489 C 
ATOM     12  O   UNL     1      34.214  31.285   7.877  0.00  0.00    -0.467 OA
ENDBRANCH  10  11
TORSDOF 1
ENDMDL
MODEL 3
REMARK VINA RESULT:      -5.1      2.720      4.411
REMARK  Name = ZINC02389301
REMARK  1 active torsions:
REMARK  status: ('A' for Active; 'I' for Inactive)
REMARK    1  A    between atoms: C8_10  and  C9_11
REMARK                            x       y       z     vdW  Elec       q    Type
REMARK                         _______ _______ _______ _____ _____    ______ ____
ROOT
ATOM      1  C   UNL     1      35.328  32.545   9.070  0.00  0.00    +0.091 A 
ATOM      2  C   UNL     1      35.432  31.800  10.206  0.00  0.00    -0.018 A 
ATOM      3  C   UNL     1      36.049  32.330  11.338  0.00  0.00    +0.124 A 
ATOM      4  C   UNL     1      36.565  33.641  11.304  0.00  0.00    -0.131 A 
ATOM      5  C   UNL     1      36.457  34.401  10.144  0.00  0.00    +0.128 A 
ATOM      6  C   UNL     1      37.137  33.886  12.632  0.00  0.00    -0.042 A 
ATOM      7  C   UNL     1      36.939  32.772  13.353  0.00  0.00    +0.222 A 
ATOM      8  N   UNL     1      36.295  31.832  12.594  0.00  0.00    -0.592 N 
ATOM      9  H   UNL     1      36.047  30.945  12.900  0.00  0.00    +0.419 HD
ATOM     10  C   UNL     1      35.837  33.853   9.021  0.00  0.00    -0.223 A 
ENDROOT
BRANCH  10  11
ATOM     11  C   UNL     1      35.717  34.644   7.788  0.00  0.00    +0.489 C 
ATOM     12  O   UNL     1      36.607  35.401   7.465  0.00  0.00    -0.467 OA
ENDBRANCH  10  11
TORSDOF 1
ENDMDL
MODEL 4
REMARK VINA RESULT:      -4.5     14.816     15.798
REMARK  Name = ZINC02389301
REMARK  1 active torsions:
REMARK  status: ('A' for Active; 'I' for Inactive)
REMARK    1  A    between atoms: C8_10  and  C9_11
REMARK                            x       y       z     vdW  Elec       q    Type
REMARK                         _______ _______ _______ _____ _____    ______ ____
ROOT
ATOM      1  C   UNL     1      43.794  22.613  19.541  0.00  0.00    +0.091 A 
ATOM      2  C   UNL     1      42.527  23.008  19.231  0.00  0.00    -0.018 A 
ATOM      3  C   UNL     1      41.583  22.073  18.809  0.00  0.00    +0.124 A 
ATOM      4  C   UNL     1      41.945  20.715  18.704  0.00  0.00    -0.131 A 
ATOM      5  C   UNL     1      43.238  20.312  19.022  0.00  0.00    +0.128 A 
ATOM      6  C   UNL     1      40.743  20.011  18.243  0.00  0.00    -0.042 A 
ATOM      7  C   UNL     1      39.779  20.934  18.109  0.00  0.00    +0.222 A 
ATOM      8  N   UNL     1      40.265  22.170  18.438  0.00  0.00    -0.592 N 
ATOM      9  H   UNL     1      39.752  22.994  18.416  0.00  0.00    +0.419 HD
ATOM     10  C   UNL     1      44.167  21.264  19.442  0.00  0.00    -0.223 A 
ENDROOT
BRANCH  10  11
ATOM     11  C   UNL     1      45.538  20.853  19.779  0.00  0.00    +0.489 C 
ATOM     12  O   UNL     1      46.430  20.997  18.971  0.00  0.00    -0.467 OA
ENDBRANCH  10  11
TORSDOF 1
ENDMDL
MODEL 5
REMARK VINA RESULT:      -4.4     18.089     18.816
REMARK  Name = ZINC02389301
REMARK  1 active torsions:
REMARK  status: ('A' for Active; 'I' for Inactive)
REMARK    1  A    between atoms: C8_10  and  C9_11
REMARK                            x       y       z     vdW  Elec       q    Type
REMARK                         _______ _______ _______ _____ _____    ______ ____
ROOT
ATOM      1  C   UNL     1      55.286  34.926   6.404  0.00  0.00    +0.091 A 
ATOM      2  C   UNL     1      54.035  35.311   6.784  0.00  0.00    -0.018 A 
ATOM      3  C   UNL     1      52.948  34.463   6.580  0.00  0.00    +0.124 A 
ATOM      4  C   UNL     1      53.147  33.204   5.980  0.00  0.00    -0.131 A 
ATOM      5  C   UNL     1      54.424  32.811   5.593  0.00  0.00    +0.128 A 
ATOM      6  C   UNL     1      51.824  32.574   5.913  0.00  0.00    -0.042 A 
ATOM      7  C   UNL     1      50.953  33.439   6.453  0.00  0.00    +0.222 A 
ATOM      8  N   UNL     1      51.606  34.574   6.851  0.00  0.00    -0.592 N 
ATOM      9  H   UNL     1      51.184  35.342   7.267  0.00  0.00    +0.419 HD
ATOM     10  C   UNL     1      55.499  33.674   5.805  0.00  0.00    -0.223 A 
ENDROOT
BRANCH  10  11
ATOM     11  C   UNL     1      56.854  33.273   5.401  0.00  0.00    +0.489 C 
ATOM     12  O   UNL     1      57.815  33.897   5.799  0.00  0.00    -0.467 OA
ENDBRANCH  10  11
TORSDOF 1
ENDMDL
MODEL 6
REMARK VINA RESULT:      -4.4     15.639     17.177
REMARK  Name = ZINC02389301
REMARK  1 active torsions:
REMARK  status: ('A' for Active; 'I' for Inactive)
REMARK    1  A    between atoms: C8_10  and  C9_11
REMARK                            x       y       z     vdW  Elec       q    Type
REMARK                         _______ _______ _______ _____ _____    ______ ____
ROOT
ATOM      1  C   UNL     1      44.098  19.872  20.250  0.00  0.00    +0.091 A 
ATOM      2  C   UNL     1      43.724  20.960  19.520  0.00  0.00    -0.018 A 
ATOM      3  C   UNL     1      42.384  21.160  19.194  0.00  0.00    +0.124 A 
ATOM      4  C   UNL     1      41.415  20.231  19.622  0.00  0.00    -0.131 A 
ATOM      5  C   UNL     1      41.797  19.120  20.368  0.00  0.00    +0.128 A 
ATOM      6  C   UNL     1      40.129  20.727  19.120  0.00  0.00    -0.042 A 
ATOM      7  C   UNL     1      40.382  21.866  18.459  0.00  0.00    +0.222 A 
ATOM      8  N   UNL     1      41.724  22.136  18.489  0.00  0.00    -0.592 N 
ATOM      9  H   UNL     1      42.146  22.906  18.076  0.00  0.00    +0.419 HD
ATOM     10  C   UNL     1      43.144  18.939  20.684  0.00  0.00    -0.223 A 
ENDROOT
BRANCH  10  11
ATOM     11  C   UNL     1      43.562  17.769  21.471  0.00  0.00    +0.489 C 
ATOM     12  O   UNL     1      42.779  17.236  22.227  0.00  0.00    -0.467 OA
ENDBRANCH  10  11
TORSDOF 1
ENDMDL
MODEL 7
REMARK VINA RESULT:      -4.3     15.114     16.675
REMARK  Name = ZINC02389301
REMARK  1 active torsions:
REMARK  status: ('A' for Active; 'I' for Inactive)
REMARK    1  A    between atoms: C8_10  and  C9_11
REMARK                            x       y       z     vdW  Elec       q    Type
REMARK                         _______ _______ _______ _____ _____    ______ ____
ROOT
ATOM      1  C   UNL     1      41.350  19.595  19.401  0.00  0.00    +0.091 A 
ATOM      2  C   UNL     1      42.564  19.402  19.988  0.00  0.00    -0.018 A 
ATOM      3  C   UNL     1      43.478  20.451  20.071  0.00  0.00    +0.124 A 
ATOM      4  C   UNL     1      43.141  21.715  19.545  0.00  0.00    -0.131 A 
ATOM      5  C   UNL     1      41.900  21.911  18.947  0.00  0.00    +0.128 A 
ATOM      6  C   UNL     1      44.300  22.578  19.792  0.00  0.00    -0.042 A 
ATOM      7  C   UNL     1      45.217  21.829  20.422  0.00  0.00    +0.222 A 
ATOM      8  N   UNL     1      44.744  20.555  20.592  0.00  0.00    -0.592 N 
ATOM      9  H   UNL     1      45.231  19.834  21.020  0.00  0.00    +0.419 HD
ATOM     10  C   UNL     1      41.000  20.848  18.873  0.00  0.00    -0.223 A 
ENDROOT
BRANCH  10  11
ATOM     11  C   UNL     1      39.686  21.040  18.243  0.00  0.00    +0.489 C 
ATOM     12  O   UNL     1      38.835  21.695  18.805  0.00  0.00    -0.467 OA
ENDBRANCH  10  11
TORSDOF 1
ENDMDL
MODEL 8
REMARK VINA RESULT:      -4.2     11.807     12.862
REMARK  Name = ZINC02389301
REMARK  1 active torsions:
REMARK  status: ('A' for Active; 'I' for Inactive)
REMARK    1  A    between atoms: C8_10  and  C9_11
REMARK                            x       y       z     vdW  Elec       q    Type
REMARK                         _______ _______ _______ _____ _____    ______ ____
ROOT
ATOM      1  C   UNL     1      42.615  29.981   0.136  0.00  0.00    +0.091 A 
ATOM      2  C   UNL     1      42.370  30.339   1.428  0.00  0.00    -0.018 A 
ATOM      3  C   UNL     1      42.032  31.654   1.741  0.00  0.00    +0.124 A 
ATOM      4  C   UNL     1      41.943  32.615   0.714  0.00  0.00    -0.131 A 
ATOM      5  C   UNL     1      42.192  32.250  -0.605  0.00  0.00    +0.128 A 
ATOM      6  C   UNL     1      41.574  33.874   1.369  0.00  0.00    -0.042 A 
ATOM      7  C   UNL     1      41.462  33.614   2.680  0.00  0.00    +0.222 A 
ATOM      8  N   UNL     1      41.737  32.294   2.919  0.00  0.00    -0.592 N 
ATOM      9  H   UNL     1      41.723  31.873   3.793  0.00  0.00    +0.419 HD
ATOM     10  C   UNL     1      42.529  30.928  -0.897  0.00  0.00    -0.223 A 
ENDROOT
BRANCH  10  11
ATOM     11  C   UNL     1      42.797  30.527  -2.286  0.00  0.00    +0.489 C 
ATOM     12  O   UNL     1      42.729  29.359  -2.603  0.00  0.00    -0.467 OA
ENDBRANCH  10  11
TORSDOF 1
ENDMDL
MODEL 9
REMARK VINA RESULT:      -4.2     18.208     19.021
REMARK  Name = ZINC02389301
REMARK  1 active torsions:
REMARK  status: ('A' for Active; 'I' for Inactive)
REMARK    1  A    between atoms: C8_10  and  C9_11
REMARK                            x       y       z     vdW  Elec       q    Type
REMARK                         _______ _______ _______ _____ _____    ______ ____
ROOT
ATOM      1  C   UNL     1      55.608  33.145   5.034  0.00  0.00    +0.091 A 
ATOM      2  C   UNL     1      55.453  34.072   6.021  0.00  0.00    -0.018 A 
ATOM      3  C   UNL     1      54.179  34.410   6.473  0.00  0.00    +0.124 A 
ATOM      4  C   UNL     1      53.049  33.788   5.905  0.00  0.00    -0.131 A 
ATOM      5  C   UNL     1      53.207  32.841   4.899  0.00  0.00    +0.128 A 
ATOM      6  C   UNL     1      51.886  34.358   6.593  0.00  0.00    -0.042 A 
ATOM      7  C   UNL     1      52.355  35.237   7.490  0.00  0.00    +0.222 A 
ATOM      8  N   UNL     1      53.722  35.285   7.428  0.00  0.00    -0.592 N 
ATOM      9  H   UNL     1      54.285  35.850   7.980  0.00  0.00    +0.419 HD
ATOM     10  C   UNL     1      54.491  32.517   4.460  0.00  0.00    -0.223 A 
ENDROOT
BRANCH  10  11
ATOM     11  C   UNL     1      54.674  31.519   3.396  0.00  0.00    +0.489 C 
ATOM     12  O   UNL     1      53.810  31.359   2.561  0.00  0.00    -0.467 OA
ENDBRANCH  10  11
TORSDOF 1
ENDMDL
