MODEL 1
REMARK VINA RESULT:      -6.7      0.000      0.000
REMARK  Name = ZINC95486321
REMARK  10 active torsions:
REMARK  status: ('A' for Active; 'I' for Inactive)
REMARK    1  A    between atoms: C1_1  and  C2_2
REMARK    2  A    between atoms: C7_8  and  C13_17
REMARK    3  A    between atoms: C8_9  and  O1_15
REMARK    4  A    between atoms: C10_11  and  C11_14
REMARK    5  A    between atoms: O1_15  and  C12_16
REMARK    6  A    between atoms: C18_22  and  O4_31
REMARK    7  A    between atoms: C20_24  and  O3_29
REMARK    8  A    between atoms: C22_26  and  O2_27
REMARK    9  A    between atoms: O2_27  and  C23_28
REMARK   10  A    between atoms: O3_29  and  C24_30
REMARK                            x       y       z     vdW  Elec       q    Type
REMARK                         _______ _______ _______ _____ _____    ______ ____
ROOT
ATOM      8  C   UNL     1      43.877  20.023  20.540  0.00  0.00    -0.124 A 
ATOM      9  C   UNL     1      42.761  20.318  19.722  0.00  0.00    +0.050 A 
ATOM     10  C   UNL     1      41.840  19.319  19.368  0.00  0.00    -0.008 A 
ATOM     11  C   UNL     1      40.774  19.627  18.579  0.00  0.00    +0.057 A 
ATOM     12  C   UNL     1      40.576  20.923  18.113  0.00  0.00    -0.042 A 
ATOM     13  C   UNL     1      41.459  21.930  18.438  0.00  0.00    +0.157 A 
ATOM     16  C   UNL     1      42.571  21.639  19.254  0.00  0.00    -0.129 A 
ATOM     17  C   UNL     1      43.494  22.645  19.609  0.00  0.00    +0.199 A 
ATOM     20  C   UNL     1      44.572  22.336  20.406  0.00  0.00    -0.167 A 
ATOM     21  C   UNL     1      44.767  21.038  20.876  0.00  0.00    +0.200 A 
ENDROOT
BRANCH   8   7
ATOM      1  C   UNL     1      46.157  12.646  22.466  0.00  0.00    +0.035 C 
ATOM      2  C   UNL     1      46.070  14.138  22.138  0.00  0.00    +0.124 C 
ATOM      3  C   UNL     1      44.682  14.664  22.505  0.00  0.00    +0.092 C 
ATOM      4  C   UNL     1      44.503  16.062  21.971  0.00  0.00    -0.055 A 
ATOM      5  C   UNL     1      43.478  16.841  22.492  0.00  0.00    -0.001 A 
ATOM      6  C   UNL     1      43.268  18.124  22.035  0.00  0.00    +0.036 A 
ATOM      7  C   UNL     1      44.094  18.647  21.040  0.00  0.00    -0.040 A 
ATOM     24  C   UNL     1      45.126  17.863  20.519  0.00  0.00    +0.119 A 
ATOM     27  C   UNL     1      45.328  16.572  20.990  0.00  0.00    -0.090 A 
ATOM     28  C   UNL     1      46.459  15.766  20.405  0.00  0.00    +0.222 C 
ATOM     29  C   UNL     1      47.782  16.242  21.012  0.00  0.00    +0.005 C 
ATOM     30  N   UNL     1      46.285  14.342  20.696  0.00  0.00    -0.677 NA
ATOM     31  H   UNL     1      47.073  13.803  20.369  0.00  0.00    +0.346 HD
BRANCH  24  25
ATOM     25  O   UNL     1      45.935  18.365  19.549  0.00  0.00    -0.329 OA
ATOM     26  C   UNL     1      45.515  18.183  18.195  0.00  0.00    +0.219 C 
ENDBRANCH  24  25
ENDBRANCH   8   7
BRANCH  13  14
ATOM     14  O   UNL     1      41.258  23.191  17.979  0.00  0.00    -0.481 OA
ATOM     15  H   UNL     1      41.481  23.883  18.616  0.00  0.00    +0.392 HD
ENDBRANCH  13  14
BRANCH  17  18
ATOM     18  O   UNL     1      43.320  23.915  19.164  0.00  0.00    -0.290 OA
ATOM     19  C   UNL     1      44.496  24.647  18.814  0.00  0.00    +0.242 C 
ENDBRANCH  17  18
BRANCH  21  22
ATOM     22  O   UNL     1      45.836  20.760  21.666  0.00  0.00    -0.300 OA
ATOM     23  C   UNL     1      47.122  21.141  21.174  0.00  0.00    +0.238 C 
ENDBRANCH  21  22
TORSDOF 5
ENDMDL
MODEL 2
REMARK VINA RESULT:      -6.2      2.471      4.877
REMARK  Name = ZINC95486321
REMARK  10 active torsions:
REMARK  status: ('A' for Active; 'I' for Inactive)
REMARK    1  A    between atoms: C1_1  and  C2_2
REMARK    2  A    between atoms: C7_8  and  C13_17
REMARK    3  A    between atoms: C8_9  and  O1_15
REMARK    4  A    between atoms: C10_11  and  C11_14
REMARK    5  A    between atoms: O1_15  and  C12_16
REMARK    6  A    between atoms: C18_22  and  O4_31
REMARK    7  A    between atoms: C20_24  and  O3_29
REMARK    8  A    between atoms: C22_26  and  O2_27
REMARK    9  A    between atoms: O2_27  and  C23_28
REMARK   10  A    between atoms: O3_29  and  C24_30
REMARK                            x       y       z     vdW  Elec       q    Type
REMARK                         _______ _______ _______ _____ _____    ______ ____
ROOT
ATOM      8  C   UNL     1      44.744  20.525  20.304  0.00  0.00    -0.124 A 
ATOM      9  C   UNL     1      44.127  21.680  19.767  0.00  0.00    +0.050 A 
ATOM     10  C   UNL     1      44.825  22.894  19.671  0.00  0.00    -0.008 A 
ATOM     11  C   UNL     1      44.209  23.992  19.151  0.00  0.00    +0.057 A 
ATOM     12  C   UNL     1      42.892  23.935  18.709  0.00  0.00    -0.042 A 
ATOM     13  C   UNL     1      42.174  22.761  18.788  0.00  0.00    +0.157 A 
ATOM     16  C   UNL     1      42.787  21.609  19.321  0.00  0.00    -0.129 A 
ATOM     17  C   UNL     1      42.084  20.390  19.415  0.00  0.00    +0.199 A 
ATOM     20  C   UNL     1      42.704  19.279  19.940  0.00  0.00    -0.167 A 
ATOM     21  C   UNL     1      44.026  19.337  20.379  0.00  0.00    +0.200 A 
ENDROOT
BRANCH   8   7
ATOM      1  C   UNL     1      52.603  20.537  21.557  0.00  0.00    +0.035 C 
ATOM      2  C   UNL     1      51.183  20.719  21.018  0.00  0.00    +0.124 C 
ATOM      3  C   UNL     1      50.190  20.737  22.181  0.00  0.00    +0.092 C 
ATOM      4  C   UNL     1      48.779  20.673  21.656  0.00  0.00    -0.055 A 
ATOM      5  C   UNL     1      47.742  21.036  22.505  0.00  0.00    -0.001 A 
ATOM      6  C   UNL     1      46.434  20.991  22.076  0.00  0.00    +0.036 A 
ATOM      7  C   UNL     1      46.146  20.579  20.776  0.00  0.00    -0.040 A 
ATOM     24  C   UNL     1      47.191  20.217  19.921  0.00  0.00    +0.119 A 
ATOM     27  C   UNL     1      48.506  20.268  20.366  0.00  0.00    -0.090 A 
ATOM     28  C   UNL     1      49.601  19.878  19.407  0.00  0.00    +0.222 C 
ATOM     29  C   UNL     1      49.842  21.025  18.422  0.00  0.00    +0.005 C 
ATOM     30  N   UNL     1      50.844  19.596  20.127  0.00  0.00    -0.677 NA
ATOM     31  H   UNL     1      51.600  19.402  19.488  0.00  0.00    +0.346 HD
BRANCH  24  25
ATOM     25  O   UNL     1      46.920  19.813  18.652  0.00  0.00    -0.329 OA
ATOM     26  C   UNL     1      46.951  18.407  18.397  0.00  0.00    +0.219 C 
ENDBRANCH  24  25
ENDBRANCH   8   7
BRANCH  13  14
ATOM     14  O   UNL     1      40.889  22.714  18.354  0.00  0.00    -0.481 OA
ATOM     15  H   UNL     1      40.345  23.454  18.653  0.00  0.00    +0.392 HD
ENDBRANCH  13  14
BRANCH  17  18
ATOM     18  O   UNL     1      40.797  20.312  18.990  0.00  0.00    -0.290 OA
ATOM     19  C   UNL     1      40.543  19.519  17.830  0.00  0.00    +0.242 C 
ENDBRANCH  17  18
BRANCH  21  22
ATOM     22  O   UNL     1      44.616  18.226  20.888  0.00  0.00    -0.300 OA
ATOM     23  C   UNL     1      43.798  17.359  21.676  0.00  0.00    +0.238 C 
ENDBRANCH  21  22
TORSDOF 5
ENDMDL
MODEL 3
REMARK VINA RESULT:      -6.2      2.758      5.284
REMARK  Name = ZINC95486321
REMARK  10 active torsions:
REMARK  status: ('A' for Active; 'I' for Inactive)
REMARK    1  A    between atoms: C1_1  and  C2_2
REMARK    2  A    between atoms: C7_8  and  C13_17
REMARK    3  A    between atoms: C8_9  and  O1_15
REMARK    4  A    between atoms: C10_11  and  C11_14
REMARK    5  A    between atoms: O1_15  and  C12_16
REMARK    6  A    between atoms: C18_22  and  O4_31
REMARK    7  A    between atoms: C20_24  and  O3_29
REMARK    8  A    between atoms: C22_26  and  O2_27
REMARK    9  A    between atoms: O2_27  and  C23_28
REMARK   10  A    between atoms: O3_29  and  C24_30
REMARK                            x       y       z     vdW  Elec       q    Type
REMARK                         _______ _______ _______ _____ _____    ______ ____
ROOT
ATOM      8  C   UNL     1      45.000  20.723  20.596  0.00  0.00    -0.124 A 
ATOM      9  C   UNL     1      44.261  19.637  21.121  0.00  0.00    +0.050 A 
ATOM     10  C   UNL     1      44.847  18.728  22.014  0.00  0.00    -0.008 A 
ATOM     11  C   UNL     1      44.115  17.689  22.505  0.00  0.00    +0.057 A 
ATOM     12  C   UNL     1      42.785  17.511  22.137  0.00  0.00    -0.042 A 
ATOM     13  C   UNL     1      42.175  18.383  21.261  0.00  0.00    +0.157 A 
ATOM     16  C   UNL     1      42.910  19.466  20.738  0.00  0.00    -0.129 A 
ATOM     17  C   UNL     1      42.318  20.379  19.841  0.00  0.00    +0.199 A 
ATOM     20  C   UNL     1      43.056  21.429  19.343  0.00  0.00    -0.167 A 
ATOM     21  C   UNL     1      44.387  21.609  19.717  0.00  0.00    +0.200 A 
ENDROOT
BRANCH   8   7
ATOM      1  C   UNL     1      52.893  21.221  21.485  0.00  0.00    +0.035 C 
ATOM      2  C   UNL     1      51.450  21.237  20.978  0.00  0.00    +0.124 C 
ATOM      3  C   UNL     1      50.498  21.499  22.147  0.00  0.00    +0.092 C 
ATOM      4  C   UNL     1      49.072  21.281  21.709  0.00  0.00    -0.055 A 
ATOM      5  C   UNL     1      48.054  21.804  22.494  0.00  0.00    -0.001 A 
ATOM      6  C   UNL     1      46.734  21.628  22.142  0.00  0.00    +0.036 A 
ATOM      7  C   UNL     1      46.415  20.919  20.984  0.00  0.00    -0.040 A 
ATOM     24  C   UNL     1      47.441  20.395  20.193  0.00  0.00    +0.119 A 
ATOM     27  C   UNL     1      48.769  20.581  20.559  0.00  0.00    -0.090 A 
ATOM     28  C   UNL     1      49.842  20.007  19.671  0.00  0.00    +0.222 C 
ATOM     29  C   UNL     1      50.010  20.902  18.440  0.00  0.00    +0.005 C 
ATOM     30  N   UNL     1      51.119  19.931  20.385  0.00  0.00    -0.677 NA
ATOM     31  H   UNL     1      51.858  19.613  19.776  0.00  0.00    +0.346 HD
BRANCH  24  25
ATOM     25  O   UNL     1      47.140  19.703  19.064  0.00  0.00    -0.329 OA
ATOM     26  C   UNL     1      47.145  18.276  19.156  0.00  0.00    +0.219 C 
ENDBRANCH  24  25
ENDBRANCH   8   7
BRANCH  13  14
ATOM     14  O   UNL     1      40.877  18.201  20.907  0.00  0.00    -0.481 OA
ATOM     15  H   UNL     1      40.561  18.824  20.239  0.00  0.00    +0.392 HD
ENDBRANCH  13  14
BRANCH  17  18
ATOM     18  O   UNL     1      41.022  20.223  19.467  0.00  0.00    -0.290 OA
ATOM     19  C   UNL     1      40.582  20.961  18.327  0.00  0.00    +0.242 C 
ENDBRANCH  17  18
BRANCH  21  22
ATOM     22  O   UNL     1      45.092  22.655  19.216  0.00  0.00    -0.300 OA
ATOM     23  C   UNL     1      44.691  23.964  19.627  0.00  0.00    +0.238 C 
ENDBRANCH  21  22
TORSDOF 5
ENDMDL
MODEL 4
REMARK VINA RESULT:      -6.1      3.150      5.592
REMARK  Name = ZINC95486321
REMARK  10 active torsions:
REMARK  status: ('A' for Active; 'I' for Inactive)
REMARK    1  A    between atoms: C1_1  and  C2_2
REMARK    2  A    between atoms: C7_8  and  C13_17
REMARK    3  A    between atoms: C8_9  and  O1_15
REMARK    4  A    between atoms: C10_11  and  C11_14
REMARK    5  A    between atoms: O1_15  and  C12_16
REMARK    6  A    between atoms: C18_22  and  O4_31
REMARK    7  A    between atoms: C20_24  and  O3_29
REMARK    8  A    between atoms: C22_26  and  O2_27
REMARK    9  A    between atoms: O2_27  and  C23_28
REMARK   10  A    between atoms: O3_29  and  C24_30
REMARK                            x       y       z     vdW  Elec       q    Type
REMARK                         _______ _______ _______ _____ _____    ______ ____
ROOT
ATOM      8  C   UNL     1      47.110  19.932  19.206  0.00  0.00    -0.124 A 
ATOM      9  C   UNL     1      46.750  20.970  20.098  0.00  0.00    +0.050 A 
ATOM     10  C   UNL     1      47.703  21.558  20.944  0.00  0.00    -0.008 A 
ATOM     11  C   UNL     1      47.332  22.555  21.795  0.00  0.00    +0.057 A 
ATOM     12  C   UNL     1      46.017  23.007  21.842  0.00  0.00    -0.042 A 
ATOM     13  C   UNL     1      45.054  22.453  21.027  0.00  0.00    +0.157 A 
ATOM     16  C   UNL     1      45.410  21.420  20.137  0.00  0.00    -0.129 A 
ATOM     17  C   UNL     1      44.451  20.831  19.287  0.00  0.00    +0.199 A 
ATOM     20  C   UNL     1      44.823  19.823  18.426  0.00  0.00    -0.167 A 
ATOM     21  C   UNL     1      46.142  19.375  18.377  0.00  0.00    +0.200 A 
ENDROOT
BRANCH   8   7
ATOM      1  C   UNL     1      54.152  16.242  19.564  0.00  0.00    +0.035 C 
ATOM      2  C   UNL     1      52.677  16.621  19.413  0.00  0.00    +0.124 C 
ATOM      3  C   UNL     1      52.564  18.081  18.972  0.00  0.00    +0.092 C 
ATOM      4  C   UNL     1      51.129  18.534  19.052  0.00  0.00    -0.055 A 
ATOM      5  C   UNL     1      50.761  19.685  18.368  0.00  0.00    -0.001 A 
ATOM      6  C   UNL     1      49.463  20.145  18.412  0.00  0.00    +0.036 A 
ATOM      7  C   UNL     1      48.507  19.447  19.150  0.00  0.00    -0.040 A 
ATOM     24  C   UNL     1      48.878  18.288  19.836  0.00  0.00    +0.119 A 
ATOM     27  C   UNL     1      50.190  17.834  19.781  0.00  0.00    -0.090 A 
ATOM     28  C   UNL     1      50.542  16.574  20.529  0.00  0.00    +0.222 C 
ATOM     29  C   UNL     1      50.043  15.362  19.737  0.00  0.00    +0.005 C 
ATOM     30  N   UNL     1      51.991  16.465  20.707  0.00  0.00    -0.677 NA
ATOM     31  H   UNL     1      52.241  15.591  21.144  0.00  0.00    +0.346 HD
BRANCH  24  25
ATOM     25  O   UNL     1      47.953  17.603  20.558  0.00  0.00    -0.329 OA
ATOM     26  C   UNL     1      47.829  17.940  21.941  0.00  0.00    +0.219 C 
ENDBRANCH  24  25
ENDBRANCH   8   7
BRANCH  13  14
ATOM     14  O   UNL     1      43.773  22.900  21.080  0.00  0.00    -0.481 OA
ATOM     15  H   UNL     1      43.630  23.612  21.718  0.00  0.00    +0.392 HD
ENDBRANCH  13  14
BRANCH  17  18
ATOM     18  O   UNL     1      43.162  21.256  19.318  0.00  0.00    -0.290 OA
ATOM     19  C   UNL     1      42.183  20.405  18.720  0.00  0.00    +0.242 C 
ENDBRANCH  17  18
BRANCH  21  22
ATOM     22  O   UNL     1      46.485  18.384  17.516  0.00  0.00    -0.300 OA
ATOM     23  C   UNL     1      45.970  17.079  17.790  0.00  0.00    +0.238 C 
ENDBRANCH  21  22
TORSDOF 5
ENDMDL
MODEL 5
REMARK VINA RESULT:      -5.9      3.445      6.945
REMARK  Name = ZINC95486321
REMARK  10 active torsions:
REMARK  status: ('A' for Active; 'I' for Inactive)
REMARK    1  A    between atoms: C1_1  and  C2_2
REMARK    2  A    between atoms: C7_8  and  C13_17
REMARK    3  A    between atoms: C8_9  and  O1_15
REMARK    4  A    between atoms: C10_11  and  C11_14
REMARK    5  A    between atoms: O1_15  and  C12_16
REMARK    6  A    between atoms: C18_22  and  O4_31
REMARK    7  A    between atoms: C20_24  and  O3_29
REMARK    8  A    between atoms: C22_26  and  O2_27
REMARK    9  A    between atoms: O2_27  and  C23_28
REMARK   10  A    between atoms: O3_29  and  C24_30
REMARK                            x       y       z     vdW  Elec       q    Type
REMARK                         _______ _______ _______ _____ _____    ______ ____
ROOT
ATOM      8  C   UNL     1      47.598  18.087  18.767  0.00  0.00    -0.124 A 
ATOM      9  C   UNL     1      48.693  18.847  19.242  0.00  0.00    +0.050 A 
ATOM     10  C   UNL     1      48.579  19.637  20.396  0.00  0.00    -0.008 A 
ATOM     11  C   UNL     1      49.647  20.360  20.832  0.00  0.00    +0.057 A 
ATOM     12  C   UNL     1      50.861  20.330  20.152  0.00  0.00    -0.042 A 
ATOM     13  C   UNL     1      51.011  19.566  19.015  0.00  0.00    +0.157 A 
ATOM     16  C   UNL     1      49.922  18.808  18.542  0.00  0.00    -0.129 A 
ATOM     17  C   UNL     1      50.039  18.013  17.382  0.00  0.00    +0.199 A 
ATOM     20  C   UNL     1      48.960  17.281  16.939  0.00  0.00    -0.167 A 
ATOM     21  C   UNL     1      47.747  17.310  17.624  0.00  0.00    +0.200 A 
ENDROOT
BRANCH   8   7
ATOM      1  C   UNL     1      40.300  19.191  21.743  0.00  0.00    +0.035 C 
ATOM      2  C   UNL     1      41.530  19.000  20.854  0.00  0.00    +0.124 C 
ATOM      3  C   UNL     1      42.575  18.165  21.596  0.00  0.00    +0.092 C 
ATOM      4  C   UNL     1      43.875  18.172  20.834  0.00  0.00    -0.055 A 
ATOM      5  C   UNL     1      44.822  17.203  21.137  0.00  0.00    -0.001 A 
ATOM      6  C   UNL     1      46.029  17.168  20.474  0.00  0.00    +0.036 A 
ATOM      7  C   UNL     1      46.304  18.113  19.486  0.00  0.00    -0.040 A 
ATOM     24  C   UNL     1      45.349  19.087  19.180  0.00  0.00    +0.119 A 
ATOM     27  C   UNL     1      44.135  19.109  19.856  0.00  0.00    -0.090 A 
ATOM     28  C   UNL     1      43.131  20.171  19.486  0.00  0.00    +0.222 C 
ATOM     29  C   UNL     1      42.445  19.780  18.174  0.00  0.00    +0.005 C 
ATOM     30  N   UNL     1      42.117  20.312  20.533  0.00  0.00    -0.677 NA
ATOM     31  H   UNL     1      41.402  20.970  20.262  0.00  0.00    +0.346 HD
BRANCH  24  25
ATOM     25  O   UNL     1      45.608  20.012  18.220  0.00  0.00    -0.329 OA
ATOM     26  C   UNL     1      45.958  21.326  18.662  0.00  0.00    +0.219 C 
ENDBRANCH  24  25
ENDBRANCH   8   7
BRANCH  13  14
ATOM     14  O   UNL     1      52.198  19.543  18.358  0.00  0.00    -0.481 OA
ATOM     15  H   UNL     1      52.343  18.743  17.835  0.00  0.00    +0.392 HD
ENDBRANCH  13  14
BRANCH  17  18
ATOM     18  O   UNL     1      51.214  17.970  16.703  0.00  0.00    -0.290 OA
ATOM     19  C   UNL     1      51.825  16.689  16.542  0.00  0.00    +0.242 C 
ENDBRANCH  17  18
BRANCH  21  22
ATOM     22  O   UNL     1      46.700  16.575  17.169  0.00  0.00    -0.300 OA
ATOM     23  C   UNL     1      46.870  15.156  17.132  0.00  0.00    +0.238 C 
ENDBRANCH  21  22
TORSDOF 5
ENDMDL
MODEL 6
REMARK VINA RESULT:      -5.9      2.403      3.310
REMARK  Name = ZINC95486321
REMARK  10 active torsions:
REMARK  status: ('A' for Active; 'I' for Inactive)
REMARK    1  A    between atoms: C1_1  and  C2_2
REMARK    2  A    between atoms: C7_8  and  C13_17
REMARK    3  A    between atoms: C8_9  and  O1_15
REMARK    4  A    between atoms: C10_11  and  C11_14
REMARK    5  A    between atoms: O1_15  and  C12_16
REMARK    6  A    between atoms: C18_22  and  O4_31
REMARK    7  A    between atoms: C20_24  and  O3_29
REMARK    8  A    between atoms: C22_26  and  O2_27
REMARK    9  A    between atoms: O2_27  and  C23_28
REMARK   10  A    between atoms: O3_29  and  C24_30
REMARK                            x       y       z     vdW  Elec       q    Type
REMARK                         _______ _______ _______ _____ _____    ______ ____
ROOT
ATOM      8  C   UNL     1      45.677  18.678  20.499  0.00  0.00    -0.124 A 
ATOM      9  C   UNL     1      44.699  19.604  20.065  0.00  0.00    +0.050 A 
ATOM     10  C   UNL     1      43.707  19.230  19.145  0.00  0.00    -0.008 A 
ATOM     11  C   UNL     1      42.776  20.140  18.743  0.00  0.00    +0.057 A 
ATOM     12  C   UNL     1      42.789  21.443  19.229  0.00  0.00    -0.042 A 
ATOM     13  C   UNL     1      43.747  21.847  20.133  0.00  0.00    +0.157 A 
ATOM     16  C   UNL     1      44.722  20.926  20.567  0.00  0.00    -0.129 A 
ATOM     17  C   UNL     1      45.717  21.303  21.493  0.00  0.00    +0.199 A 
ATOM     20  C   UNL     1      46.658  20.386  21.901  0.00  0.00    -0.167 A 
ATOM     21  C   UNL     1      46.642  19.079  21.415  0.00  0.00    +0.200 A 
ENDROOT
BRANCH   8   7
ATOM      1  C   UNL     1      46.441  11.692  16.762  0.00  0.00    +0.035 C 
ATOM      2  C   UNL     1      46.648  13.060  17.415  0.00  0.00    +0.124 C 
ATOM      3  C   UNL     1      45.619  13.261  18.528  0.00  0.00    +0.092 C 
ATOM      4  C   UNL     1      45.656  14.687  19.014  0.00  0.00    -0.055 A 
ATOM      5  C   UNL     1      45.071  14.981  20.238  0.00  0.00    -0.001 A 
ATOM      6  C   UNL     1      45.073  16.270  20.727  0.00  0.00    +0.036 A 
ATOM      7  C   UNL     1      45.669  17.289  19.986  0.00  0.00    -0.040 A 
ATOM     24  C   UNL     1      46.260  16.991  18.755  0.00  0.00    +0.119 A 
ATOM     27  C   UNL     1      46.252  15.687  18.275  0.00  0.00    -0.090 A 
ATOM     28  C   UNL     1      46.910  15.410  16.948  0.00  0.00    +0.222 C 
ATOM     29  C   UNL     1      48.429  15.380  17.134  0.00  0.00    +0.005 C 
ATOM     30  N   UNL     1      46.468  14.121  16.410  0.00  0.00    -0.677 NA
ATOM     31  H   UNL     1      46.956  13.896  15.556  0.00  0.00    +0.346 HD
BRANCH  24  25
ATOM     25  O   UNL     1      46.843  17.978  18.025  0.00  0.00    -0.329 OA
ATOM     26  C   UNL     1      48.178  18.346  18.380  0.00  0.00    +0.219 C 
ENDBRANCH  24  25
ENDBRANCH   8   7
BRANCH  13  14
ATOM     14  O   UNL     1      43.752  23.120  20.603  0.00  0.00    -0.481 OA
ATOM     15  H   UNL     1      44.470  23.666  20.256  0.00  0.00    +0.392 HD
ENDBRANCH  13  14
BRANCH  17  18
ATOM     18  O   UNL     1      45.747  22.570  21.979  0.00  0.00    -0.290 OA
ATOM     19  C   UNL     1      47.005  23.248  21.947  0.00  0.00    +0.242 C 
ENDBRANCH  17  18
BRANCH  21  22
ATOM     22  O   UNL     1      47.578  18.192  21.838  0.00  0.00    -0.300 OA
ATOM     23  C   UNL     1      48.886  18.704  22.101  0.00  0.00    +0.238 C 
ENDBRANCH  21  22
TORSDOF 5
ENDMDL
MODEL 7
REMARK VINA RESULT:      -5.8      2.242      3.633
REMARK  Name = ZINC95486321
REMARK  10 active torsions:
REMARK  status: ('A' for Active; 'I' for Inactive)
REMARK    1  A    between atoms: C1_1  and  C2_2
REMARK    2  A    between atoms: C7_8  and  C13_17
REMARK    3  A    between atoms: C8_9  and  O1_15
REMARK    4  A    between atoms: C10_11  and  C11_14
REMARK    5  A    between atoms: O1_15  and  C12_16
REMARK    6  A    between atoms: C18_22  and  O4_31
REMARK    7  A    between atoms: C20_24  and  O3_29
REMARK    8  A    between atoms: C22_26  and  O2_27
REMARK    9  A    between atoms: O2_27  and  C23_28
REMARK   10  A    between atoms: O3_29  and  C24_30
REMARK                            x       y       z     vdW  Elec       q    Type
REMARK                         _______ _______ _______ _____ _____    ______ ____
ROOT
ATOM      8  C   UNL     1      46.324  19.346  19.238  0.00  0.00    -0.124 A 
ATOM      9  C   UNL     1      45.065  19.992  19.264  0.00  0.00    +0.050 A 
ATOM     10  C   UNL     1      43.926  19.380  18.718  0.00  0.00    -0.008 A 
ATOM     11  C   UNL     1      42.726  20.022  18.756  0.00  0.00    +0.057 A 
ATOM     12  C   UNL     1      42.604  21.283  19.330  0.00  0.00    -0.042 A 
ATOM     13  C   UNL     1      43.699  21.916  19.876  0.00  0.00    +0.157 A 
ATOM     16  C   UNL     1      44.953  21.275  19.851  0.00  0.00    -0.129 A 
ATOM     17  C   UNL     1      46.096  21.891  20.402  0.00  0.00    +0.199 A 
ATOM     20  C   UNL     1      47.311  21.244  20.365  0.00  0.00    -0.167 A 
ATOM     21  C   UNL     1      47.430  19.979  19.793  0.00  0.00    +0.200 A 
ENDROOT
BRANCH   8   7
ATOM      1  C   UNL     1      46.731  11.666  17.192  0.00  0.00    +0.035 C 
ATOM      2  C   UNL     1      46.354  13.036  17.759  0.00  0.00    +0.124 C 
ATOM      3  C   UNL     1      46.874  14.136  16.833  0.00  0.00    +0.092 C 
ATOM      4  C   UNL     1      46.721  15.482  17.494  0.00  0.00    -0.055 A 
ATOM      5  C   UNL     1      46.794  16.619  16.701  0.00  0.00    -0.001 A 
ATOM      6  C   UNL     1      46.666  17.873  17.256  0.00  0.00    +0.036 A 
ATOM      7  C   UNL     1      46.461  18.004  18.629  0.00  0.00    -0.040 A 
ATOM     24  C   UNL     1      46.386  16.859  19.427  0.00  0.00    +0.119 A 
ATOM     27  C   UNL     1      46.515  15.600  18.853  0.00  0.00    -0.090 A 
ATOM     28  C   UNL     1      46.418  14.393  19.750  0.00  0.00    +0.222 C 
ATOM     29  C   UNL     1      44.948  14.136  20.093  0.00  0.00    +0.005 C 
ATOM     30  N   UNL     1      46.968  13.209  19.086  0.00  0.00    -0.677 NA
ATOM     31  H   UNL     1      46.845  12.383  19.652  0.00  0.00    +0.346 HD
BRANCH  24  25
ATOM     25  O   UNL     1      46.187  16.976  20.765  0.00  0.00    -0.329 OA
ATOM     26  C   UNL     1      47.327  16.798  21.609  0.00  0.00    +0.219 C 
ENDBRANCH  24  25
ENDBRANCH   8   7
BRANCH  13  14
ATOM     14  O   UNL     1      43.571  23.147  20.434  0.00  0.00    -0.481 OA
ATOM     15  H   UNL     1      44.400  23.518  20.765  0.00  0.00    +0.392 HD
ENDBRANCH  13  14
BRANCH  17  18
ATOM     18  O   UNL     1      45.999  23.122  20.966  0.00  0.00    -0.290 OA
ATOM     19  C   UNL     1      46.995  23.476  21.927  0.00  0.00    +0.242 C 
ENDBRANCH  17  18
BRANCH  21  22
ATOM     22  O   UNL     1      48.638  19.359  19.775  0.00  0.00    -0.300 OA
ATOM     23  C   UNL     1      49.568  19.719  20.799  0.00  0.00    +0.238 C 
ENDBRANCH  21  22
TORSDOF 5
ENDMDL
MODEL 8
REMARK VINA RESULT:      -5.6      4.722      7.087
REMARK  Name = ZINC95486321
REMARK  10 active torsions:
REMARK  status: ('A' for Active; 'I' for Inactive)
REMARK    1  A    between atoms: C1_1  and  C2_2
REMARK    2  A    between atoms: C7_8  and  C13_17
REMARK    3  A    between atoms: C8_9  and  O1_15
REMARK    4  A    between atoms: C10_11  and  C11_14
REMARK    5  A    between atoms: O1_15  and  C12_16
REMARK    6  A    between atoms: C18_22  and  O4_31
REMARK    7  A    between atoms: C20_24  and  O3_29
REMARK    8  A    between atoms: C22_26  and  O2_27
REMARK    9  A    between atoms: O2_27  and  C23_28
REMARK   10  A    between atoms: O3_29  and  C24_30
REMARK                            x       y       z     vdW  Elec       q    Type
REMARK                         _______ _______ _______ _____ _____    ______ ____
ROOT
ATOM      8  C   UNL     1      49.222  17.911  18.785  0.00  0.00    -0.124 A 
ATOM      9  C   UNL     1      50.227  18.569  18.036  0.00  0.00    +0.050 A 
ATOM     10  C   UNL     1      50.595  18.111  16.762  0.00  0.00    -0.008 A 
ATOM     11  C   UNL     1      51.565  18.761  16.061  0.00  0.00    +0.057 A 
ATOM     12  C   UNL     1      52.204  19.879  16.587  0.00  0.00    -0.042 A 
ATOM     13  C   UNL     1      51.871  20.357  17.836  0.00  0.00    +0.157 A 
ATOM     16  C   UNL     1      50.870  19.704  18.583  0.00  0.00    -0.129 A 
ATOM     17  C   UNL     1      50.501  20.167  19.863  0.00  0.00    +0.199 A 
ATOM     20  C   UNL     1      49.520  19.511  20.573  0.00  0.00    -0.167 A 
ATOM     21  C   UNL     1      48.878  18.394  20.042  0.00  0.00    +0.200 A 
ENDROOT
BRANCH   8   7
ATOM      1  C   UNL     1      46.353  10.809  16.624  0.00  0.00    +0.035 C 
ATOM      2  C   UNL     1      46.890  12.031  17.371  0.00  0.00    +0.124 C 
ATOM      3  C   UNL     1      46.535  13.303  16.599  0.00  0.00    +0.092 C 
ATOM      4  C   UNL     1      47.259  14.485  17.192  0.00  0.00    -0.055 A 
ATOM      5  C   UNL     1      46.808  15.759  16.877  0.00  0.00    -0.001 A 
ATOM      6  C   UNL     1      47.436  16.874  17.388  0.00  0.00    +0.036 A 
ATOM      7  C   UNL     1      48.537  16.722  18.231  0.00  0.00    -0.040 A 
ATOM     24  C   UNL     1      48.989  15.438  18.549  0.00  0.00    +0.119 A 
ATOM     27  C   UNL     1      48.344  14.323  18.027  0.00  0.00    -0.090 A 
ATOM     28  C   UNL     1      48.860  12.958  18.405  0.00  0.00    +0.222 C 
ATOM     29  C   UNL     1      48.397  12.618  19.824  0.00  0.00    +0.005 C 
ATOM     30  N   UNL     1      48.356  11.940  17.480  0.00  0.00    -0.677 NA
ATOM     31  H   UNL     1      48.639  11.015  17.766  0.00  0.00    +0.346 HD
BRANCH  24  25
ATOM     25  O   UNL     1      50.061  15.280  19.368  0.00  0.00    -0.329 OA
ATOM     26  C   UNL     1      51.332  15.086  18.744  0.00  0.00    +0.219 C 
ENDBRANCH  24  25
ENDBRANCH   8   7
BRANCH  13  14
ATOM     14  O   UNL     1      52.500  21.449  18.342  0.00  0.00    -0.481 OA
ATOM     15  H   UNL     1      53.449  21.476  18.160  0.00  0.00    +0.392 HD
ENDBRANCH  13  14
BRANCH  17  18
ATOM     18  O   UNL     1      51.113  21.255  20.396  0.00  0.00    -0.290 OA
ATOM     19  C   UNL     1      51.508  21.171  21.766  0.00  0.00    +0.242 C 
ENDBRANCH  17  18
BRANCH  21  22
ATOM     22  O   UNL     1      47.910  17.769  20.761  0.00  0.00    -0.300 OA
ATOM     23  C   UNL     1      46.704  18.499  20.997  0.00  0.00    +0.238 C 
ENDBRANCH  21  22
TORSDOF 5
ENDMDL
MODEL 9
REMARK VINA RESULT:      -5.5      2.580      4.555
REMARK  Name = ZINC95486321
REMARK  10 active torsions:
REMARK  status: ('A' for Active; 'I' for Inactive)
REMARK    1  A    between atoms: C1_1  and  C2_2
REMARK    2  A    between atoms: C7_8  and  C13_17
REMARK    3  A    between atoms: C8_9  and  O1_15
REMARK    4  A    between atoms: C10_11  and  C11_14
REMARK    5  A    between atoms: O1_15  and  C12_16
REMARK    6  A    between atoms: C18_22  and  O4_31
REMARK    7  A    between atoms: C20_24  and  O3_29
REMARK    8  A    between atoms: C22_26  and  O2_27
REMARK    9  A    between atoms: O2_27  and  C23_28
REMARK   10  A    between atoms: O3_29  and  C24_30
REMARK                            x       y       z     vdW  Elec       q    Type
REMARK                         _______ _______ _______ _____ _____    ______ ____
ROOT
ATOM      8  C   UNL     1      45.693  19.245  20.432  0.00  0.00    -0.124 A 
ATOM      9  C   UNL     1      45.498  20.647  20.453  0.00  0.00    +0.050 A 
ATOM     10  C   UNL     1      46.551  21.518  20.772  0.00  0.00    -0.008 A 
ATOM     11  C   UNL     1      46.339  22.864  20.786  0.00  0.00    +0.057 A 
ATOM     12  C   UNL     1      45.089  23.396  20.487  0.00  0.00    -0.042 A 
ATOM     13  C   UNL     1      44.030  22.572  20.170  0.00  0.00    +0.157 A 
ATOM     16  C   UNL     1      44.222  21.176  20.148  0.00  0.00    -0.129 A 
ATOM     17  C   UNL     1      43.163  20.302  19.826  0.00  0.00    +0.199 A 
ATOM     20  C   UNL     1      43.375  18.942  19.812  0.00  0.00    -0.167 A 
ATOM     21  C   UNL     1      44.630  18.411  20.107  0.00  0.00    +0.200 A 
ENDROOT
BRANCH   8   7
ATOM      1  C   UNL     1      53.131  16.445  20.843  0.00  0.00    +0.035 C 
ATOM      2  C   UNL     1      51.858  17.252  20.580  0.00  0.00    +0.124 C 
ATOM      3  C   UNL     1      50.848  16.998  21.700  0.00  0.00    +0.092 C 
ATOM      4  C   UNL     1      49.512  17.592  21.333  0.00  0.00    -0.055 A 
ATOM      5  C   UNL     1      48.578  17.786  22.341  0.00  0.00    -0.001 A 
ATOM      6  C   UNL     1      47.340  18.321  22.059  0.00  0.00    +0.036 A 
ATOM      7  C   UNL     1      47.020  18.672  20.748  0.00  0.00    -0.040 A 
ATOM     24  C   UNL     1      47.963  18.478  19.734  0.00  0.00    +0.119 A 
ATOM     27  C   UNL     1      49.208  17.939  20.033  0.00  0.00    -0.090 A 
ATOM     28  C   UNL     1      50.196  17.757  18.910  0.00  0.00    +0.222 C 
ATOM     29  C   UNL     1      50.816  19.113  18.559  0.00  0.00    +0.005 C 
ATOM     30  N   UNL     1      51.261  16.831  19.302  0.00  0.00    -0.677 NA
ATOM     31  H   UNL     1      51.963  16.757  18.582  0.00  0.00    +0.346 HD
BRANCH  24  25
ATOM     25  O   UNL     1      47.660  18.816  18.454  0.00  0.00    -0.329 OA
ATOM     26  C   UNL     1      47.180  17.773  17.602  0.00  0.00    +0.219 C 
ENDBRANCH  24  25
ENDBRANCH   8   7
BRANCH  13  14
ATOM     14  O   UNL     1      42.814  23.101  19.880  0.00  0.00    -0.481 OA
ATOM     15  H   UNL     1      42.383  22.699  19.114  0.00  0.00    +0.392 HD
ENDBRANCH  13  14
BRANCH  17  18
ATOM     18  O   UNL     1      41.935  20.801  19.533  0.00  0.00    -0.290 OA
ATOM     19  C   UNL     1      41.286  20.286  18.370  0.00  0.00    +0.242 C 
ENDBRANCH  17  18
BRANCH  21  22
ATOM     22  O   UNL     1      44.814  17.066  20.080  0.00  0.00    -0.300 OA
ATOM     23  C   UNL     1      44.339  16.323  21.204  0.00  0.00    +0.238 C 
ENDBRANCH  21  22
TORSDOF 5
ENDMDL
