MODEL 1
REMARK VINA RESULT:      -6.9      0.000      0.000
REMARK  Name = ZINC95486264
REMARK  16 active torsions:
REMARK  status: ('A' for Active; 'I' for Inactive)
REMARK    1  A    between atoms: C1_1  and  O1_2
REMARK    2  A    between atoms: O1_2  and  C2_3
REMARK    3  A    between atoms: C5_6  and  C26_33
REMARK    4  A    between atoms: C7_8  and  O2_9
REMARK    5  A    between atoms: O2_9  and  C8_10
REMARK    6  A    between atoms: C11_13  and  C15_18
REMARK    7  A    between atoms: C13_15  and  O3_16
REMARK    8  A    between atoms: O3_16  and  C14_17
REMARK    9  A    between atoms: C21_26  and  O7_31
REMARK   10  A    between atoms: C23_28  and  O6_29
REMARK   11  A    between atoms: O6_29  and  C24_30
REMARK   12  A    between atoms: O7_31  and  C25_32
REMARK   13  A    between atoms: C32_41  and  O11_46
REMARK   14  A    between atoms: C34_43  and  O10_44
REMARK   15  A    between atoms: O10_44  and  C35_45
REMARK   16  A    between atoms: O11_46  and  C36_47
REMARK                            x       y       z     vdW  Elec       q    Type
REMARK                         _______ _______ _______ _____ _____    ______ ____
ROOT
ATOM     24  O   UNL     1      50.914  20.066  19.161  0.00  0.00    -0.230 OA
ENDROOT
BRANCH  24  23
ATOM      3  C   UNL     1      50.603  21.003  21.332  0.00  0.00    +0.139 A 
ATOM      4  C   UNL     1      49.765  21.325  22.391  0.00  0.00    -0.029 A 
ATOM      5  C   UNL     1      48.422  21.021  22.327  0.00  0.00    +0.078 A 
ATOM      6  C   UNL     1      47.902  20.385  21.196  0.00  0.00    -0.073 A 
ATOM     22  C   UNL     1      48.747  20.061  20.131  0.00  0.00    +0.026 A 
ATOM     23  C   UNL     1      50.091  20.375  20.198  0.00  0.00    +0.095 A 
BRANCH   6   7
ATOM      7  C   UNL     1      46.466  20.057  21.127  0.00  0.00    +0.207 A 
ATOM      8  C   UNL     1      45.997  19.017  21.869  0.00  0.00    -0.144 A 
ATOM      9  C   UNL     1      44.621  18.688  21.816  0.00  0.00    +0.426 A 
ATOM     10  C   UNL     1      43.760  19.506  20.944  0.00  0.00    -0.293 A 
ATOM     11  C   UNL     1      44.347  20.558  20.220  0.00  0.00    +0.226 A 
ATOM     12  C   UNL     1      43.557  21.341  19.394  0.00  0.00    -0.065 A 
ATOM     13  C   UNL     1      42.198  21.083  19.287  0.00  0.00    +0.232 A 
ATOM     16  C   UNL     1      41.616  20.043  20.002  0.00  0.00    -0.186 A 
ATOM     17  C   UNL     1      42.389  19.252  20.832  0.00  0.00    +0.255 A 
ATOM     20  O   UNL     1      44.166  17.762  22.469  0.00  0.00    -0.457 OA
ATOM     21  O   UNL     1      45.671  20.799  20.340  0.00  0.00    -0.216 OA
BRANCH  13  14
ATOM     14  O   UNL     1      41.430  21.853  18.474  0.00  0.00    -0.302 OA
ATOM     15  C   UNL     1      40.039  21.536  18.406  0.00  0.00    +0.253 C 
ENDBRANCH  13  14
BRANCH  17  18
ATOM     18  O   UNL     1      41.821  18.235  21.530  0.00  0.00    -0.276 OA
ATOM     19  C   UNL     1      40.404  18.088  21.426  0.00  0.00    +0.247 C 
ENDBRANCH  17  18
ENDBRANCH   6   7
BRANCH   3   2
ATOM      1  C   UNL     1      52.759  20.407  22.135  0.00  0.00    +0.247 C 
ATOM      2  O   UNL     1      51.926  21.305  21.399  0.00  0.00    -0.298 OA
ENDBRANCH   3   2
ENDBRANCH  24  23
BRANCH  24  25
ATOM     25  C   UNL     1      50.789  18.839  18.591  0.00  0.00    +0.068 A 
ATOM     26  C   UNL     1      49.952  17.892  19.166  0.00  0.00    +0.070 A 
ATOM     27  C   UNL     1      49.821  16.645  18.592  0.00  0.00    +0.043 A 
ATOM     28  C   UNL     1      50.532  16.333  17.430  0.00  0.00    -0.021 A 
ATOM     44  C   UNL     1      51.374  17.286  16.852  0.00  0.00    -0.014 A 
ATOM     45  C   UNL     1      51.496  18.536  17.429  0.00  0.00    +0.125 A 
BRANCH  28  29
ATOM     29  C   UNL     1      50.394  14.999  16.815  0.00  0.00    +0.194 A 
ATOM     30  C   UNL     1      51.520  14.279  16.557  0.00  0.00    -0.125 A 
ATOM     31  C   UNL     1      51.408  12.997  15.968  0.00  0.00    +0.425 A 
ATOM     32  C   UNL     1      50.053  12.507  15.664  0.00  0.00    -0.293 A 
ATOM     33  C   UNL     1      48.957  13.332  15.971  0.00  0.00    +0.226 A 
ATOM     34  C   UNL     1      47.673  12.890  15.692  0.00  0.00    -0.064 A 
ATOM     35  C   UNL     1      47.478  11.645  15.114  0.00  0.00    +0.232 A 
ATOM     38  C   UNL     1      48.560  10.827  14.810  0.00  0.00    -0.186 A 
ATOM     39  C   UNL     1      49.848  11.250  15.081  0.00  0.00    +0.256 A 
ATOM     42  O   UNL     1      52.396  12.324  15.723  0.00  0.00    -0.452 OA
ATOM     43  O   UNL     1      49.164  14.539  16.537  0.00  0.00    -0.216 OA
BRANCH  35  36
ATOM     36  O   UNL     1      46.217  11.220  14.845  0.00  0.00    -0.302 OA
ATOM     37  C   UNL     1      45.446  10.738  15.948  0.00  0.00    +0.254 C 
ENDBRANCH  35  36
BRANCH  39  40
ATOM     40  O   UNL     1      50.906  10.454  14.783  0.00  0.00    -0.276 OA
ATOM     41  C   UNL     1      51.217  10.278  13.400  0.00  0.00    +0.247 C 
ENDBRANCH  39  40
ENDBRANCH  28  29
BRANCH  45  46
ATOM     46  O   UNL     1      52.311  19.469  16.866  0.00  0.00    -0.299 OA
ATOM     47  C   UNL     1      51.788  20.201  15.756  0.00  0.00    +0.248 C 
ENDBRANCH  45  46
ENDBRANCH  24  25
TORSDOF 10
ENDMDL
MODEL 2
REMARK VINA RESULT:      -6.9      0.999      2.178
REMARK  Name = ZINC95486264
REMARK  16 active torsions:
REMARK  status: ('A' for Active; 'I' for Inactive)
REMARK    1  A    between atoms: C1_1  and  O1_2
REMARK    2  A    between atoms: O1_2  and  C2_3
REMARK    3  A    between atoms: C5_6  and  C26_33
REMARK    4  A    between atoms: C7_8  and  O2_9
REMARK    5  A    between atoms: O2_9  and  C8_10
REMARK    6  A    between atoms: C11_13  and  C15_18
REMARK    7  A    between atoms: C13_15  and  O3_16
REMARK    8  A    between atoms: O3_16  and  C14_17
REMARK    9  A    between atoms: C21_26  and  O7_31
REMARK   10  A    between atoms: C23_28  and  O6_29
REMARK   11  A    between atoms: O6_29  and  C24_30
REMARK   12  A    between atoms: O7_31  and  C25_32
REMARK   13  A    between atoms: C32_41  and  O11_46
REMARK   14  A    between atoms: C34_43  and  O10_44
REMARK   15  A    between atoms: O10_44  and  C35_45
REMARK   16  A    between atoms: O11_46  and  C36_47
REMARK                            x       y       z     vdW  Elec       q    Type
REMARK                         _______ _______ _______ _____ _____    ______ ____
ROOT
ATOM     24  O   UNL     1      51.465  20.070  19.407  0.00  0.00    -0.230 OA
ENDROOT
BRANCH  24  23
ATOM      3  C   UNL     1      51.012  21.072  21.524  0.00  0.00    +0.139 A 
ATOM      4  C   UNL     1      50.098  21.542  22.457  0.00  0.00    -0.029 A 
ATOM      5  C   UNL     1      48.746  21.466  22.200  0.00  0.00    +0.078 A 
ATOM      6  C   UNL     1      48.292  20.914  21.000  0.00  0.00    -0.073 A 
ATOM     22  C   UNL     1      49.212  20.439  20.060  0.00  0.00    +0.026 A 
ATOM     23  C   UNL     1      50.567  20.525  20.321  0.00  0.00    +0.095 A 
BRANCH   6   7
ATOM      7  C   UNL     1      46.846  20.830  20.725  0.00  0.00    +0.207 A 
ATOM      8  C   UNL     1      46.269  21.794  19.957  0.00  0.00    -0.144 A 
ATOM      9  C   UNL     1      44.882  21.730  19.683  0.00  0.00    +0.426 A 
ATOM     10  C   UNL     1      44.128  20.600  20.253  0.00  0.00    -0.293 A 
ATOM     11  C   UNL     1      44.822  19.658  21.033  0.00  0.00    +0.226 A 
ATOM     12  C   UNL     1      44.133  18.587  21.581  0.00  0.00    -0.065 A 
ATOM     13  C   UNL     1      42.772  18.452  21.357  0.00  0.00    +0.232 A 
ATOM     16  C   UNL     1      42.083  19.382  20.586  0.00  0.00    -0.186 A 
ATOM     17  C   UNL     1      42.754  20.457  20.032  0.00  0.00    +0.255 A 
ATOM     20  O   UNL     1      44.332  22.577  18.997  0.00  0.00    -0.457 OA
ATOM     21  O   UNL     1      46.150  19.802  21.236  0.00  0.00    -0.216 OA
BRANCH  13  14
ATOM     14  O   UNL     1      42.103  17.401  21.898  0.00  0.00    -0.302 OA
ATOM     15  C   UNL     1      42.892  16.375  22.505  0.00  0.00    +0.253 C 
ENDBRANCH  13  14
BRANCH  17  18
ATOM     18  O   UNL     1      42.084  21.367  19.280  0.00  0.00    -0.276 OA
ATOM     19  C   UNL     1      40.747  21.035  18.899  0.00  0.00    +0.247 C 
ENDBRANCH  17  18
ENDBRANCH   6   7
BRANCH   3   2
ATOM      1  C   UNL     1      52.939  20.037  22.453  0.00  0.00    +0.247 C 
ATOM      2  O   UNL     1      52.343  21.149  21.780  0.00  0.00    -0.298 OA
ENDBRANCH   3   2
ENDBRANCH  24  23
BRANCH  24  25
ATOM     25  C   UNL     1      51.243  18.854  18.845  0.00  0.00    +0.068 A 
ATOM     26  C   UNL     1      51.357  17.704  19.616  0.00  0.00    +0.070 A 
ATOM     27  C   UNL     1      51.132  16.467  19.052  0.00  0.00    +0.043 A 
ATOM     28  C   UNL     1      50.789  16.368  17.700  0.00  0.00    -0.021 A 
ATOM     44  C   UNL     1      50.675  17.524  16.925  0.00  0.00    -0.014 A 
ATOM     45  C   UNL     1      50.895  18.762  17.499  0.00  0.00    +0.125 A 
BRANCH  28  29
ATOM     29  C   UNL     1      50.550  15.045  17.093  0.00  0.00    +0.194 A 
ATOM     30  C   UNL     1      51.621  14.290  16.726  0.00  0.00    -0.125 A 
ATOM     31  C   UNL     1      51.412  13.018  16.143  0.00  0.00    +0.425 A 
ATOM     32  C   UNL     1      50.018  12.576  15.965  0.00  0.00    -0.293 A 
ATOM     33  C   UNL     1      48.985  13.433  16.379  0.00  0.00    +0.226 A 
ATOM     34  C   UNL     1      47.666  13.036  16.221  0.00  0.00    -0.064 A 
ATOM     35  C   UNL     1      47.375  11.803  15.657  0.00  0.00    +0.232 A 
ATOM     38  C   UNL     1      48.396  10.953  15.247  0.00  0.00    -0.186 A 
ATOM     39  C   UNL     1      49.718  11.331  15.397  0.00  0.00    +0.256 A 
ATOM     42  O   UNL     1      52.349  12.315  15.801  0.00  0.00    -0.452 OA
ATOM     43  O   UNL     1      49.284  14.628  16.931  0.00  0.00    -0.216 OA
BRANCH  35  36
ATOM     36  O   UNL     1      46.081  11.421  15.506  0.00  0.00    -0.302 OA
ATOM     37  C   UNL     1      45.203  11.658  16.608  0.00  0.00    +0.254 C 
ENDBRANCH  35  36
BRANCH  39  40
ATOM     40  O   UNL     1      50.716  10.504  14.996  0.00  0.00    -0.276 OA
ATOM     41  C   UNL     1      50.847  10.278  13.591  0.00  0.00    +0.247 C 
ENDBRANCH  39  40
ENDBRANCH  28  29
BRANCH  45  46
ATOM     46  O   UNL     1      50.779  19.890  16.748  0.00  0.00    -0.299 OA
ATOM     47  C   UNL     1      51.978  20.411  16.170  0.00  0.00    +0.248 C 
ENDBRANCH  45  46
ENDBRANCH  24  25
TORSDOF 10
ENDMDL
MODEL 3
REMARK VINA RESULT:      -6.6      2.677      9.051
REMARK  Name = ZINC95486264
REMARK  16 active torsions:
REMARK  status: ('A' for Active; 'I' for Inactive)
REMARK    1  A    between atoms: C1_1  and  O1_2
REMARK    2  A    between atoms: O1_2  and  C2_3
REMARK    3  A    between atoms: C5_6  and  C26_33
REMARK    4  A    between atoms: C7_8  and  O2_9
REMARK    5  A    between atoms: O2_9  and  C8_10
REMARK    6  A    between atoms: C11_13  and  C15_18
REMARK    7  A    between atoms: C13_15  and  O3_16
REMARK    8  A    between atoms: O3_16  and  C14_17
REMARK    9  A    between atoms: C21_26  and  O7_31
REMARK   10  A    between atoms: C23_28  and  O6_29
REMARK   11  A    between atoms: O6_29  and  C24_30
REMARK   12  A    between atoms: O7_31  and  C25_32
REMARK   13  A    between atoms: C32_41  and  O11_46
REMARK   14  A    between atoms: C34_43  and  O10_44
REMARK   15  A    between atoms: O10_44  and  C35_45
REMARK   16  A    between atoms: O11_46  and  C36_47
REMARK                            x       y       z     vdW  Elec       q    Type
REMARK                         _______ _______ _______ _____ _____    ______ ____
ROOT
ATOM     24  O   UNL     1      53.368  17.054  19.391  0.00  0.00    -0.230 OA
ENDROOT
BRANCH  24  23
ATOM      3  C   UNL     1      54.332  14.889  19.661  0.00  0.00    +0.139 A 
ATOM      4  C   UNL     1      54.230  13.509  19.551  0.00  0.00    -0.029 A 
ATOM      5  C   UNL     1      53.078  12.938  19.055  0.00  0.00    +0.078 A 
ATOM      6  C   UNL     1      52.009  13.747  18.662  0.00  0.00    -0.073 A 
ATOM     22  C   UNL     1      52.112  15.137  18.772  0.00  0.00    +0.026 A 
ATOM     23  C   UNL     1      53.268  15.703  19.276  0.00  0.00    +0.095 A 
BRANCH   6   7
ATOM      7  C   UNL     1      50.776  13.137  18.130  0.00  0.00    +0.207 A 
ATOM      8  C   UNL     1      50.873  12.274  17.083  0.00  0.00    -0.144 A 
ATOM      9  C   UNL     1      49.700  11.679  16.559  0.00  0.00    +0.426 A 
ATOM     10  C   UNL     1      48.418  12.035  17.191  0.00  0.00    -0.293 A 
ATOM     11  C   UNL     1      48.430  12.938  18.269  0.00  0.00    +0.226 A 
ATOM     12  C   UNL     1      47.236  13.287  18.879  0.00  0.00    -0.065 A 
ATOM     13  C   UNL     1      46.042  12.747  18.425  0.00  0.00    +0.232 A 
ATOM     16  C   UNL     1      46.027  11.853  17.360  0.00  0.00    -0.186 A 
ATOM     17  C   UNL     1      47.210  11.493  16.739  0.00  0.00    +0.255 A 
ATOM     20  O   UNL     1      49.750  10.899  15.621  0.00  0.00    -0.457 OA
ATOM     21  O   UNL     1      49.603  13.450  18.701  0.00  0.00    -0.216 OA
BRANCH  13  14
ATOM     14  O   UNL     1      44.875  13.095  19.027  0.00  0.00    -0.302 OA
ATOM     15  C   UNL     1      44.964  13.639  20.345  0.00  0.00    +0.253 C 
ENDBRANCH  13  14
BRANCH  17  18
ATOM     18  O   UNL     1      47.197  10.622  15.699  0.00  0.00    -0.276 OA
ATOM     19  C   UNL     1      45.966  10.478  14.988  0.00  0.00    +0.247 C 
ENDBRANCH  17  18
ENDBRANCH   6   7
BRANCH   3   2
ATOM      1  C   UNL     1      56.705  14.991  19.596  0.00  0.00    +0.247 C 
ATOM      2  O   UNL     1      55.469  15.448  20.150  0.00  0.00    -0.298 OA
ENDBRANCH   3   2
ENDBRANCH  24  23
BRANCH  24  25
ATOM     25  C   UNL     1      52.226  17.766  19.570  0.00  0.00    +0.068 A 
ATOM     26  C   UNL     1      51.604  17.775  20.812  0.00  0.00    +0.070 A 
ATOM     27  C   UNL     1      50.443  18.496  21.000  0.00  0.00    +0.043 A 
ATOM     28  C   UNL     1      49.891  19.219  19.939  0.00  0.00    -0.021 A 
ATOM     44  C   UNL     1      50.517  19.210  18.690  0.00  0.00    -0.014 A 
ATOM     45  C   UNL     1      51.683  18.490  18.510  0.00  0.00    +0.125 A 
BRANCH  28  29
ATOM     29  C   UNL     1      48.649  19.990  20.137  0.00  0.00    +0.194 A 
ATOM     30  C   UNL     1      48.668  21.054  20.984  0.00  0.00    -0.125 A 
ATOM     31  C   UNL     1      47.486  21.806  21.187  0.00  0.00    +0.425 A 
ATOM     32  C   UNL     1      46.281  21.384  20.453  0.00  0.00    -0.293 A 
ATOM     33  C   UNL     1      46.370  20.270  19.602  0.00  0.00    +0.226 A 
ATOM     34  C   UNL     1      45.248  19.855  18.903  0.00  0.00    -0.064 A 
ATOM     35  C   UNL     1      44.049  20.538  19.046  0.00  0.00    +0.232 A 
ATOM     38  C   UNL     1      43.959  21.642  19.887  0.00  0.00    -0.186 A 
ATOM     39  C   UNL     1      45.068  22.070  20.593  0.00  0.00    +0.256 A 
ATOM     42  O   UNL     1      47.467  22.767  21.940  0.00  0.00    -0.452 OA
ATOM     43  O   UNL     1      47.545  19.618  19.470  0.00  0.00    -0.216 OA
BRANCH  35  36
ATOM     36  O   UNL     1      42.955  20.126  18.356  0.00  0.00    -0.302 OA
ATOM     37  C   UNL     1      41.692  20.652  18.770  0.00  0.00    +0.254 C 
ENDBRANCH  35  36
BRANCH  39  40
ATOM     40  O   UNL     1      44.981  23.146  21.416  0.00  0.00    -0.276 OA
ATOM     41  C   UNL     1      45.127  24.434  20.816  0.00  0.00    +0.247 C 
ENDBRANCH  39  40
ENDBRANCH  28  29
BRANCH  45  46
ATOM     46  O   UNL     1      52.298  18.483  17.296  0.00  0.00    -0.299 OA
ATOM     47  C   UNL     1      52.177  19.664  16.502  0.00  0.00    +0.248 C 
ENDBRANCH  45  46
ENDBRANCH  24  25
TORSDOF 10
ENDMDL
MODEL 4
REMARK VINA RESULT:      -6.5      2.702      9.397
REMARK  Name = ZINC95486264
REMARK  16 active torsions:
REMARK  status: ('A' for Active; 'I' for Inactive)
REMARK    1  A    between atoms: C1_1  and  O1_2
REMARK    2  A    between atoms: O1_2  and  C2_3
REMARK    3  A    between atoms: C5_6  and  C26_33
REMARK    4  A    between atoms: C7_8  and  O2_9
REMARK    5  A    between atoms: O2_9  and  C8_10
REMARK    6  A    between atoms: C11_13  and  C15_18
REMARK    7  A    between atoms: C13_15  and  O3_16
REMARK    8  A    between atoms: O3_16  and  C14_17
REMARK    9  A    between atoms: C21_26  and  O7_31
REMARK   10  A    between atoms: C23_28  and  O6_29
REMARK   11  A    between atoms: O6_29  and  C24_30
REMARK   12  A    between atoms: O7_31  and  C25_32
REMARK   13  A    between atoms: C32_41  and  O11_46
REMARK   14  A    between atoms: C34_43  and  O10_44
REMARK   15  A    between atoms: O10_44  and  C35_45
REMARK   16  A    between atoms: O11_46  and  C36_47
REMARK                            x       y       z     vdW  Elec       q    Type
REMARK                         _______ _______ _______ _____ _____    ______ ____
ROOT
ATOM     24  O   UNL     1      53.596  17.172  19.695  0.00  0.00    -0.230 OA
ENDROOT
BRANCH  24  23
ATOM      3  C   UNL     1      54.524  15.016  20.115  0.00  0.00    +0.139 A 
ATOM      4  C   UNL     1      54.457  13.636  19.987  0.00  0.00    -0.029 A 
ATOM      5  C   UNL     1      53.407  13.054  19.309  0.00  0.00    +0.078 A 
ATOM      6  C   UNL     1      52.407  13.854  18.749  0.00  0.00    -0.073 A 
ATOM     22  C   UNL     1      52.476  15.244  18.877  0.00  0.00    +0.026 A 
ATOM     23  C   UNL     1      53.529  15.821  19.563  0.00  0.00    +0.095 A 
BRANCH   6   7
ATOM      7  C   UNL     1      51.284  13.234  18.022  0.00  0.00    +0.207 A 
ATOM      8  C   UNL     1      50.438  12.415  18.703  0.00  0.00    -0.144 A 
ATOM      9  C   UNL     1      49.354  11.810  18.022  0.00  0.00    +0.426 A 
ATOM     10  C   UNL     1      49.201  12.110  16.588  0.00  0.00    -0.293 A 
ATOM     11  C   UNL     1      50.133  12.970  15.981  0.00  0.00    +0.226 A 
ATOM     12  C   UNL     1      50.009  13.266  14.632  0.00  0.00    -0.065 A 
ATOM     13  C   UNL     1      48.973  12.714  13.894  0.00  0.00    +0.232 A 
ATOM     16  C   UNL     1      48.050  11.863  14.493  0.00  0.00    -0.186 A 
ATOM     17  C   UNL     1      48.158  11.557  15.837  0.00  0.00    +0.255 A 
ATOM     20  O   UNL     1      48.574  11.071  18.602  0.00  0.00    -0.457 OA
ATOM     21  O   UNL     1      51.133  13.503  16.716  0.00  0.00    -0.216 OA
BRANCH  13  14
ATOM     14  O   UNL     1      48.858  13.008  12.574  0.00  0.00    -0.302 OA
ATOM     15  C   UNL     1      50.067  13.287  11.865  0.00  0.00    +0.253 C 
ENDBRANCH  13  14
BRANCH  17  18
ATOM     18  O   UNL     1      47.259  10.726  16.423  0.00  0.00    -0.276 OA
ATOM     19  C   UNL     1      45.876  11.031  16.237  0.00  0.00    +0.247 C 
ENDBRANCH  17  18
ENDBRANCH   6   7
BRANCH   3   2
ATOM      1  C   UNL     1      56.814  15.653  20.098  0.00  0.00    +0.247 C 
ATOM      2  O   UNL     1      55.561  15.585  20.783  0.00  0.00    -0.298 OA
ENDBRANCH   3   2
ENDBRANCH  24  23
BRANCH  24  25
ATOM     25  C   UNL     1      52.431  17.857  19.835  0.00  0.00    +0.068 A 
ATOM     26  C   UNL     1      51.699  17.744  21.010  0.00  0.00    +0.070 A 
ATOM     27  C   UNL     1      50.516  18.437  21.158  0.00  0.00    +0.043 A 
ATOM     28  C   UNL     1      50.053  19.256  20.125  0.00  0.00    -0.021 A 
ATOM     44  C   UNL     1      50.789  19.370  18.943  0.00  0.00    -0.014 A 
ATOM     45  C   UNL     1      51.977  18.677  18.804  0.00  0.00    +0.125 A 
BRANCH  28  29
ATOM     29  C   UNL     1      48.787  19.997  20.281  0.00  0.00    +0.194 A 
ATOM     30  C   UNL     1      48.753  21.063  21.127  0.00  0.00    -0.125 A 
ATOM     31  C   UNL     1      47.547  21.786  21.289  0.00  0.00    +0.425 A 
ATOM     32  C   UNL     1      46.378  21.336  20.516  0.00  0.00    -0.293 A 
ATOM     33  C   UNL     1      46.521  20.223  19.670  0.00  0.00    +0.226 A 
ATOM     34  C   UNL     1      45.433  19.782  18.934  0.00  0.00    -0.064 A 
ATOM     35  C   UNL     1      44.214  20.437  19.037  0.00  0.00    +0.232 A 
ATOM     38  C   UNL     1      44.070  21.538  19.872  0.00  0.00    -0.186 A 
ATOM     39  C   UNL     1      45.145  21.993  20.615  0.00  0.00    +0.256 A 
ATOM     42  O   UNL     1      47.481  22.746  22.040  0.00  0.00    -0.452 OA
ATOM     43  O   UNL     1      47.715  19.600  19.578  0.00  0.00    -0.216 OA
BRANCH  35  36
ATOM     36  O   UNL     1      43.153  19.999  18.311  0.00  0.00    -0.302 OA
ATOM     37  C   UNL     1      41.853  20.344  18.792  0.00  0.00    +0.254 C 
ENDBRANCH  35  36
BRANCH  39  40
ATOM     40  O   UNL     1      45.005  23.067  21.433  0.00  0.00    -0.276 OA
ATOM     41  C   UNL     1      45.094  24.359  20.828  0.00  0.00    +0.247 C 
ENDBRANCH  39  40
ENDBRANCH  28  29
BRANCH  45  46
ATOM     46  O   UNL     1      52.700  18.790  17.656  0.00  0.00    -0.299 OA
ATOM     47  C   UNL     1      52.198  19.681  16.659  0.00  0.00    +0.248 C 
ENDBRANCH  45  46
ENDBRANCH  24  25
TORSDOF 10
ENDMDL
MODEL 5
REMARK VINA RESULT:      -6.3      4.631      7.379
REMARK  Name = ZINC95486264
REMARK  16 active torsions:
REMARK  status: ('A' for Active; 'I' for Inactive)
REMARK    1  A    between atoms: C1_1  and  O1_2
REMARK    2  A    between atoms: O1_2  and  C2_3
REMARK    3  A    between atoms: C5_6  and  C26_33
REMARK    4  A    between atoms: C7_8  and  O2_9
REMARK    5  A    between atoms: O2_9  and  C8_10
REMARK    6  A    between atoms: C11_13  and  C15_18
REMARK    7  A    between atoms: C13_15  and  O3_16
REMARK    8  A    between atoms: O3_16  and  C14_17
REMARK    9  A    between atoms: C21_26  and  O7_31
REMARK   10  A    between atoms: C23_28  and  O6_29
REMARK   11  A    between atoms: O6_29  and  C24_30
REMARK   12  A    between atoms: O7_31  and  C25_32
REMARK   13  A    between atoms: C32_41  and  O11_46
REMARK   14  A    between atoms: C34_43  and  O10_44
REMARK   15  A    between atoms: O10_44  and  C35_45
REMARK   16  A    between atoms: O11_46  and  C36_47
REMARK                            x       y       z     vdW  Elec       q    Type
REMARK                         _______ _______ _______ _____ _____    ______ ____
ROOT
ATOM     24  O   UNL     1      49.886  14.852  16.576  0.00  0.00    -0.230 OA
ENDROOT
BRANCH  24  23
ATOM      3  C   UNL     1      48.069  13.324  16.810  0.00  0.00    +0.139 A 
ATOM      4  C   UNL     1      46.798  13.037  17.287  0.00  0.00    -0.029 A 
ATOM      5  C   UNL     1      46.090  13.989  17.989  0.00  0.00    +0.078 A 
ATOM      6  C   UNL     1      46.651  15.248  18.220  0.00  0.00    -0.073 A 
ATOM     22  C   UNL     1      47.932  15.538  17.738  0.00  0.00    +0.026 A 
ATOM     23  C   UNL     1      48.638  14.576  17.041  0.00  0.00    +0.095 A 
BRANCH   6   7
ATOM      7  C   UNL     1      45.895  16.269  18.968  0.00  0.00    +0.207 A 
ATOM      8  C   UNL     1      45.098  15.870  19.996  0.00  0.00    -0.144 A 
ATOM      9  C   UNL     1      44.365  16.836  20.726  0.00  0.00    +0.426 A 
ATOM     10  C   UNL     1      44.511  18.245  20.323  0.00  0.00    -0.293 A 
ATOM     11  C   UNL     1      45.361  18.549  19.246  0.00  0.00    +0.226 A 
ATOM     12  C   UNL     1      45.513  19.869  18.849  0.00  0.00    -0.065 A 
ATOM     13  C   UNL     1      44.829  20.875  19.514  0.00  0.00    +0.232 A 
ATOM     16  C   UNL     1      43.988  20.577  20.580  0.00  0.00    -0.186 A 
ATOM     17  C   UNL     1      43.824  19.266  20.989  0.00  0.00    +0.255 A 
ATOM     20  O   UNL     1      43.642  16.513  21.655  0.00  0.00    -0.457 OA
ATOM     21  O   UNL     1      46.024  17.557  18.613  0.00  0.00    -0.216 OA
BRANCH  13  14
ATOM     14  O   UNL     1      44.982  22.165  19.119  0.00  0.00    -0.302 OA
ATOM     15  C   UNL     1      44.029  23.111  19.609  0.00  0.00    +0.253 C 
ENDBRANCH  13  14
BRANCH  17  18
ATOM     18  O   UNL     1      43.002  18.973  22.029  0.00  0.00    -0.276 OA
ATOM     19  C   UNL     1      41.602  19.165  21.824  0.00  0.00    +0.247 C 
ENDBRANCH  17  18
ENDBRANCH   6   7
BRANCH   3   2
ATOM      1  C   UNL     1      48.405  12.190  14.748  0.00  0.00    +0.247 C 
ATOM      2  O   UNL     1      48.763  12.383  16.119  0.00  0.00    -0.298 OA
ENDBRANCH   3   2
ENDBRANCH  24  23
BRANCH  24  25
ATOM     25  C   UNL     1      50.948  14.448  17.321  0.00  0.00    +0.068 A 
ATOM     26  C   UNL     1      51.384  13.132  17.246  0.00  0.00    +0.070 A 
ATOM     27  C   UNL     1      52.461  12.716  18.000  0.00  0.00    +0.043 A 
ATOM     28  C   UNL     1      53.116  13.621  18.840  0.00  0.00    -0.021 A 
ATOM     44  C   UNL     1      52.677  14.945  18.915  0.00  0.00    -0.014 A 
ATOM     45  C   UNL     1      51.600  15.356  18.152  0.00  0.00    +0.125 A 
BRANCH  28  29
ATOM     29  C   UNL     1      54.268  13.178  19.648  0.00  0.00    +0.194 A 
ATOM     30  C   UNL     1      54.318  11.882  20.060  0.00  0.00    -0.125 A 
ATOM     31  C   UNL     1      55.415  11.439  20.836  0.00  0.00    +0.425 A 
ATOM     32  C   UNL     1      56.461  12.425  21.157  0.00  0.00    -0.293 A 
ATOM     33  C   UNL     1      56.311  13.739  20.682  0.00  0.00    +0.226 A 
ATOM     34  C   UNL     1      57.283  14.683  20.973  0.00  0.00    -0.064 A 
ATOM     35  C   UNL     1      58.391  14.329  21.729  0.00  0.00    +0.232 A 
ATOM     38  C   UNL     1      58.541  13.030  22.200  0.00  0.00    -0.186 A 
ATOM     39  C   UNL     1      57.582  12.074  21.920  0.00  0.00    +0.256 A 
ATOM     42  O   UNL     1      55.493  10.283  21.223  0.00  0.00    -0.452 OA
ATOM     43  O   UNL     1      55.230  14.067  19.944  0.00  0.00    -0.216 OA
BRANCH  35  36
ATOM     36  O   UNL     1      59.338  15.260  22.009  0.00  0.00    -0.302 OA
ATOM     37  C   UNL     1      59.247  16.507  21.316  0.00  0.00    +0.254 C 
ENDBRANCH  35  36
BRANCH  39  40
ATOM     40  O   UNL     1      57.726  10.805  22.380  0.00  0.00    -0.276 OA
ATOM     41  C   UNL     1      59.053  10.277  22.421  0.00  0.00    +0.247 C 
ENDBRANCH  39  40
ENDBRANCH  28  29
BRANCH  45  46
ATOM     46  O   UNL     1      51.173  16.647  18.218  0.00  0.00    -0.299 OA
ATOM     47  C   UNL     1      52.088  17.606  18.750  0.00  0.00    +0.248 C 
ENDBRANCH  45  46
ENDBRANCH  24  25
TORSDOF 10
ENDMDL
MODEL 6
REMARK VINA RESULT:      -6.2      4.377      6.857
REMARK  Name = ZINC95486264
REMARK  16 active torsions:
REMARK  status: ('A' for Active; 'I' for Inactive)
REMARK    1  A    between atoms: C1_1  and  O1_2
REMARK    2  A    between atoms: O1_2  and  C2_3
REMARK    3  A    between atoms: C5_6  and  C26_33
REMARK    4  A    between atoms: C7_8  and  O2_9
REMARK    5  A    between atoms: O2_9  and  C8_10
REMARK    6  A    between atoms: C11_13  and  C15_18
REMARK    7  A    between atoms: C13_15  and  O3_16
REMARK    8  A    between atoms: O3_16  and  C14_17
REMARK    9  A    between atoms: C21_26  and  O7_31
REMARK   10  A    between atoms: C23_28  and  O6_29
REMARK   11  A    between atoms: O6_29  and  C24_30
REMARK   12  A    between atoms: O7_31  and  C25_32
REMARK   13  A    between atoms: C32_41  and  O11_46
REMARK   14  A    between atoms: C34_43  and  O10_44
REMARK   15  A    between atoms: O10_44  and  C35_45
REMARK   16  A    between atoms: O11_46  and  C36_47
REMARK                            x       y       z     vdW  Elec       q    Type
REMARK                         _______ _______ _______ _____ _____    ______ ____
ROOT
ATOM     24  O   UNL     1      47.039  14.712  19.462  0.00  0.00    -0.230 OA
ENDROOT
BRANCH  24  23
ATOM      3  C   UNL     1      45.861  14.897  21.528  0.00  0.00    +0.139 A 
ATOM      4  C   UNL     1      45.106  15.652  22.414  0.00  0.00    -0.029 A 
ATOM      5  C   UNL     1      44.778  16.955  22.108  0.00  0.00    +0.078 A 
ATOM      6  C   UNL     1      45.204  17.519  20.902  0.00  0.00    -0.073 A 
ATOM     22  C   UNL     1      45.964  16.757  20.009  0.00  0.00    +0.026 A 
ATOM     23  C   UNL     1      46.295  15.453  20.326  0.00  0.00    +0.095 A 
BRANCH   6   7
ATOM      7  C   UNL     1      44.852  18.912  20.572  0.00  0.00    +0.207 A 
ATOM      8  C   UNL     1      45.768  19.891  20.806  0.00  0.00    -0.144 A 
ATOM      9  C   UNL     1      45.448  21.234  20.495  0.00  0.00    +0.426 A 
ATOM     10  C   UNL     1      44.117  21.500  19.924  0.00  0.00    -0.293 A 
ATOM     11  C   UNL     1      43.245  20.415  19.723  0.00  0.00    +0.226 A 
ATOM     12  C   UNL     1      41.987  20.641  19.187  0.00  0.00    -0.065 A 
ATOM     13  C   UNL     1      41.598  21.930  18.855  0.00  0.00    +0.232 A 
ATOM     16  C   UNL     1      42.457  23.005  19.053  0.00  0.00    -0.186 A 
ATOM     17  C   UNL     1      43.716  22.797  19.586  0.00  0.00    +0.255 A 
ATOM     20  O   UNL     1      46.246  22.137  20.691  0.00  0.00    -0.457 OA
ATOM     21  O   UNL     1      43.643  19.165  20.047  0.00  0.00    -0.216 OA
BRANCH  13  14
ATOM     14  O   UNL     1      40.363  22.144  18.331  0.00  0.00    -0.302 OA
ATOM     15  C   UNL     1      39.435  21.060  18.396  0.00  0.00    +0.253 C 
ENDBRANCH  13  14
BRANCH  17  18
ATOM     18  O   UNL     1      44.556  23.845  19.781  0.00  0.00    -0.276 OA
ATOM     19  C   UNL     1      44.565  24.866  18.781  0.00  0.00    +0.247 C 
ENDBRANCH  17  18
ENDBRANCH   6   7
BRANCH   3   2
ATOM      1  C   UNL     1      45.185  12.837  22.504  0.00  0.00    +0.247 C 
ATOM      2  O   UNL     1      46.182  13.613  21.834  0.00  0.00    -0.298 OA
ENDBRANCH   3   2
ENDBRANCH  24  23
BRANCH  24  25
ATOM     25  C   UNL     1      48.344  14.495  19.769  0.00  0.00    +0.068 A 
ATOM     26  C   UNL     1      48.713  13.341  20.448  0.00  0.00    +0.070 A 
ATOM     27  C   UNL     1      50.036  13.115  20.762  0.00  0.00    +0.043 A 
ATOM     28  C   UNL     1      51.010  14.049  20.397  0.00  0.00    -0.021 A 
ATOM     44  C   UNL     1      50.639  15.210  19.715  0.00  0.00    -0.014 A 
ATOM     45  C   UNL     1      49.311  15.428  19.398  0.00  0.00    +0.125 A 
BRANCH  28  29
ATOM     29  C   UNL     1      52.426  13.810  20.734  0.00  0.00    +0.194 A 
ATOM     30  C   UNL     1      52.770  12.628  21.313  0.00  0.00    -0.125 A 
ATOM     31  C   UNL     1      54.124  12.381  21.643  0.00  0.00    +0.425 A 
ATOM     32  C   UNL     1      55.101  13.438  21.332  0.00  0.00    -0.293 A 
ATOM     33  C   UNL     1      54.639  14.622  20.733  0.00  0.00    +0.226 A 
ATOM     34  C   UNL     1      55.542  15.630  20.432  0.00  0.00    -0.064 A 
ATOM     35  C   UNL     1      56.887  15.467  20.724  0.00  0.00    +0.232 A 
ATOM     38  C   UNL     1      57.347  14.296  21.316  0.00  0.00    -0.186 A 
ATOM     39  C   UNL     1      56.461  13.279  21.624  0.00  0.00    +0.256 A 
ATOM     42  O   UNL     1      54.468  11.332  22.164  0.00  0.00    -0.452 OA
ATOM     43  O   UNL     1      53.327  14.765  20.451  0.00  0.00    -0.216 OA
BRANCH  35  36
ATOM     36  O   UNL     1      57.765  16.459  20.426  0.00  0.00    -0.302 OA
ATOM     37  C   UNL     1      59.075  16.357  20.989  0.00  0.00    +0.254 C 
ENDBRANCH  35  36
BRANCH  39  40
ATOM     40  O   UNL     1      56.907  12.136  22.203  0.00  0.00    -0.276 OA
ATOM     41  C   UNL     1      58.275  11.785  21.979  0.00  0.00    +0.247 C 
ENDBRANCH  39  40
ENDBRANCH  28  29
BRANCH  45  46
ATOM     46  O   UNL     1      48.947  16.555  18.728  0.00  0.00    -0.299 OA
ATOM     47  C   UNL     1      49.366  16.664  17.367  0.00  0.00    +0.248 C 
ENDBRANCH  45  46
ENDBRANCH  24  25
TORSDOF 10
ENDMDL
MODEL 7
REMARK VINA RESULT:      -6.1      2.434      9.818
REMARK  Name = ZINC95486264
REMARK  16 active torsions:
REMARK  status: ('A' for Active; 'I' for Inactive)
REMARK    1  A    between atoms: C1_1  and  O1_2
REMARK    2  A    between atoms: O1_2  and  C2_3
REMARK    3  A    between atoms: C5_6  and  C26_33
REMARK    4  A    between atoms: C7_8  and  O2_9
REMARK    5  A    between atoms: O2_9  and  C8_10
REMARK    6  A    between atoms: C11_13  and  C15_18
REMARK    7  A    between atoms: C13_15  and  O3_16
REMARK    8  A    between atoms: O3_16  and  C14_17
REMARK    9  A    between atoms: C21_26  and  O7_31
REMARK   10  A    between atoms: C23_28  and  O6_29
REMARK   11  A    between atoms: O6_29  and  C24_30
REMARK   12  A    between atoms: O7_31  and  C25_32
REMARK   13  A    between atoms: C32_41  and  O11_46
REMARK   14  A    between atoms: C34_43  and  O10_44
REMARK   15  A    between atoms: O10_44  and  C35_45
REMARK   16  A    between atoms: O11_46  and  C36_47
REMARK                            x       y       z     vdW  Elec       q    Type
REMARK                         _______ _______ _______ _____ _____    ______ ____
ROOT
ATOM     24  O   UNL     1      52.705  17.667  20.112  0.00  0.00    -0.230 OA
ENDROOT
BRANCH  24  23
ATOM      3  C   UNL     1      54.199  15.842  20.475  0.00  0.00    +0.139 A 
ATOM      4  C   UNL     1      54.533  14.510  20.281  0.00  0.00    -0.029 A 
ATOM      5  C   UNL     1      53.715  13.694  19.529  0.00  0.00    +0.078 A 
ATOM      6  C   UNL     1      52.547  14.208  18.959  0.00  0.00    -0.073 A 
ATOM     22  C   UNL     1      52.211  15.551  19.154  0.00  0.00    +0.026 A 
ATOM     23  C   UNL     1      53.032  16.362  19.915  0.00  0.00    +0.095 A 
BRANCH   6   7
ATOM      7  C   UNL     1      51.672  13.337  18.153  0.00  0.00    +0.207 A 
ATOM      8  C   UNL     1      50.476  12.950  18.673  0.00  0.00    -0.144 A 
ATOM      9  C   UNL     1      49.623  12.114  17.913  0.00  0.00    +0.426 A 
ATOM     10  C   UNL     1      50.088  11.704  16.577  0.00  0.00    -0.293 A 
ATOM     11  C   UNL     1      51.342  12.161  16.136  0.00  0.00    +0.226 A 
ATOM     12  C   UNL     1      51.800  11.787  14.882  0.00  0.00    -0.065 A 
ATOM     13  C   UNL     1      51.023  10.970  14.075  0.00  0.00    +0.232 A 
ATOM     16  C   UNL     1      49.782  10.517  14.510  0.00  0.00    -0.186 A 
ATOM     17  C   UNL     1      49.309  10.880  15.758  0.00  0.00    +0.255 A 
ATOM     20  O   UNL     1      48.542  11.749  18.349  0.00  0.00    -0.457 OA
ATOM     21  O   UNL     1      52.084  12.961  16.932  0.00  0.00    -0.216 OA
BRANCH  13  14
ATOM     14  O   UNL     1      51.479  10.607  12.849  0.00  0.00    -0.302 OA
ATOM     15  C   UNL     1      51.163  11.474  11.758  0.00  0.00    +0.253 C 
ENDBRANCH  13  14
BRANCH  17  18
ATOM     18  O   UNL     1      48.099  10.438  16.184  0.00  0.00    -0.276 OA
ATOM     19  C   UNL     1      46.972  10.733  15.356  0.00  0.00    +0.247 C 
ENDBRANCH  17  18
ENDBRANCH   6   7
BRANCH   3   2
ATOM      1  C   UNL     1      56.063  16.006  21.940  0.00  0.00    +0.247 C 
ATOM      2  O   UNL     1      55.007  16.643  21.217  0.00  0.00    -0.298 OA
ENDBRANCH   3   2
ENDBRANCH  24  23
BRANCH  24  25
ATOM     25  C   UNL     1      51.390  18.006  20.085  0.00  0.00    +0.068 A 
ATOM     26  C   UNL     1      50.521  17.480  21.032  0.00  0.00    +0.070 A 
ATOM     27  C   UNL     1      49.185  17.821  21.009  0.00  0.00    +0.043 A 
ATOM     28  C   UNL     1      48.704  18.696  20.031  0.00  0.00    -0.021 A 
ATOM     44  C   UNL     1      49.579  19.224  19.078  0.00  0.00    -0.014 A 
ATOM     45  C   UNL     1      50.918  18.883  19.111  0.00  0.00    +0.125 A 
BRANCH  28  29
ATOM     29  C   UNL     1      47.275  19.061  20.004  0.00  0.00    +0.194 A 
ATOM     30  C   UNL     1      46.349  18.092  20.240  0.00  0.00    -0.125 A 
ATOM     31  C   UNL     1      44.973  18.422  20.218  0.00  0.00    +0.425 A 
ATOM     32  C   UNL     1      44.617  19.824  19.938  0.00  0.00    -0.293 A 
ATOM     33  C   UNL     1      45.652  20.745  19.707  0.00  0.00    +0.226 A 
ATOM     34  C   UNL     1      45.340  22.069  19.441  0.00  0.00    -0.064 A 
ATOM     35  C   UNL     1      44.014  22.474  19.401  0.00  0.00    +0.232 A 
ATOM     38  C   UNL     1      42.988  21.565  19.630  0.00  0.00    -0.186 A 
ATOM     39  C   UNL     1      43.280  20.240  19.897  0.00  0.00    +0.256 A 
ATOM     42  O   UNL     1      44.115  17.579  20.426  0.00  0.00    -0.452 OA
ATOM     43  O   UNL     1      46.938  20.336  19.754  0.00  0.00    -0.216 OA
BRANCH  35  36
ATOM     36  O   UNL     1      43.716  23.773  19.140  0.00  0.00    -0.302 OA
ATOM     37  C   UNL     1      44.808  24.694  19.102  0.00  0.00    +0.254 C 
ENDBRANCH  35  36
BRANCH  39  40
ATOM     40  O   UNL     1      42.280  19.350  20.118  0.00  0.00    -0.276 OA
ATOM     41  C   UNL     1      40.988  19.685  19.606  0.00  0.00    +0.247 C 
ENDBRANCH  39  40
ENDBRANCH  28  29
BRANCH  45  46
ATOM     46  O   UNL     1      51.774  19.400  18.188  0.00  0.00    -0.299 OA
ATOM     47  C   UNL     1      51.791  18.780  16.901  0.00  0.00    +0.248 C 
ENDBRANCH  45  46
ENDBRANCH  24  25
TORSDOF 10
ENDMDL
MODEL 8
REMARK VINA RESULT:      -6.1      4.370      6.958
REMARK  Name = ZINC95486264
REMARK  16 active torsions:
REMARK  status: ('A' for Active; 'I' for Inactive)
REMARK    1  A    between atoms: C1_1  and  O1_2
REMARK    2  A    between atoms: O1_2  and  C2_3
REMARK    3  A    between atoms: C5_6  and  C26_33
REMARK    4  A    between atoms: C7_8  and  O2_9
REMARK    5  A    between atoms: O2_9  and  C8_10
REMARK    6  A    between atoms: C11_13  and  C15_18
REMARK    7  A    between atoms: C13_15  and  O3_16
REMARK    8  A    between atoms: O3_16  and  C14_17
REMARK    9  A    between atoms: C21_26  and  O7_31
REMARK   10  A    between atoms: C23_28  and  O6_29
REMARK   11  A    between atoms: O6_29  and  C24_30
REMARK   12  A    between atoms: O7_31  and  C25_32
REMARK   13  A    between atoms: C32_41  and  O11_46
REMARK   14  A    between atoms: C34_43  and  O10_44
REMARK   15  A    between atoms: O10_44  and  C35_45
REMARK   16  A    between atoms: O11_46  and  C36_47
REMARK                            x       y       z     vdW  Elec       q    Type
REMARK                         _______ _______ _______ _____ _____    ______ ____
ROOT
ATOM     24  O   UNL     1      49.067  15.084  16.875  0.00  0.00    -0.230 OA
ENDROOT
BRANCH  24  23
ATOM      3  C   UNL     1      47.151  14.097  17.897  0.00  0.00    +0.139 A 
ATOM      4  C   UNL     1      45.986  14.229  18.639  0.00  0.00    -0.029 A 
ATOM      5  C   UNL     1      45.583  15.472  19.080  0.00  0.00    +0.078 A 
ATOM      6  C   UNL     1      46.348  16.602  18.779  0.00  0.00    -0.073 A 
ATOM     22  C   UNL     1      47.522  16.468  18.031  0.00  0.00    +0.026 A 
ATOM     23  C   UNL     1      47.923  15.218  17.598  0.00  0.00    +0.095 A 
BRANCH   6   7
ATOM      7  C   UNL     1      45.918  17.932  19.248  0.00  0.00    +0.207 A 
ATOM      8  C   UNL     1      46.715  18.606  20.121  0.00  0.00    -0.144 A 
ATOM      9  C   UNL     1      46.318  19.885  20.582  0.00  0.00    +0.426 A 
ATOM     10  C   UNL     1      45.042  20.422  20.079  0.00  0.00    -0.293 A 
ATOM     11  C   UNL     1      44.296  19.642  19.179  0.00  0.00    +0.226 A 
ATOM     12  C   UNL     1      43.091  20.127  18.693  0.00  0.00    -0.065 A 
ATOM     13  C   UNL     1      42.633  21.372  19.096  0.00  0.00    +0.232 A 
ATOM     16  C   UNL     1      43.370  22.146  19.986  0.00  0.00    -0.186 A 
ATOM     17  C   UNL     1      44.574  21.678  20.481  0.00  0.00    +0.255 A 
ATOM     20  O   UNL     1      47.009  20.518  21.364  0.00  0.00    -0.457 OA
ATOM     21  O   UNL     1      44.760  18.433  18.793  0.00  0.00    -0.216 OA
BRANCH  13  14
ATOM     14  O   UNL     1      41.452  21.841  18.617  0.00  0.00    -0.302 OA
ATOM     15  C   UNL     1      40.268  21.151  19.022  0.00  0.00    +0.253 C 
ENDBRANCH  13  14
BRANCH  17  18
ATOM     18  O   UNL     1      45.294  22.431  21.350  0.00  0.00    -0.276 OA
ATOM     19  C   UNL     1      45.616  23.762  20.944  0.00  0.00    +0.247 C 
ENDBRANCH  17  18
ENDBRANCH   6   7
BRANCH   3   2
ATOM      1  C   UNL     1      47.332  11.771  18.354  0.00  0.00    +0.247 C 
ATOM      2  O   UNL     1      47.544  12.871  17.465  0.00  0.00    -0.298 OA
ENDBRANCH   3   2
ENDBRANCH  24  23
BRANCH  24  25
ATOM     25  C   UNL     1      50.182  14.655  17.520  0.00  0.00    +0.068 A 
ATOM     26  C   UNL     1      50.522  13.309  17.493  0.00  0.00    +0.070 A 
ATOM     27  C   UNL     1      51.653  12.867  18.146  0.00  0.00    +0.043 A 
ATOM     28  C   UNL     1      52.460  13.776  18.838  0.00  0.00    -0.021 A 
ATOM     44  C   UNL     1      52.117  15.130  18.866  0.00  0.00    -0.014 A 
ATOM     45  C   UNL     1      50.985  15.566  18.204  0.00  0.00    +0.125 A 
BRANCH  28  29
ATOM     29  C   UNL     1      53.670  13.305  19.539  0.00  0.00    +0.194 A 
ATOM     30  C   UNL     1      53.796  11.977  19.804  0.00  0.00    -0.125 A 
ATOM     31  C   UNL     1      54.950  11.507  20.476  0.00  0.00    +0.425 A 
ATOM     32  C   UNL     1      55.967  12.503  20.854  0.00  0.00    -0.293 A 
ATOM     33  C   UNL     1      55.737  13.851  20.532  0.00  0.00    +0.226 A 
ATOM     34  C   UNL     1      56.681  14.805  20.879  0.00  0.00    -0.064 A 
ATOM     35  C   UNL     1      57.840  14.426  21.540  0.00  0.00    +0.232 A 
ATOM     38  C   UNL     1      58.070  13.093  21.859  0.00  0.00    -0.186 A 
ATOM     39  C   UNL     1      57.140  12.127  21.521  0.00  0.00    +0.256 A 
ATOM     42  O   UNL     1      55.097  10.322  20.730  0.00  0.00    -0.452 OA
ATOM     43  O   UNL     1      54.606  14.203  19.884  0.00  0.00    -0.216 OA
BRANCH  35  36
ATOM     36  O   UNL     1      58.760  15.367  21.876  0.00  0.00    -0.302 OA
ATOM     37  C   UNL     1      58.911  16.472  20.984  0.00  0.00    +0.254 C 
ENDBRANCH  35  36
BRANCH  39  40
ATOM     40  O   UNL     1      57.362  10.825  21.833  0.00  0.00    -0.276 OA
ATOM     41  C   UNL     1      58.634  10.280  21.477  0.00  0.00    +0.247 C 
ENDBRANCH  39  40
ENDBRANCH  28  29
BRANCH  45  46
ATOM     46  O   UNL     1      50.651  16.885  18.224  0.00  0.00    -0.299 OA
ATOM     47  C   UNL     1      51.227  17.715  17.214  0.00  0.00    +0.248 C 
ENDBRANCH  45  46
ENDBRANCH  24  25
TORSDOF 10
ENDMDL
MODEL 9
REMARK VINA RESULT:      -6.0      4.263      8.489
REMARK  Name = ZINC95486264
REMARK  16 active torsions:
REMARK  status: ('A' for Active; 'I' for Inactive)
REMARK    1  A    between atoms: C1_1  and  O1_2
REMARK    2  A    between atoms: O1_2  and  C2_3
REMARK    3  A    between atoms: C5_6  and  C26_33
REMARK    4  A    between atoms: C7_8  and  O2_9
REMARK    5  A    between atoms: O2_9  and  C8_10
REMARK    6  A    between atoms: C11_13  and  C15_18
REMARK    7  A    between atoms: C13_15  and  O3_16
REMARK    8  A    between atoms: O3_16  and  C14_17
REMARK    9  A    between atoms: C21_26  and  O7_31
REMARK   10  A    between atoms: C23_28  and  O6_29
REMARK   11  A    between atoms: O6_29  and  C24_30
REMARK   12  A    between atoms: O7_31  and  C25_32
REMARK   13  A    between atoms: C32_41  and  O11_46
REMARK   14  A    between atoms: C34_43  and  O10_44
REMARK   15  A    between atoms: O10_44  and  C35_45
REMARK   16  A    between atoms: O11_46  and  C36_47
REMARK                            x       y       z     vdW  Elec       q    Type
REMARK                         _______ _______ _______ _____ _____    ______ ____
ROOT
ATOM     24  O   UNL     1      49.270  18.983  19.563  0.00  0.00    -0.230 OA
ENDROOT
BRANCH  24  23
ATOM      3  C   UNL     1      47.057  19.321  18.738  0.00  0.00    +0.139 A 
ATOM      4  C   UNL     1      45.934  18.833  18.086  0.00  0.00    -0.029 A 
ATOM      5  C   UNL     1      45.909  17.534  17.627  0.00  0.00    +0.078 A 
ATOM      6  C   UNL     1      47.017  16.703  17.818  0.00  0.00    -0.073 A 
ATOM     22  C   UNL     1      48.148  17.194  18.477  0.00  0.00    +0.026 A 
ATOM     23  C   UNL     1      48.169  18.501  18.929  0.00  0.00    +0.095 A 
BRANCH   6   7
ATOM      7  C   UNL     1      46.992  15.313  17.329  0.00  0.00    +0.207 A 
ATOM      8  C   UNL     1      45.952  14.512  17.689  0.00  0.00    -0.144 A 
ATOM      9  C   UNL     1      45.911  13.174  17.229  0.00  0.00    +0.426 A 
ATOM     10  C   UNL     1      47.017  12.717  16.370  0.00  0.00    -0.293 A 
ATOM     11  C   UNL     1      48.043  13.626  16.059  0.00  0.00    +0.226 A 
ATOM     12  C   UNL     1      49.094  13.218  15.253  0.00  0.00    -0.065 A 
ATOM     13  C   UNL     1      49.127  11.922  14.761  0.00  0.00    +0.232 A 
ATOM     16  C   UNL     1      48.114  11.021  15.067  0.00  0.00    -0.186 A 
ATOM     17  C   UNL     1      47.057  11.411  15.870  0.00  0.00    +0.255 A 
ATOM     20  O   UNL     1      44.993  12.428  17.531  0.00  0.00    -0.457 OA
ATOM     21  O   UNL     1      47.992  14.887  16.543  0.00  0.00    -0.216 OA
BRANCH  13  14
ATOM     14  O   UNL     1      50.161  11.530  13.973  0.00  0.00    -0.302 OA
ATOM     15  C   UNL     1      51.480  11.743  14.479  0.00  0.00    +0.253 C 
ENDBRANCH  13  14
BRANCH  17  18
ATOM     18  O   UNL     1      46.068  10.532  16.170  0.00  0.00    -0.276 OA
ATOM     19  C   UNL     1      45.095  10.278  15.155  0.00  0.00    +0.247 C 
ENDBRANCH  17  18
ENDBRANCH   6   7
BRANCH   3   2
ATOM      1  C   UNL     1      45.814  21.212  19.463  0.00  0.00    +0.247 C 
ATOM      2  O   UNL     1      47.077  20.602  19.189  0.00  0.00    -0.298 OA
ENDBRANCH   3   2
ENDBRANCH  24  23
BRANCH  24  25
ATOM     25  C   UNL     1      50.261  18.108  19.875  0.00  0.00    +0.068 A 
ATOM     26  C   UNL     1      50.147  17.308  21.005  0.00  0.00    +0.070 A 
ATOM     27  C   UNL     1      51.150  16.418  21.327  0.00  0.00    +0.043 A 
ATOM     28  C   UNL     1      52.283  16.319  20.514  0.00  0.00    -0.021 A 
ATOM     44  C   UNL     1      52.397  17.124  19.378  0.00  0.00    -0.014 A 
ATOM     45  C   UNL     1      51.386  18.010  19.058  0.00  0.00    +0.125 A 
BRANCH  28  29
ATOM     29  C   UNL     1      53.358  15.369  20.857  0.00  0.00    +0.194 A 
ATOM     30  C   UNL     1      53.053  14.047  20.961  0.00  0.00    -0.125 A 
ATOM     31  C   UNL     1      54.071  13.120  21.290  0.00  0.00    +0.425 A 
ATOM     32  C   UNL     1      55.428  13.651  21.502  0.00  0.00    -0.293 A 
ATOM     33  C   UNL     1      55.635  15.034  21.370  0.00  0.00    +0.226 A 
ATOM     34  C   UNL     1      56.904  15.555  21.566  0.00  0.00    -0.064 A 
ATOM     35  C   UNL     1      57.957  14.714  21.891  0.00  0.00    +0.232 A 
ATOM     38  C   UNL     1      57.755  13.344  22.021  0.00  0.00    -0.186 A 
ATOM     39  C   UNL     1      56.496  12.806  21.829  0.00  0.00    +0.256 A 
ATOM     42  O   UNL     1      53.833  11.927  21.391  0.00  0.00    -0.452 OA
ATOM     43  O   UNL     1      54.600  15.840  21.049  0.00  0.00    -0.216 OA
BRANCH  35  36
ATOM     36  O   UNL     1      59.198  15.232  22.080  0.00  0.00    -0.302 OA
ATOM     37  C   UNL     1      59.337  16.647  21.942  0.00  0.00    +0.254 C 
ENDBRANCH  35  36
BRANCH  39  40
ATOM     40  O   UNL     1      56.296  11.470  21.958  0.00  0.00    -0.276 OA
ATOM     41  C   UNL     1      57.162  10.610  21.214  0.00  0.00    +0.247 C 
ENDBRANCH  39  40
ENDBRANCH  28  29
BRANCH  45  46
ATOM     46  O   UNL     1      51.490  18.791  17.949  0.00  0.00    -0.299 OA
ATOM     47  C   UNL     1      52.653  19.615  17.844  0.00  0.00    +0.248 C 
ENDBRANCH  45  46
ENDBRANCH  24  25
TORSDOF 10
ENDMDL
