MODEL 1
REMARK VINA RESULT:      -6.0      0.000      0.000
REMARK  Name = ZINC13359254
REMARK  12 active torsions:
REMARK  status: ('A' for Active; 'I' for Inactive)
REMARK    1  A    between atoms: C1_1  and  C2_2
REMARK    2  A    between atoms: C5_5  and  C14_16
REMARK    3  A    between atoms: C8_8  and  O2_14
REMARK    4  A    between atoms: C10_10  and  O1_12
REMARK    5  A    between atoms: O1_12  and  C12_13
REMARK    6  A    between atoms: O2_14  and  C13_15
REMARK    7  A    between atoms: C17_19  and  C26_31
REMARK    8  A    between atoms: C18_21  and  C25_30
REMARK    9  A    between atoms: C20_23  and  O4_28
REMARK   10  A    between atoms: C22_25  and  O3_26
REMARK   11  A    between atoms: O3_26  and  C23_27
REMARK   12  A    between atoms: O4_28  and  C24_29
REMARK                            x       y       z     vdW  Elec       q    Type
REMARK                         _______ _______ _______ _____ _____    ______ ____
ROOT
ATOM      6  C   UNL     1      44.911  19.524  20.569  0.00  0.00    -0.125 A 
ATOM      7  C   UNL     1      43.827  20.197  19.964  0.00  0.00    +0.069 A 
ATOM      8  C   UNL     1      42.698  19.512  19.487  0.00  0.00    -0.041 A 
ATOM      9  C   UNL     1      41.691  20.230  18.913  0.00  0.00    +0.138 A 
ATOM     10  C   UNL     1      40.475  19.504  18.397  0.00  0.00    +0.125 C 
ATOM     11  N   UNL     1      41.755  21.549  18.791  0.00  0.00    -0.506 NA
ATOM     12  C   UNL     1      42.778  22.252  19.220  0.00  0.00    +0.209 A 
ATOM     13  C   UNL     1      42.785  23.750  19.056  0.00  0.00    +0.148 C 
ATOM     14  C   UNL     1      43.866  21.608  19.825  0.00  0.00    -0.166 A 
ATOM     15  C   UNL     1      44.988  22.322  20.294  0.00  0.00    +0.211 A 
ATOM     18  C   UNL     1      46.033  21.646  20.881  0.00  0.00    -0.168 A 
ATOM     19  C   UNL     1      46.003  20.259  21.022  0.00  0.00    +0.205 A 
ENDROOT
BRANCH   6   5
ATOM      1  C   UNL     1      47.220  17.553  16.403  0.00  0.00    +0.090 C 
ATOM      2  C   UNL     1      46.585  16.953  17.630  0.00  0.00    -0.027 A 
ATOM      3  C   UNL     1      46.047  17.773  18.577  0.00  0.00    -0.029 A 
ATOM      4  C   UNL     1      45.450  17.224  19.720  0.00  0.00    +0.043 A 
ATOM      5  C   UNL     1      44.886  18.054  20.721  0.00  0.00    -0.065 A 
ATOM     22  C   UNL     1      44.308  17.478  21.840  0.00  0.00    +0.083 A 
ATOM     23  C   UNL     1      44.280  16.098  21.994  0.00  0.00    -0.107 A 
ATOM     24  C   UNL     1      44.825  15.268  21.039  0.00  0.00    +0.170 A 
ATOM     27  C   UNL     1      45.421  15.820  19.887  0.00  0.00    -0.099 A 
ATOM     28  C   UNL     1      45.985  14.994  18.894  0.00  0.00    +0.170 A 
ATOM     31  C   UNL     1      46.559  15.570  17.781  0.00  0.00    -0.109 A 
BRANCH  24  25
ATOM     25  O   UNL     1      44.787  13.921  21.207  0.00  0.00    -0.291 OA
ATOM     26  C   UNL     1      45.111  13.420  22.505  0.00  0.00    +0.237 C 
ENDBRANCH  24  25
BRANCH  28  29
ATOM     29  O   UNL     1      45.963  13.644  19.032  0.00  0.00    -0.291 OA
ATOM     30  C   UNL     1      45.599  12.880  17.880  0.00  0.00    +0.237 C 
ENDBRANCH  28  29
ENDBRANCH   6   5
BRANCH  15  16
ATOM     16  O   UNL     1      45.037  23.672  20.166  0.00  0.00    -0.294 OA
ATOM     17  C   UNL     1      45.953  24.372  21.011  0.00  0.00    +0.241 C 
ENDBRANCH  15  16
BRANCH  19  20
ATOM     20  O   UNL     1      47.049  19.620  21.605  0.00  0.00    -0.298 OA
ATOM     21  C   UNL     1      48.319  19.729  20.958  0.00  0.00    +0.240 C 
ENDBRANCH  19  20
TORSDOF 5
ENDMDL
MODEL 2
REMARK VINA RESULT:      -5.8      3.365      7.266
REMARK  Name = ZINC13359254
REMARK  12 active torsions:
REMARK  status: ('A' for Active; 'I' for Inactive)
REMARK    1  A    between atoms: C1_1  and  C2_2
REMARK    2  A    between atoms: C5_5  and  C14_16
REMARK    3  A    between atoms: C8_8  and  O2_14
REMARK    4  A    between atoms: C10_10  and  O1_12
REMARK    5  A    between atoms: O1_12  and  C12_13
REMARK    6  A    between atoms: O2_14  and  C13_15
REMARK    7  A    between atoms: C17_19  and  C26_31
REMARK    8  A    between atoms: C18_21  and  C25_30
REMARK    9  A    between atoms: C20_23  and  O4_28
REMARK   10  A    between atoms: C22_25  and  O3_26
REMARK   11  A    between atoms: O3_26  and  C23_27
REMARK   12  A    between atoms: O4_28  and  C24_29
REMARK                            x       y       z     vdW  Elec       q    Type
REMARK                         _______ _______ _______ _____ _____    ______ ____
ROOT
ATOM      6  C   UNL     1      48.138  18.472  18.565  0.00  0.00    -0.125 A 
ATOM      7  C   UNL     1      49.321  18.617  19.322  0.00  0.00    +0.069 A 
ATOM      8  C   UNL     1      49.401  19.491  20.418  0.00  0.00    -0.041 A 
ATOM      9  C   UNL     1      50.578  19.578  21.101  0.00  0.00    +0.138 A 
ATOM     10  C   UNL     1      50.675  20.514  22.279  0.00  0.00    +0.125 C 
ATOM     11  N   UNL     1      51.642  18.866  20.753  0.00  0.00    -0.506 NA
ATOM     12  C   UNL     1      51.634  18.027  19.744  0.00  0.00    +0.209 A 
ATOM     13  C   UNL     1      52.877  17.243  19.405  0.00  0.00    +0.148 C 
ATOM     14  C   UNL     1      50.473  17.864  18.977  0.00  0.00    -0.166 A 
ATOM     15  C   UNL     1      50.421  16.979  17.880  0.00  0.00    +0.211 A 
ATOM     18  C   UNL     1      49.258  16.853  17.155  0.00  0.00    -0.168 A 
ATOM     19  C   UNL     1      48.121  17.589  17.488  0.00  0.00    +0.205 A 
ENDROOT
BRANCH   6   5
ATOM      1  C   UNL     1      45.147  15.388  21.413  0.00  0.00    +0.090 C 
ATOM      2  C   UNL     1      45.019  16.805  20.920  0.00  0.00    -0.027 A 
ATOM      3  C   UNL     1      46.016  17.345  20.164  0.00  0.00    -0.029 A 
ATOM      4  C   UNL     1      45.905  18.662  19.695  0.00  0.00    +0.043 A 
ATOM      5  C   UNL     1      46.930  19.249  18.911  0.00  0.00    -0.065 A 
ATOM     22  C   UNL     1      46.788  20.553  18.469  0.00  0.00    +0.083 A 
ATOM     23  C   UNL     1      45.658  21.293  18.790  0.00  0.00    -0.107 A 
ATOM     24  C   UNL     1      44.649  20.750  19.554  0.00  0.00    +0.170 A 
ATOM     27  C   UNL     1      44.759  19.424  20.021  0.00  0.00    -0.099 A 
ATOM     28  C   UNL     1      43.742  18.842  20.804  0.00  0.00    +0.170 A 
ATOM     31  C   UNL     1      43.885  17.544  21.242  0.00  0.00    -0.109 A 
BRANCH  24  25
ATOM     25  O   UNL     1      43.550  21.488  19.857  0.00  0.00    -0.291 OA
ATOM     26  C   UNL     1      43.700  22.909  19.842  0.00  0.00    +0.237 C 
ENDBRANCH  24  25
BRANCH  28  29
ATOM     29  O   UNL     1      42.631  19.554  21.123  0.00  0.00    -0.291 OA
ATOM     30  C   UNL     1      41.384  18.855  21.105  0.00  0.00    +0.237 C 
ENDBRANCH  28  29
ENDBRANCH   6   5
BRANCH  15  16
ATOM     16  O   UNL     1      51.517  16.255  17.539  0.00  0.00    -0.294 OA
ATOM     17  C   UNL     1      51.297  15.057  16.791  0.00  0.00    +0.241 C 
ENDBRANCH  15  16
BRANCH  19  20
ATOM     20  O   UNL     1      46.988  17.444  16.755  0.00  0.00    -0.298 OA
ATOM     21  C   UNL     1      46.527  16.110  16.532  0.00  0.00    +0.240 C 
ENDBRANCH  19  20
TORSDOF 5
ENDMDL
MODEL 3
REMARK VINA RESULT:      -5.6      2.740      5.206
REMARK  Name = ZINC13359254
REMARK  12 active torsions:
REMARK  status: ('A' for Active; 'I' for Inactive)
REMARK    1  A    between atoms: C1_1  and  C2_2
REMARK    2  A    between atoms: C5_5  and  C14_16
REMARK    3  A    between atoms: C8_8  and  O2_14
REMARK    4  A    between atoms: C10_10  and  O1_12
REMARK    5  A    between atoms: O1_12  and  C12_13
REMARK    6  A    between atoms: O2_14  and  C13_15
REMARK    7  A    between atoms: C17_19  and  C26_31
REMARK    8  A    between atoms: C18_21  and  C25_30
REMARK    9  A    between atoms: C20_23  and  O4_28
REMARK   10  A    between atoms: C22_25  and  O3_26
REMARK   11  A    between atoms: O3_26  and  C23_27
REMARK   12  A    between atoms: O4_28  and  C24_29
REMARK                            x       y       z     vdW  Elec       q    Type
REMARK                         _______ _______ _______ _____ _____    ______ ____
ROOT
ATOM      6  C   UNL     1      45.366  20.080  19.957  0.00  0.00    -0.125 A 
ATOM      7  C   UNL     1      44.663  19.051  20.621  0.00  0.00    +0.069 A 
ATOM      8  C   UNL     1      45.321  17.970  21.229  0.00  0.00    -0.041 A 
ATOM      9  C   UNL     1      44.574  17.015  21.850  0.00  0.00    +0.138 A 
ATOM     10  C   UNL     1      45.272  15.849  22.505  0.00  0.00    +0.125 C 
ATOM     11  N   UNL     1      43.250  17.079  21.890  0.00  0.00    -0.506 NA
ATOM     12  C   UNL     1      42.571  18.063  21.347  0.00  0.00    +0.209 A 
ATOM     13  C   UNL     1      41.066  18.078  21.433  0.00  0.00    +0.148 C 
ATOM     14  C   UNL     1      43.246  19.096  20.683  0.00  0.00    -0.166 A 
ATOM     15  C   UNL     1      42.558  20.170  20.081  0.00  0.00    +0.211 A 
ATOM     18  C   UNL     1      43.263  21.162  19.439  0.00  0.00    -0.168 A 
ATOM     19  C   UNL     1      44.656  21.125  19.373  0.00  0.00    +0.205 A 
ENDROOT
BRANCH   6   5
ATOM      1  C   UNL     1      46.605  16.538  16.422  0.00  0.00    +0.090 C 
ATOM      2  C   UNL     1      47.405  17.458  17.307  0.00  0.00    -0.027 A 
ATOM      3  C   UNL     1      46.757  18.301  18.159  0.00  0.00    -0.029 A 
ATOM      4  C   UNL     1      47.492  19.157  18.991  0.00  0.00    +0.043 A 
ATOM      5  C   UNL     1      46.842  20.047  19.883  0.00  0.00    -0.065 A 
ATOM     22  C   UNL     1      47.599  20.882  20.687  0.00  0.00    +0.083 A 
ATOM     23  C   UNL     1      48.986  20.860  20.625  0.00  0.00    -0.107 A 
ATOM     24  C   UNL     1      49.644  20.010  19.764  0.00  0.00    +0.170 A 
ATOM     27  C   UNL     1      48.905  19.145  18.931  0.00  0.00    -0.099 A 
ATOM     28  C   UNL     1      49.551  18.264  18.042  0.00  0.00    +0.170 A 
ATOM     31  C   UNL     1      48.795  17.434  17.243  0.00  0.00    -0.109 A 
BRANCH  24  25
ATOM     25  O   UNL     1      51.001  20.003  19.718  0.00  0.00    -0.291 OA
ATOM     26  C   UNL     1      51.648  21.252  19.464  0.00  0.00    +0.237 C 
ENDBRANCH  24  25
BRANCH  28  29
ATOM     29  O   UNL     1      50.906  18.233  17.972  0.00  0.00    -0.291 OA
ATOM     30  C   UNL     1      51.492  18.334  16.672  0.00  0.00    +0.237 C 
ENDBRANCH  28  29
ENDBRANCH   6   5
BRANCH  15  16
ATOM     16  O   UNL     1      41.203  20.223  20.133  0.00  0.00    -0.294 OA
ATOM     17  C   UNL     1      40.540  20.929  19.082  0.00  0.00    +0.241 C 
ENDBRANCH  15  16
BRANCH  19  20
ATOM     20  O   UNL     1      45.325  22.118  18.733  0.00  0.00    -0.298 OA
ATOM     21  C   UNL     1      45.001  23.460  19.102  0.00  0.00    +0.240 C 
ENDBRANCH  19  20
TORSDOF 5
ENDMDL
MODEL 4
REMARK VINA RESULT:      -5.3      2.422      5.199
REMARK  Name = ZINC13359254
REMARK  12 active torsions:
REMARK  status: ('A' for Active; 'I' for Inactive)
REMARK    1  A    between atoms: C1_1  and  C2_2
REMARK    2  A    between atoms: C5_5  and  C14_16
REMARK    3  A    between atoms: C8_8  and  O2_14
REMARK    4  A    between atoms: C10_10  and  O1_12
REMARK    5  A    between atoms: O1_12  and  C12_13
REMARK    6  A    between atoms: O2_14  and  C13_15
REMARK    7  A    between atoms: C17_19  and  C26_31
REMARK    8  A    between atoms: C18_21  and  C25_30
REMARK    9  A    between atoms: C20_23  and  O4_28
REMARK   10  A    between atoms: C22_25  and  O3_26
REMARK   11  A    between atoms: O3_26  and  C23_27
REMARK   12  A    between atoms: O4_28  and  C24_29
REMARK                            x       y       z     vdW  Elec       q    Type
REMARK                         _______ _______ _______ _____ _____    ______ ____
ROOT
ATOM      6  C   UNL     1      45.401  19.972  20.629  0.00  0.00    -0.125 A 
ATOM      7  C   UNL     1      44.565  20.975  20.090  0.00  0.00    +0.069 A 
ATOM      8  C   UNL     1      45.051  22.251  19.760  0.00  0.00    -0.041 A 
ATOM      9  C   UNL     1      44.184  23.167  19.244  0.00  0.00    +0.138 A 
ATOM     10  C   UNL     1      44.695  24.540  18.887  0.00  0.00    +0.125 C 
ATOM     11  N   UNL     1      42.901  22.887  19.054  0.00  0.00    -0.506 NA
ATOM     12  C   UNL     1      42.383  21.714  19.336  0.00  0.00    +0.209 A 
ATOM     13  C   UNL     1      40.918  21.458  19.091  0.00  0.00    +0.148 C 
ATOM     14  C   UNL     1      43.191  20.701  19.871  0.00  0.00    -0.166 A 
ATOM     15  C   UNL     1      42.675  19.429  20.195  0.00  0.00    +0.211 A 
ATOM     18  C   UNL     1      43.507  18.466  20.719  0.00  0.00    -0.168 A 
ATOM     19  C   UNL     1      44.859  18.727  20.937  0.00  0.00    +0.205 A 
ENDROOT
BRANCH   6   5
ATOM      1  C   UNL     1      48.011  17.425  16.986  0.00  0.00    +0.090 C 
ATOM      2  C   UNL     1      48.414  18.310  18.136  0.00  0.00    -0.027 A 
ATOM      3  C   UNL     1      47.451  18.846  18.939  0.00  0.00    -0.029 A 
ATOM      4  C   UNL     1      47.815  19.667  20.016  0.00  0.00    +0.043 A 
ATOM      5  C   UNL     1      46.834  20.241  20.863  0.00  0.00    -0.065 A 
ATOM     22  C   UNL     1      47.230  21.051  21.914  0.00  0.00    +0.083 A 
ATOM     23  C   UNL     1      48.575  21.311  22.143  0.00  0.00    -0.107 A 
ATOM     24  C   UNL     1      49.549  20.771  21.332  0.00  0.00    +0.170 A 
ATOM     27  C   UNL     1      49.183  19.942  20.253  0.00  0.00    -0.099 A 
ATOM     28  C   UNL     1      50.158  19.375  19.408  0.00  0.00    +0.170 A 
ATOM     31  C   UNL     1      49.761  18.569  18.363  0.00  0.00    -0.109 A 
BRANCH  24  25
ATOM     25  O   UNL     1      50.858  21.037  21.572  0.00  0.00    -0.291 OA
ATOM     26  C   UNL     1      51.149  22.079  22.505  0.00  0.00    +0.237 C 
ENDBRANCH  24  25
BRANCH  28  29
ATOM     29  O   UNL     1      51.475  19.621  19.622  0.00  0.00    -0.291 OA
ATOM     30  C   UNL     1      52.237  20.090  18.506  0.00  0.00    +0.237 C 
ENDBRANCH  28  29
ENDBRANCH   6   5
BRANCH  15  16
ATOM     16  O   UNL     1      41.361  19.156  19.991  0.00  0.00    -0.294 OA
ATOM     17  C   UNL     1      40.597  18.757  21.131  0.00  0.00    +0.241 C 
ENDBRANCH  15  16
BRANCH  19  20
ATOM     20  O   UNL     1      45.656  17.757  21.455  0.00  0.00    -0.298 OA
ATOM     21  C   UNL     1      45.559  16.457  20.870  0.00  0.00    +0.240 C 
ENDBRANCH  19  20
TORSDOF 5
ENDMDL
MODEL 5
REMARK VINA RESULT:      -5.0      3.867      8.633
REMARK  Name = ZINC13359254
REMARK  12 active torsions:
REMARK  status: ('A' for Active; 'I' for Inactive)
REMARK    1  A    between atoms: C1_1  and  C2_2
REMARK    2  A    between atoms: C5_5  and  C14_16
REMARK    3  A    between atoms: C8_8  and  O2_14
REMARK    4  A    between atoms: C10_10  and  O1_12
REMARK    5  A    between atoms: O1_12  and  C12_13
REMARK    6  A    between atoms: O2_14  and  C13_15
REMARK    7  A    between atoms: C17_19  and  C26_31
REMARK    8  A    between atoms: C18_21  and  C25_30
REMARK    9  A    between atoms: C20_23  and  O4_28
REMARK   10  A    between atoms: C22_25  and  O3_26
REMARK   11  A    between atoms: O3_26  and  C23_27
REMARK   12  A    between atoms: O4_28  and  C24_29
REMARK                            x       y       z     vdW  Elec       q    Type
REMARK                         _______ _______ _______ _____ _____    ______ ____
ROOT
ATOM      6  C   UNL     1      48.065  14.540  17.821  0.00  0.00    -0.125 A 
ATOM      7  C   UNL     1      49.412  14.558  18.244  0.00  0.00    +0.069 A 
ATOM      8  C   UNL     1      49.946  15.626  18.984  0.00  0.00    -0.041 A 
ATOM      9  C   UNL     1      51.255  15.573  19.357  0.00  0.00    +0.138 A 
ATOM     10  C   UNL     1      51.839  16.715  20.151  0.00  0.00    +0.125 C 
ATOM     11  N   UNL     1      52.033  14.548  19.036  0.00  0.00    -0.506 NA
ATOM     12  C   UNL     1      51.598  13.515  18.352  0.00  0.00    +0.209 A 
ATOM     13  C   UNL     1      52.533  12.379  18.025  0.00  0.00    +0.148 C 
ATOM     14  C   UNL     1      50.265  13.472  17.920  0.00  0.00    -0.166 A 
ATOM     15  C   UNL     1      49.757  12.387  17.178  0.00  0.00    +0.211 A 
ATOM     18  C   UNL     1      48.441  12.389  16.775  0.00  0.00    -0.168 A 
ATOM     19  C   UNL     1      47.595  13.452  17.089  0.00  0.00    +0.205 A 
ENDROOT
BRANCH   6   5
ATOM      1  C   UNL     1      45.638  13.274  22.189  0.00  0.00    +0.090 C 
ATOM      2  C   UNL     1      45.595  14.472  21.277  0.00  0.00    -0.027 A 
ATOM      3  C   UNL     1      46.385  14.500  20.167  0.00  0.00    -0.029 A 
ATOM      4  C   UNL     1      46.348  15.608  19.309  0.00  0.00    +0.043 A 
ATOM      5  C   UNL     1      47.164  15.663  18.150  0.00  0.00    -0.065 A 
ATOM     22  C   UNL     1      47.105  16.776  17.327  0.00  0.00    +0.083 A 
ATOM     23  C   UNL     1      46.262  17.837  17.628  0.00  0.00    -0.107 A 
ATOM     24  C   UNL     1      45.463  17.812  18.750  0.00  0.00    +0.170 A 
ATOM     27  C   UNL     1      45.496  16.696  19.610  0.00  0.00    -0.099 A 
ATOM     28  C   UNL     1      44.689  16.642  20.764  0.00  0.00    +0.170 A 
ATOM     31  C   UNL     1      44.749  15.534  21.580  0.00  0.00    -0.109 A 
BRANCH  24  25
ATOM     25  O   UNL     1      44.645  18.860  19.027  0.00  0.00    -0.291 OA
ATOM     26  C   UNL     1      45.155  20.168  18.762  0.00  0.00    +0.237 C 
ENDBRANCH  24  25
BRANCH  28  29
ATOM     29  O   UNL     1      43.861  17.673  21.068  0.00  0.00    -0.291 OA
ATOM     30  C   UNL     1      42.927  17.464  22.130  0.00  0.00    +0.237 C 
ENDBRANCH  28  29
ENDBRANCH   6   5
BRANCH  15  16
ATOM     16  O   UNL     1      50.563  11.343  16.860  0.00  0.00    -0.294 OA
ATOM     17  C   UNL     1      50.172  10.533  15.749  0.00  0.00    +0.241 C 
ENDBRANCH  15  16
BRANCH  19  20
ATOM     20  O   UNL     1      46.301  13.427  16.678  0.00  0.00    -0.298 OA
ATOM     21  C   UNL     1      45.457  12.429  17.255  0.00  0.00    +0.240 C 
ENDBRANCH  19  20
TORSDOF 5
ENDMDL
MODEL 6
REMARK VINA RESULT:      -4.9      3.361      5.947
REMARK  Name = ZINC13359254
REMARK  12 active torsions:
REMARK  status: ('A' for Active; 'I' for Inactive)
REMARK    1  A    between atoms: C1_1  and  C2_2
REMARK    2  A    between atoms: C5_5  and  C14_16
REMARK    3  A    between atoms: C8_8  and  O2_14
REMARK    4  A    between atoms: C10_10  and  O1_12
REMARK    5  A    between atoms: O1_12  and  C12_13
REMARK    6  A    between atoms: O2_14  and  C13_15
REMARK    7  A    between atoms: C17_19  and  C26_31
REMARK    8  A    between atoms: C18_21  and  C25_30
REMARK    9  A    between atoms: C20_23  and  O4_28
REMARK   10  A    between atoms: C22_25  and  O3_26
REMARK   11  A    between atoms: O3_26  and  C23_27
REMARK   12  A    between atoms: O4_28  and  C24_29
REMARK                            x       y       z     vdW  Elec       q    Type
REMARK                         _______ _______ _______ _____ _____    ______ ____
ROOT
ATOM      6  C   UNL     1      46.280  15.587  18.553  0.00  0.00    -0.125 A 
ATOM      7  C   UNL     1      45.661  15.426  19.812  0.00  0.00    +0.069 A 
ATOM      8  C   UNL     1      45.727  14.217  20.524  0.00  0.00    -0.041 A 
ATOM      9  C   UNL     1      45.104  14.136  21.734  0.00  0.00    +0.138 A 
ATOM     10  C   UNL     1      45.167  12.842  22.505  0.00  0.00    +0.125 C 
ATOM     11  N   UNL     1      44.439  15.162  22.248  0.00  0.00    -0.506 NA
ATOM     12  C   UNL     1      44.343  16.321  21.639  0.00  0.00    +0.209 A 
ATOM     13  C   UNL     1      43.577  17.449  22.281  0.00  0.00    +0.148 C 
ATOM     14  C   UNL     1      44.948  16.508  20.389  0.00  0.00    -0.166 A 
ATOM     15  C   UNL     1      44.865  17.733  19.696  0.00  0.00    +0.211 A 
ATOM     18  C   UNL     1      45.475  17.869  18.470  0.00  0.00    -0.168 A 
ATOM     19  C   UNL     1      46.179  16.811  17.896  0.00  0.00    +0.205 A 
ENDROOT
BRANCH   6   5
ATOM      1  C   UNL     1      51.133  15.920  20.258  0.00  0.00    +0.090 C 
ATOM      2  C   UNL     1      50.411  14.975  19.333  0.00  0.00    -0.027 A 
ATOM      3  C   UNL     1      49.086  15.167  19.079  0.00  0.00    -0.029 A 
ATOM      4  C   UNL     1      48.406  14.296  18.216  0.00  0.00    +0.043 A 
ATOM      5  C   UNL     1      47.027  14.470  17.939  0.00  0.00    -0.065 A 
ATOM     22  C   UNL     1      46.386  13.589  17.084  0.00  0.00    +0.083 A 
ATOM     23  C   UNL     1      47.078  12.535  16.502  0.00  0.00    -0.107 A 
ATOM     24  C   UNL     1      48.417  12.339  16.758  0.00  0.00    +0.170 A 
ATOM     27  C   UNL     1      49.102  13.217  17.622  0.00  0.00    -0.099 A 
ATOM     28  C   UNL     1      50.471  13.042  17.902  0.00  0.00    +0.170 A 
ATOM     31  C   UNL     1      51.107  13.920  18.752  0.00  0.00    -0.109 A 
BRANCH  24  25
ATOM     25  O   UNL     1      49.077  11.303  16.180  0.00  0.00    -0.291 OA
ATOM     26  C   UNL     1      48.287  10.349  15.467  0.00  0.00    +0.237 C 
ENDBRANCH  24  25
BRANCH  28  29
ATOM     29  O   UNL     1      51.159  12.016  17.338  0.00  0.00    -0.291 OA
ATOM     30  C   UNL     1      52.551  11.919  17.650  0.00  0.00    +0.237 C 
ENDBRANCH  28  29
ENDBRANCH   6   5
BRANCH  15  16
ATOM     16  O   UNL     1      44.184  18.775  20.237  0.00  0.00    -0.294 OA
ATOM     17  C   UNL     1      44.437  20.071  19.688  0.00  0.00    +0.241 C 
ENDBRANCH  15  16
BRANCH  19  20
ATOM     20  O   UNL     1      46.770  16.975  16.685  0.00  0.00    -0.298 OA
ATOM     21  C   UNL     1      48.025  17.659  16.664  0.00  0.00    +0.240 C 
ENDBRANCH  19  20
TORSDOF 5
ENDMDL
MODEL 7
REMARK VINA RESULT:      -4.9      4.932      9.200
REMARK  Name = ZINC13359254
REMARK  12 active torsions:
REMARK  status: ('A' for Active; 'I' for Inactive)
REMARK    1  A    between atoms: C1_1  and  C2_2
REMARK    2  A    between atoms: C5_5  and  C14_16
REMARK    3  A    between atoms: C8_8  and  O2_14
REMARK    4  A    between atoms: C10_10  and  O1_12
REMARK    5  A    between atoms: O1_12  and  C12_13
REMARK    6  A    between atoms: O2_14  and  C13_15
REMARK    7  A    between atoms: C17_19  and  C26_31
REMARK    8  A    between atoms: C18_21  and  C25_30
REMARK    9  A    between atoms: C20_23  and  O4_28
REMARK   10  A    between atoms: C22_25  and  O3_26
REMARK   11  A    between atoms: O3_26  and  C23_27
REMARK   12  A    between atoms: O4_28  and  C24_29
REMARK                            x       y       z     vdW  Elec       q    Type
REMARK                         _______ _______ _______ _____ _____    ______ ____
ROOT
ATOM      6  C   UNL     1      49.483  15.858  18.231  0.00  0.00    -0.125 A 
ATOM      7  C   UNL     1      50.456  14.836  18.192  0.00  0.00    +0.069 A 
ATOM      8  C   UNL     1      51.618  14.883  18.980  0.00  0.00    -0.041 A 
ATOM      9  C   UNL     1      52.513  13.860  18.888  0.00  0.00    +0.138 A 
ATOM     10  C   UNL     1      53.764  13.902  19.729  0.00  0.00    +0.125 C 
ATOM     11  N   UNL     1      52.318  12.832  18.073  0.00  0.00    -0.506 NA
ATOM     12  C   UNL     1      51.253  12.721  17.313  0.00  0.00    +0.209 A 
ATOM     13  C   UNL     1      51.089  11.523  16.414  0.00  0.00    +0.148 C 
ATOM     14  C   UNL     1      50.271  13.721  17.334  0.00  0.00    -0.166 A 
ATOM     15  C   UNL     1      49.115  13.648  16.531  0.00  0.00    +0.211 A 
ATOM     18  C   UNL     1      48.178  14.655  16.585  0.00  0.00    -0.168 A 
ATOM     19  C   UNL     1      48.352  15.754  17.425  0.00  0.00    +0.205 A 
ENDROOT
BRANCH   6   5
ATOM      1  C   UNL     1      52.092  19.396  15.539  0.00  0.00    +0.090 C 
ATOM      2  C   UNL     1      51.532  19.347  16.937  0.00  0.00    -0.027 A 
ATOM      3  C   UNL     1      50.874  18.230  17.357  0.00  0.00    -0.029 A 
ATOM      4  C   UNL     1      50.354  18.173  18.658  0.00  0.00    +0.043 A 
ATOM      5  C   UNL     1      49.661  17.025  19.119  0.00  0.00    -0.065 A 
ATOM     22  C   UNL     1      49.157  17.005  20.409  0.00  0.00    +0.083 A 
ATOM     23  C   UNL     1      49.318  18.097  21.251  0.00  0.00    -0.107 A 
ATOM     24  C   UNL     1      49.982  19.227  20.828  0.00  0.00    +0.170 A 
ATOM     27  C   UNL     1      50.509  19.282  19.522  0.00  0.00    -0.099 A 
ATOM     28  C   UNL     1      51.194  20.425  19.062  0.00  0.00    +0.170 A 
ATOM     31  C   UNL     1      51.695  20.442  17.779  0.00  0.00    -0.109 A 
BRANCH  24  25
ATOM     25  O   UNL     1      50.130  20.284  21.666  0.00  0.00    -0.291 OA
ATOM     26  C   UNL     1      48.957  20.746  22.340  0.00  0.00    +0.237 C 
ENDBRANCH  24  25
BRANCH  28  29
ATOM     29  O   UNL     1      51.358  21.498  19.876  0.00  0.00    -0.291 OA
ATOM     30  C   UNL     1      52.702  21.886  20.175  0.00  0.00    +0.237 C 
ENDBRANCH  28  29
ENDBRANCH   6   5
BRANCH  15  16
ATOM     16  O   UNL     1      48.927  12.587  15.705  0.00  0.00    -0.294 OA
ATOM     17  C   UNL     1      48.110  12.799  14.552  0.00  0.00    +0.241 C 
ENDBRANCH  15  16
BRANCH  19  20
ATOM     20  O   UNL     1      47.411  16.732  17.457  0.00  0.00    -0.298 OA
ATOM     21  C   UNL     1      46.159  16.406  18.064  0.00  0.00    +0.240 C 
ENDBRANCH  19  20
TORSDOF 5
ENDMDL
MODEL 8
REMARK VINA RESULT:      -4.8      4.746      9.251
REMARK  Name = ZINC13359254
REMARK  12 active torsions:
REMARK  status: ('A' for Active; 'I' for Inactive)
REMARK    1  A    between atoms: C1_1  and  C2_2
REMARK    2  A    between atoms: C5_5  and  C14_16
REMARK    3  A    between atoms: C8_8  and  O2_14
REMARK    4  A    between atoms: C10_10  and  O1_12
REMARK    5  A    between atoms: O1_12  and  C12_13
REMARK    6  A    between atoms: O2_14  and  C13_15
REMARK    7  A    between atoms: C17_19  and  C26_31
REMARK    8  A    between atoms: C18_21  and  C25_30
REMARK    9  A    between atoms: C20_23  and  O4_28
REMARK   10  A    between atoms: C22_25  and  O3_26
REMARK   11  A    between atoms: O3_26  and  C23_27
REMARK   12  A    between atoms: O4_28  and  C24_29
REMARK                            x       y       z     vdW  Elec       q    Type
REMARK                         _______ _______ _______ _____ _____    ______ ____
ROOT
ATOM      6  C   UNL     1      49.144  15.987  17.690  0.00  0.00    -0.125 A 
ATOM      7  C   UNL     1      49.760  14.809  18.167  0.00  0.00    +0.069 A 
ATOM      8  C   UNL     1      51.127  14.760  18.485  0.00  0.00    -0.041 A 
ATOM      9  C   UNL     1      51.651  13.587  18.940  0.00  0.00    +0.138 A 
ATOM     10  C   UNL     1      53.118  13.524  19.283  0.00  0.00    +0.125 C 
ATOM     11  N   UNL     1      50.907  12.498  19.085  0.00  0.00    -0.506 NA
ATOM     12  C   UNL     1      49.623  12.476  18.812  0.00  0.00    +0.209 A 
ATOM     13  C   UNL     1      48.834  11.206  19.003  0.00  0.00    +0.148 C 
ATOM     14  C   UNL     1      48.988  13.631  18.337  0.00  0.00    -0.166 A 
ATOM     15  C   UNL     1      47.613  13.651  18.025  0.00  0.00    +0.211 A 
ATOM     18  C   UNL     1      47.032  14.810  17.561  0.00  0.00    -0.168 A 
ATOM     19  C   UNL     1      47.784  15.972  17.392  0.00  0.00    +0.205 A 
ENDROOT
BRANCH   6   5
ATOM      1  C   UNL     1      48.693  18.702  22.048  0.00  0.00    +0.090 C 
ATOM      2  C   UNL     1      49.419  18.924  20.747  0.00  0.00    -0.027 A 
ATOM      3  C   UNL     1      49.335  17.985  19.763  0.00  0.00    -0.029 A 
ATOM      4  C   UNL     1      50.002  18.185  18.546  0.00  0.00    +0.043 A 
ATOM      5  C   UNL     1      49.934  17.222  17.508  0.00  0.00    -0.065 A 
ATOM     22  C   UNL     1      50.610  17.449  16.321  0.00  0.00    +0.083 A 
ATOM     23  C   UNL     1      51.356  18.606  16.139  0.00  0.00    -0.107 A 
ATOM     24  C   UNL     1      51.444  19.556  17.133  0.00  0.00    +0.170 A 
ATOM     27  C   UNL     1      50.769  19.358  18.354  0.00  0.00    -0.099 A 
ATOM     28  C   UNL     1      50.840  20.313  19.388  0.00  0.00    +0.170 A 
ATOM     31  C   UNL     1      50.166  20.084  20.568  0.00  0.00    -0.109 A 
BRANCH  24  25
ATOM     25  O   UNL     1      52.178  20.681  16.937  0.00  0.00    -0.291 OA
ATOM     26  C   UNL     1      51.774  21.542  15.871  0.00  0.00    +0.237 C 
ENDBRANCH  24  25
BRANCH  28  29
ATOM     29  O   UNL     1      51.565  21.448  19.223  0.00  0.00    -0.291 OA
ATOM     30  C   UNL     1      52.553  21.737  20.215  0.00  0.00    +0.237 C 
ENDBRANCH  28  29
ENDBRANCH   6   5
BRANCH  15  16
ATOM     16  O   UNL     1      46.864  12.530  18.182  0.00  0.00    -0.294 OA
ATOM     17  C   UNL     1      45.732  12.380  17.322  0.00  0.00    +0.241 C 
ENDBRANCH  15  16
BRANCH  19  20
ATOM     20  O   UNL     1      47.184  17.100  16.932  0.00  0.00    -0.298 OA
ATOM     21  C   UNL     1      46.156  17.665  17.747  0.00  0.00    +0.240 C 
ENDBRANCH  19  20
TORSDOF 5
ENDMDL
MODEL 9
REMARK VINA RESULT:      -4.7      3.990      7.677
REMARK  Name = ZINC13359254
REMARK  12 active torsions:
REMARK  status: ('A' for Active; 'I' for Inactive)
REMARK    1  A    between atoms: C1_1  and  C2_2
REMARK    2  A    between atoms: C5_5  and  C14_16
REMARK    3  A    between atoms: C8_8  and  O2_14
REMARK    4  A    between atoms: C10_10  and  O1_12
REMARK    5  A    between atoms: O1_12  and  C12_13
REMARK    6  A    between atoms: O2_14  and  C13_15
REMARK    7  A    between atoms: C17_19  and  C26_31
REMARK    8  A    between atoms: C18_21  and  C25_30
REMARK    9  A    between atoms: C20_23  and  O4_28
REMARK   10  A    between atoms: C22_25  and  O3_26
REMARK   11  A    between atoms: O3_26  and  C23_27
REMARK   12  A    between atoms: O4_28  and  C24_29
REMARK                            x       y       z     vdW  Elec       q    Type
REMARK                         _______ _______ _______ _____ _____    ______ ____
ROOT
ATOM      6  C   UNL     1      49.580  18.238  20.775  0.00  0.00    -0.125 A 
ATOM      7  C   UNL     1      50.698  18.321  19.916  0.00  0.00    +0.069 A 
ATOM      8  C   UNL     1      50.846  19.362  18.986  0.00  0.00    -0.041 A 
ATOM      9  C   UNL     1      51.952  19.376  18.190  0.00  0.00    +0.138 A 
ATOM     10  C   UNL     1      52.121  20.489  17.187  0.00  0.00    +0.125 C 
ATOM     11  N   UNL     1      52.882  18.433  18.269  0.00  0.00    -0.506 NA
ATOM     12  C   UNL     1      52.809  17.435  19.119  0.00  0.00    +0.209 A 
ATOM     13  C   UNL     1      53.903  16.399  19.161  0.00  0.00    +0.148 C 
ATOM     14  C   UNL     1      51.710  17.329  19.983  0.00  0.00    -0.166 A 
ATOM     15  C   UNL     1      51.587  16.271  20.907  0.00  0.00    +0.211 A 
ATOM     18  C   UNL     1      50.489  16.209  21.735  0.00  0.00    -0.168 A 
ATOM     19  C   UNL     1      49.490  17.180  21.676  0.00  0.00    +0.205 A 
ENDROOT
BRANCH   6   5
ATOM      1  C   UNL     1      46.188  16.675  17.222  0.00  0.00    +0.090 C 
ATOM      2  C   UNL     1      46.278  17.877  18.126  0.00  0.00    -0.027 A 
ATOM      3  C   UNL     1      47.335  17.998  18.978  0.00  0.00    -0.029 A 
ATOM      4  C   UNL     1      47.431  19.115  19.820  0.00  0.00    +0.043 A 
ATOM      5  C   UNL     1      48.517  19.263  20.719  0.00  0.00    -0.065 A 
ATOM     22  C   UNL     1      48.577  20.376  21.539  0.00  0.00    +0.083 A 
ATOM     23  C   UNL     1      47.583  21.345  21.495  0.00  0.00    -0.107 A 
ATOM     24  C   UNL     1      46.514  21.224  20.635  0.00  0.00    +0.170 A 
ATOM     27  C   UNL     1      46.420  20.104  19.785  0.00  0.00    -0.099 A 
ATOM     28  C   UNL     1      45.338  19.955  18.895  0.00  0.00    +0.170 A 
ATOM     31  C   UNL     1      45.281  18.845  18.080  0.00  0.00    -0.109 A 
BRANCH  24  25
ATOM     25  O   UNL     1      45.552  22.182  20.606  0.00  0.00    -0.291 OA
ATOM     26  C   UNL     1      45.873  23.442  21.198  0.00  0.00    +0.237 C 
ENDBRANCH  24  25
BRANCH  28  29
ATOM     29  O   UNL     1      44.361  20.895  18.842  0.00  0.00    -0.291 OA
ATOM     30  C   UNL     1      43.017  20.445  19.029  0.00  0.00    +0.237 C 
ENDBRANCH  28  29
ENDBRANCH   6   5
BRANCH  15  16
ATOM     16  O   UNL     1      52.548  15.316  20.978  0.00  0.00    -0.294 OA
ATOM     17  C   UNL     1      52.878  14.823  22.279  0.00  0.00    +0.241 C 
ENDBRANCH  15  16
BRANCH  19  20
ATOM     20  O   UNL     1      48.418  17.093  22.505  0.00  0.00    -0.298 OA
ATOM     21  C   UNL     1      47.515  16.007  22.286  0.00  0.00    +0.240 C 
ENDBRANCH  19  20
TORSDOF 5
ENDMDL
