MODEL 1
REMARK VINA RESULT:      -6.7      0.000      0.000
REMARK  Name = ZINC95485929
REMARK  10 active torsions:
REMARK  status: ('A' for Active; 'I' for Inactive)
REMARK    1  A    between atoms: C1_1  and  C2_2
REMARK    2  A    between atoms: C2_2  and  C3_3
REMARK    3  A    between atoms: C3_3  and  C23_29
REMARK    4  A    between atoms: C4_4  and  C5_5
REMARK    5  A    between atoms: C5_5  and  C6_6
REMARK    6  A    between atoms: C10_10  and  O2_14
REMARK    7  A    between atoms: C11_11  and  O1_12
REMARK    8  A    between atoms: O1_12  and  C12_13
REMARK    9  A    between atoms: O2_14  and  C13_15
REMARK   10  A    between atoms: C20_24  and  O6_28
REMARK                            x       y       z     vdW  Elec       q    Type
REMARK                         _______ _______ _______ _____ _____    ______ ____
ROOT
ATOM      7  C   UNL     1      48.554  19.328  20.099  0.00  0.00    +0.039 A 
ATOM      8  C   UNL     1      47.162  19.300  20.206  0.00  0.00    -0.248 A 
ATOM      9  C   UNL     1      46.489  18.099  20.474  0.00  0.00    +0.199 A 
ATOM     10  O   UNL     1      45.146  18.065  20.598  0.00  0.00    -0.221 OA
ATOM     11  C   UNL     1      44.363  19.076  20.164  0.00  0.00    +0.195 A 
ATOM     12  C   UNL     1      43.004  18.867  19.999  0.00  0.00    +0.007 A 
ATOM     13  C   UNL     1      42.181  19.898  19.561  0.00  0.00    +0.130 A 
ATOM     14  C   UNL     1      42.728  21.163  19.283  0.00  0.00    -0.192 A 
ATOM     15  C   UNL     1      44.096  21.389  19.440  0.00  0.00    +0.260 A 
ATOM     18  C   UNL     1      41.597  21.997  18.855  0.00  0.00    -0.018 A 
ATOM     19  C   UNL     1      40.515  21.210  18.904  0.00  0.00    +0.223 A 
ATOM     20  O   UNL     1      40.858  19.976  19.317  0.00  0.00    -0.185 OA
ATOM     21  C   UNL     1      44.911  20.342  19.876  0.00  0.00    -0.268 A 
ATOM     22  C   UNL     1      47.226  16.929  20.618  0.00  0.00    -0.081 A 
ATOM     23  C   UNL     1      48.605  16.959  20.509  0.00  0.00    +0.182 A 
ATOM     26  C   UNL     1      46.365  20.533  20.039  0.00  0.00    +0.448 A 
ATOM     27  O   UNL     1      46.877  21.638  20.034  0.00  0.00    -0.425 OA
ATOM     28  C   UNL     1      49.271  18.157  20.244  0.00  0.00    +0.037 A 
ENDROOT
BRANCH  15  16
ATOM     16  O   UNL     1      44.627  22.607  19.172  0.00  0.00    -0.471 OA
ATOM     17  H   UNL     1      43.969  23.303  19.039  0.00  0.00    +0.406 HD
ENDBRANCH  15  16
BRANCH  23  24
ATOM     24  O   UNL     1      49.316  15.811  20.653  0.00  0.00    -0.292 OA
ATOM     25  C   UNL     1      49.053  14.764  19.716  0.00  0.00    +0.251 C 
ENDBRANCH  23  24
BRANCH  28  29
ATOM     29  O   UNL     1      50.627  18.173  20.136  0.00  0.00    -0.312 OA
ATOM     30  C   UNL     1      51.373  18.279  21.350  0.00  0.00    +0.221 C 
ENDBRANCH  28  29
BRANCH   7   6
ATOM      6  C   UNL     1      49.268  20.625  19.818  0.00  0.00    +0.134 C 
BRANCH   6   5
ATOM      3  C   UNL     1      50.978  21.043  18.127  0.00  0.00    -0.132 C 
ATOM      4  C   UNL     1      51.927  21.377  19.248  0.00  0.00    +0.073 C 
ATOM      5  C   UNL     1      49.766  20.626  18.396  0.00  0.00    -0.025 C 
BRANCH   3   2
ATOM      1  C   UNL     1      51.909  19.835  16.171  0.00  0.00    +0.018 C 
ATOM      2  C   UNL     1      51.424  21.189  16.694  0.00  0.00    +0.048 C 
ENDBRANCH   3   2
ENDBRANCH   6   5
ENDBRANCH   7   6
TORSDOF 6
ENDMDL
MODEL 2
REMARK VINA RESULT:      -6.5      2.473      3.486
REMARK  Name = ZINC95485929
REMARK  10 active torsions:
REMARK  status: ('A' for Active; 'I' for Inactive)
REMARK    1  A    between atoms: C1_1  and  C2_2
REMARK    2  A    between atoms: C2_2  and  C3_3
REMARK    3  A    between atoms: C3_3  and  C23_29
REMARK    4  A    between atoms: C4_4  and  C5_5
REMARK    5  A    between atoms: C5_5  and  C6_6
REMARK    6  A    between atoms: C10_10  and  O2_14
REMARK    7  A    between atoms: C11_11  and  O1_12
REMARK    8  A    between atoms: O1_12  and  C12_13
REMARK    9  A    between atoms: O2_14  and  C13_15
REMARK   10  A    between atoms: C20_24  and  O6_28
REMARK                            x       y       z     vdW  Elec       q    Type
REMARK                         _______ _______ _______ _____ _____    ______ ____
ROOT
ATOM      7  C   UNL     1      49.132  16.555  17.718  0.00  0.00    +0.039 A 
ATOM      8  C   UNL     1      47.981  17.220  18.145  0.00  0.00    -0.248 A 
ATOM      9  C   UNL     1      46.709  16.683  17.895  0.00  0.00    +0.199 A 
ATOM     10  O   UNL     1      45.592  17.308  18.320  0.00  0.00    -0.221 OA
ATOM     11  C   UNL     1      45.602  18.602  18.706  0.00  0.00    +0.195 A 
ATOM     12  C   UNL     1      44.406  19.294  18.808  0.00  0.00    +0.007 A 
ATOM     13  C   UNL     1      44.395  20.624  19.211  0.00  0.00    +0.130 A 
ATOM     14  C   UNL     1      45.603  21.275  19.520  0.00  0.00    -0.192 A 
ATOM     15  C   UNL     1      46.816  20.592  19.418  0.00  0.00    +0.260 A 
ATOM     18  C   UNL     1      45.228  22.642  19.906  0.00  0.00    -0.018 A 
ATOM     19  C   UNL     1      43.894  22.705  19.803  0.00  0.00    +0.223 A 
ATOM     20  O   UNL     1      43.404  21.520  19.394  0.00  0.00    -0.185 OA
ATOM     21  C   UNL     1      46.812  19.258  19.006  0.00  0.00    -0.268 A 
ATOM     22  C   UNL     1      46.608  15.482  17.202  0.00  0.00    -0.081 A 
ATOM     23  C   UNL     1      47.751  14.826  16.778  0.00  0.00    +0.182 A 
ATOM     26  C   UNL     1      48.073  18.505  18.868  0.00  0.00    +0.448 A 
ATOM     27  O   UNL     1      49.126  18.918  19.321  0.00  0.00    -0.425 OA
ATOM     28  C   UNL     1      49.014  15.363  17.031  0.00  0.00    +0.037 A 
ENDROOT
BRANCH  15  16
ATOM     16  O   UNL     1      47.983  21.217  19.714  0.00  0.00    -0.471 OA
ATOM     17  H   UNL     1      48.536  21.402  18.943  0.00  0.00    +0.406 HD
ENDBRANCH  15  16
BRANCH  23  24
ATOM     24  O   UNL     1      47.641  13.653  16.103  0.00  0.00    -0.292 OA
ATOM     25  C   UNL     1      46.739  12.681  16.635  0.00  0.00    +0.251 C 
ENDBRANCH  23  24
BRANCH  28  29
ATOM     29  O   UNL     1      50.130  14.711  16.607  0.00  0.00    -0.312 OA
ATOM     30  C   UNL     1      50.643  13.684  17.458  0.00  0.00    +0.221 C 
ENDBRANCH  28  29
BRANCH   7   6
ATOM      6  C   UNL     1      50.493  17.137  17.999  0.00  0.00    +0.134 C 
BRANCH   6   5
ATOM      3  C   UNL     1      51.845  18.891  16.972  0.00  0.00    -0.132 C 
ATOM      4  C   UNL     1      52.543  19.052  18.297  0.00  0.00    +0.073 C 
ATOM      5  C   UNL     1      50.943  17.954  16.815  0.00  0.00    -0.025 C 
BRANCH   3   2
ATOM      1  C   UNL     1      51.632  21.208  16.111  0.00  0.00    +0.018 C 
ATOM      2  C   UNL     1      52.184  19.809  15.825  0.00  0.00    +0.048 C 
ENDBRANCH   3   2
ENDBRANCH   6   5
ENDBRANCH   7   6
TORSDOF 6
ENDMDL
MODEL 3
REMARK VINA RESULT:      -5.9      3.167      7.494
REMARK  Name = ZINC95485929
REMARK  10 active torsions:
REMARK  status: ('A' for Active; 'I' for Inactive)
REMARK    1  A    between atoms: C1_1  and  C2_2
REMARK    2  A    between atoms: C2_2  and  C3_3
REMARK    3  A    between atoms: C3_3  and  C23_29
REMARK    4  A    between atoms: C4_4  and  C5_5
REMARK    5  A    between atoms: C5_5  and  C6_6
REMARK    6  A    between atoms: C10_10  and  O2_14
REMARK    7  A    between atoms: C11_11  and  O1_12
REMARK    8  A    between atoms: O1_12  and  C12_13
REMARK    9  A    between atoms: O2_14  and  C13_15
REMARK   10  A    between atoms: C20_24  and  O6_28
REMARK                            x       y       z     vdW  Elec       q    Type
REMARK                         _______ _______ _______ _____ _____    ______ ____
ROOT
ATOM      7  C   UNL     1      45.923  17.938  20.094  0.00  0.00    +0.039 A 
ATOM      8  C   UNL     1      46.475  16.912  19.325  0.00  0.00    -0.248 A 
ATOM      9  C   UNL     1      47.610  17.142  18.532  0.00  0.00    +0.199 A 
ATOM     10  O   UNL     1      48.161  16.153  17.799  0.00  0.00    -0.221 OA
ATOM     11  C   UNL     1      47.496  15.009  17.529  0.00  0.00    +0.195 A 
ATOM     12  C   UNL     1      47.946  14.179  16.515  0.00  0.00    +0.007 A 
ATOM     13  C   UNL     1      47.280  12.994  16.228  0.00  0.00    +0.130 A 
ATOM     14  C   UNL     1      46.140  12.631  16.968  0.00  0.00    -0.192 A 
ATOM     15  C   UNL     1      45.672  13.458  17.989  0.00  0.00    +0.260 A 
ATOM     18  C   UNL     1      45.700  11.345  16.411  0.00  0.00    -0.018 A 
ATOM     19  C   UNL     1      46.562  11.051  15.429  0.00  0.00    +0.223 A 
ATOM     20  O   UNL     1      47.489  12.020  15.319  0.00  0.00    -0.185 OA
ATOM     21  C   UNL     1      46.350  14.648  18.264  0.00  0.00    -0.268 A 
ATOM     22  C   UNL     1      48.172  18.413  18.512  0.00  0.00    -0.081 A 
ATOM     23  C   UNL     1      47.622  19.428  19.274  0.00  0.00    +0.182 A 
ATOM     26  C   UNL     1      45.877  15.560  19.323  0.00  0.00    +0.448 A 
ATOM     27  O   UNL     1      45.045  15.221  20.145  0.00  0.00    -0.425 OA
ATOM     28  C   UNL     1      46.494  19.194  20.063  0.00  0.00    +0.037 A 
ENDROOT
BRANCH  15  16
ATOM     16  O   UNL     1      44.574  13.112  18.705  0.00  0.00    -0.471 OA
ATOM     17  H   UNL     1      44.710  13.116  19.662  0.00  0.00    +0.406 HD
ENDBRANCH  15  16
BRANCH  23  24
ATOM     24  O   UNL     1      48.180  20.666  19.249  0.00  0.00    -0.292 OA
ATOM     25  C   UNL     1      49.553  20.750  18.861  0.00  0.00    +0.251 C 
ENDBRANCH  23  24
BRANCH  28  29
ATOM     29  O   UNL     1      45.961  20.201  20.805  0.00  0.00    -0.312 OA
ATOM     30  C   UNL     1      46.499  20.397  22.115  0.00  0.00    +0.221 C 
ENDBRANCH  28  29
BRANCH   7   6
ATOM      6  C   UNL     1      44.709  17.677  20.947  0.00  0.00    +0.134 C 
BRANCH   6   5
ATOM      3  C   UNL     1      42.550  18.814  21.018  0.00  0.00    -0.132 C 
ATOM      4  C   UNL     1      42.744  18.973  22.503  0.00  0.00    +0.073 C 
ATOM      5  C   UNL     1      43.494  18.276  20.286  0.00  0.00    -0.025 C 
BRANCH   3   2
ATOM      1  C   UNL     1      41.593  20.114  19.134  0.00  0.00    +0.018 C 
ATOM      2  C   UNL     1      41.268  19.276  20.372  0.00  0.00    +0.048 C 
ENDBRANCH   3   2
ENDBRANCH   6   5
ENDBRANCH   7   6
TORSDOF 6
ENDMDL
MODEL 4
REMARK VINA RESULT:      -5.9      3.127      6.595
REMARK  Name = ZINC95485929
REMARK  10 active torsions:
REMARK  status: ('A' for Active; 'I' for Inactive)
REMARK    1  A    between atoms: C1_1  and  C2_2
REMARK    2  A    between atoms: C2_2  and  C3_3
REMARK    3  A    between atoms: C3_3  and  C23_29
REMARK    4  A    between atoms: C4_4  and  C5_5
REMARK    5  A    between atoms: C5_5  and  C6_6
REMARK    6  A    between atoms: C10_10  and  O2_14
REMARK    7  A    between atoms: C11_11  and  O1_12
REMARK    8  A    between atoms: O1_12  and  C12_13
REMARK    9  A    between atoms: O2_14  and  C13_15
REMARK   10  A    between atoms: C20_24  and  O6_28
REMARK                            x       y       z     vdW  Elec       q    Type
REMARK                         _______ _______ _______ _____ _____    ______ ____
ROOT
ATOM      7  C   UNL     1      49.096  18.452  18.783  0.00  0.00    +0.039 A 
ATOM      8  C   UNL     1      48.971  17.151  18.294  0.00  0.00    -0.248 A 
ATOM      9  C   UNL     1      49.918  16.628  17.400  0.00  0.00    +0.199 A 
ATOM     10  O   UNL     1      49.815  15.365  16.936  0.00  0.00    -0.221 OA
ATOM     11  C   UNL     1      48.668  14.660  17.032  0.00  0.00    +0.195 A 
ATOM     12  C   UNL     1      48.497  13.522  16.261  0.00  0.00    +0.007 A 
ATOM     13  C   UNL     1      47.326  12.779  16.353  0.00  0.00    +0.130 A 
ATOM     14  C   UNL     1      46.306  13.181  17.234  0.00  0.00    -0.192 A 
ATOM     15  C   UNL     1      46.461  14.326  18.014  0.00  0.00    +0.260 A 
ATOM     18  C   UNL     1      45.237  12.184  17.081  0.00  0.00    -0.018 A 
ATOM     19  C   UNL     1      45.673  11.308  16.166  0.00  0.00    +0.223 A 
ATOM     20  O   UNL     1      46.900  11.658  15.737  0.00  0.00    -0.185 OA
ATOM     21  C   UNL     1      47.641  15.066  17.908  0.00  0.00    -0.268 A 
ATOM     22  C   UNL     1      50.979  17.429  16.996  0.00  0.00    -0.081 A 
ATOM     23  C   UNL     1      51.100  18.719  17.481  0.00  0.00    +0.182 A 
ATOM     26  C   UNL     1      47.838  16.294  18.702  0.00  0.00    +0.448 A 
ATOM     27  O   UNL     1      47.112  16.583  19.636  0.00  0.00    -0.425 OA
ATOM     28  C   UNL     1      50.156  19.235  18.372  0.00  0.00    +0.037 A 
ENDROOT
BRANCH  15  16
ATOM     16  O   UNL     1      45.480  14.717  18.864  0.00  0.00    -0.471 OA
ATOM     17  H   UNL     1      45.596  15.610  19.216  0.00  0.00    +0.406 HD
ENDBRANCH  15  16
BRANCH  23  24
ATOM     24  O   UNL     1      52.141  19.493  17.081  0.00  0.00    -0.292 OA
ATOM     25  C   UNL     1      52.101  19.992  15.743  0.00  0.00    +0.251 C 
ENDBRANCH  23  24
BRANCH  28  29
ATOM     29  O   UNL     1      50.284  20.506  18.839  0.00  0.00    -0.312 OA
ATOM     30  C   UNL     1      51.109  20.693  19.991  0.00  0.00    +0.221 C 
ENDBRANCH  28  29
BRANCH   7   6
ATOM      6  C   UNL     1      48.078  19.001  19.749  0.00  0.00    +0.134 C 
BRANCH   6   5
ATOM      3  C   UNL     1      46.651  20.969  19.517  0.00  0.00    -0.132 C 
ATOM      4  C   UNL     1      47.265  21.495  20.787  0.00  0.00    +0.073 C 
ATOM      5  C   UNL     1      47.079  19.845  18.998  0.00  0.00    -0.025 C 
BRANCH   3   2
ATOM      1  C   UNL     1      44.793  22.570  19.883  0.00  0.00    +0.018 C 
ATOM      2  C   UNL     1      45.543  21.736  18.842  0.00  0.00    +0.048 C 
ENDBRANCH   3   2
ENDBRANCH   6   5
ENDBRANCH   7   6
TORSDOF 6
ENDMDL
MODEL 5
REMARK VINA RESULT:      -5.6      2.211      7.890
REMARK  Name = ZINC95485929
REMARK  10 active torsions:
REMARK  status: ('A' for Active; 'I' for Inactive)
REMARK    1  A    between atoms: C1_1  and  C2_2
REMARK    2  A    between atoms: C2_2  and  C3_3
REMARK    3  A    between atoms: C3_3  and  C23_29
REMARK    4  A    between atoms: C4_4  and  C5_5
REMARK    5  A    between atoms: C5_5  and  C6_6
REMARK    6  A    between atoms: C10_10  and  O2_14
REMARK    7  A    between atoms: C11_11  and  O1_12
REMARK    8  A    between atoms: O1_12  and  C12_13
REMARK    9  A    between atoms: O2_14  and  C13_15
REMARK   10  A    between atoms: C20_24  and  O6_28
REMARK                            x       y       z     vdW  Elec       q    Type
REMARK                         _______ _______ _______ _____ _____    ______ ____
ROOT
ATOM      7  C   UNL     1      44.935  20.883  19.465  0.00  0.00    +0.039 A 
ATOM      8  C   UNL     1      46.230  20.363  19.526  0.00  0.00    -0.248 A 
ATOM      9  C   UNL     1      47.243  21.044  20.219  0.00  0.00    +0.199 A 
ATOM     10  O   UNL     1      48.492  20.541  20.299  0.00  0.00    -0.221 OA
ATOM     11  C   UNL     1      48.920  19.559  19.478  0.00  0.00    +0.195 A 
ATOM     12  C   UNL     1      50.278  19.309  19.361  0.00  0.00    +0.007 A 
ATOM     13  C   UNL     1      50.737  18.297  18.526  0.00  0.00    +0.130 A 
ATOM     14  C   UNL     1      49.822  17.520  17.794  0.00  0.00    -0.192 A 
ATOM     15  C   UNL     1      48.452  17.762  17.899  0.00  0.00    +0.260 A 
ATOM     18  C   UNL     1      50.636  16.561  17.036  0.00  0.00    -0.018 A 
ATOM     19  C   UNL     1      51.911  16.823  17.351  0.00  0.00    +0.223 A 
ATOM     20  O   UNL     1      51.971  17.844  18.226  0.00  0.00    -0.185 OA
ATOM     21  C   UNL     1      48.005  18.785  18.737  0.00  0.00    -0.268 A 
ATOM     22  C   UNL     1      46.943  22.254  20.834  0.00  0.00    -0.081 A 
ATOM     23  C   UNL     1      45.660  22.767  20.770  0.00  0.00    +0.182 A 
ATOM     26  C   UNL     1      46.566  19.086  18.862  0.00  0.00    +0.448 A 
ATOM     27  O   UNL     1      45.709  18.330  18.443  0.00  0.00    -0.425 OA
ATOM     28  C   UNL     1      44.655  22.085  20.081  0.00  0.00    +0.037 A 
ENDROOT
BRANCH  15  16
ATOM     16  O   UNL     1      47.567  17.015  17.194  0.00  0.00    -0.471 OA
ATOM     17  H   UNL     1      47.269  16.219  17.655  0.00  0.00    +0.406 HD
ENDBRANCH  15  16
BRANCH  23  24
ATOM     24  O   UNL     1      45.378  23.949  21.376  0.00  0.00    -0.292 OA
ATOM     25  C   UNL     1      46.171  25.077  20.999  0.00  0.00    +0.251 C 
ENDBRANCH  23  24
BRANCH  28  29
ATOM     29  O   UNL     1      43.398  22.602  20.023  0.00  0.00    -0.312 OA
ATOM     30  C   UNL     1      43.164  23.631  19.059  0.00  0.00    +0.221 C 
ENDBRANCH  28  29
BRANCH   7   6
ATOM      6  C   UNL     1      43.854  20.139  18.725  0.00  0.00    +0.134 C 
BRANCH   6   5
ATOM      3  C   UNL     1      41.734  19.558  19.788  0.00  0.00    -0.132 C 
ATOM      4  C   UNL     1      41.053  20.469  18.800  0.00  0.00    +0.073 C 
ATOM      5  C   UNL     1      43.025  19.351  19.706  0.00  0.00    -0.025 C 
BRANCH   3   2
ATOM      1  C   UNL     1      41.875  18.170  21.838  0.00  0.00    +0.018 C 
ATOM      2  C   UNL     1      40.930  18.884  20.870  0.00  0.00    +0.048 C 
ENDBRANCH   3   2
ENDBRANCH   6   5
ENDBRANCH   7   6
TORSDOF 6
ENDMDL
MODEL 6
REMARK VINA RESULT:      -5.4      3.559      7.291
REMARK  Name = ZINC95485929
REMARK  10 active torsions:
REMARK  status: ('A' for Active; 'I' for Inactive)
REMARK    1  A    between atoms: C1_1  and  C2_2
REMARK    2  A    between atoms: C2_2  and  C3_3
REMARK    3  A    between atoms: C3_3  and  C23_29
REMARK    4  A    between atoms: C4_4  and  C5_5
REMARK    5  A    between atoms: C5_5  and  C6_6
REMARK    6  A    between atoms: C10_10  and  O2_14
REMARK    7  A    between atoms: C11_11  and  O1_12
REMARK    8  A    between atoms: O1_12  and  C12_13
REMARK    9  A    between atoms: O2_14  and  C13_15
REMARK   10  A    between atoms: C20_24  and  O6_28
REMARK                            x       y       z     vdW  Elec       q    Type
REMARK                         _______ _______ _______ _____ _____    ______ ____
ROOT
ATOM      7  C   UNL     1      48.448  17.408  18.901  0.00  0.00    +0.039 A 
ATOM      8  C   UNL     1      48.221  16.339  18.032  0.00  0.00    -0.248 A 
ATOM      9  C   UNL     1      46.925  15.838  17.836  0.00  0.00    +0.199 A 
ATOM     10  O   UNL     1      46.694  14.818  16.984  0.00  0.00    -0.221 OA
ATOM     11  C   UNL     1      47.688  14.025  16.533  0.00  0.00    +0.195 A 
ATOM     12  C   UNL     1      47.381  12.808  15.946  0.00  0.00    +0.007 A 
ATOM     13  C   UNL     1      48.391  11.982  15.469  0.00  0.00    +0.130 A 
ATOM     14  C   UNL     1      49.735  12.379  15.579  0.00  0.00    -0.192 A 
ATOM     15  C   UNL     1      50.062  13.599  16.171  0.00  0.00    +0.260 A 
ATOM     18  C   UNL     1      50.520  11.290  14.981  0.00  0.00    -0.018 A 
ATOM     19  C   UNL     1      49.633  10.370  14.581  0.00  0.00    +0.223 A 
ATOM     20  O   UNL     1      48.383  10.774  14.868  0.00  0.00    -0.185 OA
ATOM     21  C   UNL     1      49.036  14.417  16.651  0.00  0.00    -0.268 A 
ATOM     22  C   UNL     1      45.867  16.413  18.530  0.00  0.00    -0.081 A 
ATOM     23  C   UNL     1      46.095  17.470  19.393  0.00  0.00    +0.182 A 
ATOM     26  C   UNL     1      49.339  15.708  17.300  0.00  0.00    +0.448 A 
ATOM     27  O   UNL     1      50.442  16.220  17.236  0.00  0.00    -0.425 OA
ATOM     28  C   UNL     1      47.387  17.967  19.583  0.00  0.00    +0.037 A 
ENDROOT
BRANCH  15  16
ATOM     16  O   UNL     1      51.357  13.986  16.280  0.00  0.00    -0.471 OA
ATOM     17  H   UNL     1      51.856  13.929  15.454  0.00  0.00    +0.406 HD
ENDBRANCH  15  16
BRANCH  23  24
ATOM     24  O   UNL     1      45.055  18.026  20.065  0.00  0.00    -0.292 OA
ATOM     25  C   UNL     1      44.300  19.027  19.380  0.00  0.00    +0.251 C 
ENDBRANCH  23  24
BRANCH  28  29
ATOM     29  O   UNL     1      47.598  19.005  20.436  0.00  0.00    -0.312 OA
ATOM     30  C   UNL     1      47.749  18.687  21.821  0.00  0.00    +0.221 C 
ENDBRANCH  28  29
BRANCH   7   6
ATOM      6  C   UNL     1      49.843  17.942  19.098  0.00  0.00    +0.134 C 
BRANCH   6   5
ATOM      3  C   UNL     1      51.151  19.782  18.168  0.00  0.00    -0.132 C 
ATOM      4  C   UNL     1      52.385  18.954  18.412  0.00  0.00    +0.073 C 
ATOM      5  C   UNL     1      49.967  19.283  18.421  0.00  0.00    -0.025 C 
BRANCH   3   2
ATOM      1  C   UNL     1      51.635  21.131  16.144  0.00  0.00    +0.018 C 
ATOM      2  C   UNL     1      51.279  21.185  17.631  0.00  0.00    +0.048 C 
ENDBRANCH   3   2
ENDBRANCH   6   5
ENDBRANCH   7   6
TORSDOF 6
ENDMDL
MODEL 7
REMARK VINA RESULT:      -5.4      3.331      7.994
REMARK  Name = ZINC95485929
REMARK  10 active torsions:
REMARK  status: ('A' for Active; 'I' for Inactive)
REMARK    1  A    between atoms: C1_1  and  C2_2
REMARK    2  A    between atoms: C2_2  and  C3_3
REMARK    3  A    between atoms: C3_3  and  C23_29
REMARK    4  A    between atoms: C4_4  and  C5_5
REMARK    5  A    between atoms: C5_5  and  C6_6
REMARK    6  A    between atoms: C10_10  and  O2_14
REMARK    7  A    between atoms: C11_11  and  O1_12
REMARK    8  A    between atoms: O1_12  and  C12_13
REMARK    9  A    between atoms: O2_14  and  C13_15
REMARK   10  A    between atoms: C20_24  and  O6_28
REMARK                            x       y       z     vdW  Elec       q    Type
REMARK                         _______ _______ _______ _____ _____    ______ ____
ROOT
ATOM      7  C   UNL     1      46.828  17.995  18.778  0.00  0.00    +0.039 A 
ATOM      8  C   UNL     1      47.711  17.015  18.322  0.00  0.00    -0.248 A 
ATOM      9  C   UNL     1      49.098  17.224  18.368  0.00  0.00    +0.199 A 
ATOM     10  O   UNL     1      49.960  16.275  17.947  0.00  0.00    -0.221 OA
ATOM     11  C   UNL     1      49.562  15.239  17.179  0.00  0.00    +0.195 A 
ATOM     12  C   UNL     1      50.506  14.489  16.498  0.00  0.00    +0.007 A 
ATOM     13  C   UNL     1      50.116  13.414  15.709  0.00  0.00    +0.130 A 
ATOM     14  C   UNL     1      48.754  13.080  15.599  0.00  0.00    -0.192 A 
ATOM     15  C   UNL     1      47.791  13.827  16.276  0.00  0.00    +0.260 A 
ATOM     18  C   UNL     1      48.704  11.913  14.708  0.00  0.00    -0.018 A 
ATOM     19  C   UNL     1      49.972  11.651  14.366  0.00  0.00    +0.223 A 
ATOM     20  O   UNL     1      50.802  12.533  14.953  0.00  0.00    -0.185 OA
ATOM     21  C   UNL     1      48.197  14.908  17.061  0.00  0.00    -0.268 A 
ATOM     22  C   UNL     1      49.583  18.429  18.862  0.00  0.00    -0.081 A 
ATOM     23  C   UNL     1      48.705  19.399  19.311  0.00  0.00    +0.182 A 
ATOM     26  C   UNL     1      47.208  15.736  17.779  0.00  0.00    +0.448 A 
ATOM     27  O   UNL     1      46.050  15.386  17.915  0.00  0.00    -0.425 OA
ATOM     28  C   UNL     1      47.326  19.186  19.265  0.00  0.00    +0.037 A 
ENDROOT
BRANCH  15  16
ATOM     16  O   UNL     1      46.477  13.509  16.172  0.00  0.00    -0.471 OA
ATOM     17  H   UNL     1      45.884  14.139  16.603  0.00  0.00    +0.406 HD
ENDBRANCH  15  16
BRANCH  23  24
ATOM     24  O   UNL     1      49.189  20.573  19.793  0.00  0.00    -0.292 OA
ATOM     25  C   UNL     1      49.930  20.516  21.013  0.00  0.00    +0.251 C 
ENDBRANCH  23  24
BRANCH  28  29
ATOM     29  O   UNL     1      46.473  20.150  19.707  0.00  0.00    -0.312 OA
ATOM     30  C   UNL     1      46.024  21.108  18.747  0.00  0.00    +0.221 C 
ENDBRANCH  28  29
BRANCH   7   6
ATOM      6  C   UNL     1      45.340  17.757  18.731  0.00  0.00    +0.134 C 
BRANCH   6   5
ATOM      3  C   UNL     1      43.901  17.899  20.698  0.00  0.00    -0.132 C 
ATOM      4  C   UNL     1      43.158  19.011  20.006  0.00  0.00    +0.073 C 
ATOM      5  C   UNL     1      44.868  17.271  20.077  0.00  0.00    -0.025 C 
BRANCH   3   2
ATOM      1  C   UNL     1      44.234  16.201  22.475  0.00  0.00    +0.018 C 
ATOM      2  C   UNL     1      43.531  17.509  22.106  0.00  0.00    +0.048 C 
ENDBRANCH   3   2
ENDBRANCH   6   5
ENDBRANCH   7   6
TORSDOF 6
ENDMDL
MODEL 8
REMARK VINA RESULT:      -5.3      4.406      8.029
REMARK  Name = ZINC95485929
REMARK  10 active torsions:
REMARK  status: ('A' for Active; 'I' for Inactive)
REMARK    1  A    between atoms: C1_1  and  C2_2
REMARK    2  A    between atoms: C2_2  and  C3_3
REMARK    3  A    between atoms: C3_3  and  C23_29
REMARK    4  A    between atoms: C4_4  and  C5_5
REMARK    5  A    between atoms: C5_5  and  C6_6
REMARK    6  A    between atoms: C10_10  and  O2_14
REMARK    7  A    between atoms: C11_11  and  O1_12
REMARK    8  A    between atoms: O1_12  and  C12_13
REMARK    9  A    between atoms: O2_14  and  C13_15
REMARK   10  A    between atoms: C20_24  and  O6_28
REMARK                            x       y       z     vdW  Elec       q    Type
REMARK                         _______ _______ _______ _____ _____    ______ ____
ROOT
ATOM      7  C   UNL     1      48.555  14.235  16.756  0.00  0.00    +0.039 A 
ATOM      8  C   UNL     1      49.449  15.292  16.933  0.00  0.00    -0.248 A 
ATOM      9  C   UNL     1      50.832  15.090  16.807  0.00  0.00    +0.199 A 
ATOM     10  O   UNL     1      51.702  16.109  16.958  0.00  0.00    -0.221 OA
ATOM     11  C   UNL     1      51.345  17.272  17.544  0.00  0.00    +0.195 A 
ATOM     12  C   UNL     1      52.325  18.147  17.981  0.00  0.00    +0.007 A 
ATOM     13  C   UNL     1      51.977  19.353  18.578  0.00  0.00    +0.130 A 
ATOM     14  C   UNL     1      50.621  19.690  18.741  0.00  0.00    -0.192 A 
ATOM     15  C   UNL     1      49.622  18.818  18.309  0.00  0.00    +0.260 A 
ATOM     18  C   UNL     1      50.618  21.008  19.391  0.00  0.00    -0.018 A 
ATOM     19  C   UNL     1      51.903  21.342  19.562  0.00  0.00    +0.223 A 
ATOM     20  O   UNL     1      52.702  20.370  19.086  0.00  0.00    -0.185 OA
ATOM     21  C   UNL     1      49.987  17.608  17.716  0.00  0.00    -0.268 A 
ATOM     22  C   UNL     1      51.303  13.815  16.514  0.00  0.00    -0.081 A 
ATOM     23  C   UNL     1      50.415  12.769  16.341  0.00  0.00    +0.182 A 
ATOM     26  C   UNL     1      48.962  16.649  17.261  0.00  0.00    +0.448 A 
ATOM     27  O   UNL     1      47.788  16.955  17.163  0.00  0.00    -0.425 OA
ATOM     28  C   UNL     1      49.039  12.975  16.466  0.00  0.00    +0.037 A 
ENDROOT
BRANCH  15  16
ATOM     16  O   UNL     1      48.314  19.140  18.465  0.00  0.00    -0.471 OA
ATOM     17  H   UNL     1      47.706  18.408  18.294  0.00  0.00    +0.406 HD
ENDBRANCH  15  16
BRANCH  23  24
ATOM     24  O   UNL     1      50.886  11.528  16.055  0.00  0.00    -0.292 OA
ATOM     25  C   UNL     1      52.229  11.237  16.446  0.00  0.00    +0.251 C 
ENDBRANCH  23  24
BRANCH  28  29
ATOM     29  O   UNL     1      48.176  11.937  16.296  0.00  0.00    -0.312 OA
ATOM     30  C   UNL     1      47.749  11.661  14.961  0.00  0.00    +0.221 C 
ENDBRANCH  28  29
BRANCH   7   6
ATOM      6  C   UNL     1      47.071  14.465  16.887  0.00  0.00    +0.134 C 
BRANCH   6   5
ATOM      3  C   UNL     1      45.688  13.465  18.632  0.00  0.00    -0.132 C 
ATOM      4  C   UNL     1      45.080  12.587  17.569  0.00  0.00    +0.073 C 
ATOM      5  C   UNL     1      46.661  14.286  18.326  0.00  0.00    -0.025 C 
BRANCH   3   2
ATOM      1  C   UNL     1      45.219  14.794  20.673  0.00  0.00    +0.018 C 
ATOM      2  C   UNL     1      45.175  13.398  20.048  0.00  0.00    +0.048 C 
ENDBRANCH   3   2
ENDBRANCH   6   5
ENDBRANCH   7   6
TORSDOF 6
ENDMDL
MODEL 9
REMARK VINA RESULT:      -5.3      2.675      5.318
REMARK  Name = ZINC95485929
REMARK  10 active torsions:
REMARK  status: ('A' for Active; 'I' for Inactive)
REMARK    1  A    between atoms: C1_1  and  C2_2
REMARK    2  A    between atoms: C2_2  and  C3_3
REMARK    3  A    between atoms: C3_3  and  C23_29
REMARK    4  A    between atoms: C4_4  and  C5_5
REMARK    5  A    between atoms: C5_5  and  C6_6
REMARK    6  A    between atoms: C10_10  and  O2_14
REMARK    7  A    between atoms: C11_11  and  O1_12
REMARK    8  A    between atoms: O1_12  and  C12_13
REMARK    9  A    between atoms: O2_14  and  C13_15
REMARK   10  A    between atoms: C20_24  and  O6_28
REMARK                            x       y       z     vdW  Elec       q    Type
REMARK                         _______ _______ _______ _____ _____    ______ ____
ROOT
ATOM      7  C   UNL     1      48.738  16.306  17.870  0.00  0.00    +0.039 A 
ATOM      8  C   UNL     1      48.456  17.580  18.367  0.00  0.00    -0.248 A 
ATOM      9  C   UNL     1      49.367  18.239  19.207  0.00  0.00    +0.199 A 
ATOM     10  O   UNL     1      49.112  19.477  19.678  0.00  0.00    -0.221 OA
ATOM     11  C   UNL     1      47.873  20.012  19.646  0.00  0.00    +0.195 A 
ATOM     12  C   UNL     1      47.586  21.119  20.427  0.00  0.00    +0.007 A 
ATOM     13  C   UNL     1      46.318  21.688  20.402  0.00  0.00    +0.130 A 
ATOM     14  C   UNL     1      45.318  21.140  19.579  0.00  0.00    -0.192 A 
ATOM     15  C   UNL     1      45.590  20.022  18.790  0.00  0.00    +0.260 A 
ATOM     18  C   UNL     1      44.129  21.975  19.793  0.00  0.00    -0.018 A 
ATOM     19  C   UNL     1      44.486  22.911  20.682  0.00  0.00    +0.223 A 
ATOM     20  O   UNL     1      45.772  22.742  21.041  0.00  0.00    -0.185 OA
ATOM     21  C   UNL     1      46.867  19.458  18.830  0.00  0.00    -0.268 A 
ATOM     22  C   UNL     1      50.552  17.599  19.550  0.00  0.00    -0.081 A 
ATOM     23  C   UNL     1      50.828  16.336  19.058  0.00  0.00    +0.182 A 
ATOM     26  C   UNL     1      47.192  18.265  18.024  0.00  0.00    +0.448 A 
ATOM     27  O   UNL     1      46.463  17.869  17.133  0.00  0.00    -0.425 OA
ATOM     28  C   UNL     1      49.919  15.685  18.221  0.00  0.00    +0.037 A 
ENDROOT
BRANCH  15  16
ATOM     16  O   UNL     1      44.628  19.490  17.996  0.00  0.00    -0.471 OA
ATOM     17  H   UNL     1      44.148  20.143  17.469  0.00  0.00    +0.406 HD
ENDBRANCH  15  16
BRANCH  23  24
ATOM     24  O   UNL     1      51.989  15.720  19.398  0.00  0.00    -0.292 OA
ATOM     25  C   UNL     1      53.203  16.357  18.995  0.00  0.00    +0.251 C 
ENDBRANCH  23  24
BRANCH  28  29
ATOM     29  O   UNL     1      50.200  14.442  17.745  0.00  0.00    -0.312 OA
ATOM     30  C   UNL     1      50.938  14.366  16.524  0.00  0.00    +0.221 C 
ENDBRANCH  28  29
BRANCH   7   6
ATOM      6  C   UNL     1      47.755  15.612  16.963  0.00  0.00    +0.134 C 
BRANCH   6   5
ATOM      3  C   UNL     1      46.687  13.444  17.308  0.00  0.00    -0.132 C 
ATOM      4  C   UNL     1      47.366  12.971  16.049  0.00  0.00    +0.073 C 
ATOM      5  C   UNL     1      46.924  14.646  17.769  0.00  0.00    -0.025 C 
BRANCH   3   2
ATOM      1  C   UNL     1      45.122  13.277  19.225  0.00  0.00    +0.018 C 
ATOM      2  C   UNL     1      45.734  12.531  18.037  0.00  0.00    +0.048 C 
ENDBRANCH   3   2
ENDBRANCH   6   5
ENDBRANCH   7   6
TORSDOF 6
ENDMDL
