MODEL 1
REMARK VINA RESULT:      -3.8      0.000      0.000
REMARK  Name = ZINC95486098
REMARK  50 active torsions:
REMARK  status: ('A' for Active; 'I' for Inactive)
REMARK    1  A    between atoms: C1_1  and  C2_2
REMARK    2  A    between atoms: C2_2  and  C3_3
REMARK    3  A    between atoms: C3_3  and  C4_4
REMARK    4  A    between atoms: C4_4  and  C5_5
REMARK    5  A    between atoms: C5_5  and  C6_6
REMARK    6  A    between atoms: C6_6  and  C7_7
REMARK    7  A    between atoms: C7_7  and  C8_8
REMARK    8  A    between atoms: C8_8  and  C9_9
REMARK    9  A    between atoms: C9_9  and  C10_10
REMARK   10  A    between atoms: C10_10  and  C11_11
REMARK   11  A    between atoms: C11_11  and  C12_12
REMARK   12  A    between atoms: C12_12  and  C13_13
REMARK   13  A    between atoms: C13_13  and  C14_14
REMARK   14  A    between atoms: C14_14  and  C15_15
REMARK   15  A    between atoms: C15_15  and  C16_16
REMARK   16  A    between atoms: C16_16  and  C17_17
REMARK   17  A    between atoms: C17_17  and  C18_18
REMARK   18  A    between atoms: C18_18  and  C19_19
REMARK   19  A    between atoms: C19_19  and  C20_20
REMARK   20  A    between atoms: C20_20  and  C21_21
REMARK   21  A    between atoms: C21_21  and  C22_22
REMARK   22  A    between atoms: C22_22  and  C23_23
REMARK   23  A    between atoms: C23_23  and  C24_24
REMARK   24  A    between atoms: C24_24  and  C25_25
REMARK   25  A    between atoms: C25_25  and  C26_26
REMARK   26  A    between atoms: C26_26  and  C27_27
REMARK   27  A    between atoms: C27_27  and  C28_28
REMARK   28  A    between atoms: C28_28  and  C29_29
REMARK   29  A    between atoms: C29_29  and  C30_30
REMARK   30  A    between atoms: C30_30  and  C31_31
REMARK   31  A    between atoms: C31_31  and  C32_32
REMARK   32  A    between atoms: C32_32  and  C33_33
REMARK   33  A    between atoms: C33_33  and  C34_34
REMARK   34  A    between atoms: C34_34  and  C35_35
REMARK   35  A    between atoms: C35_35  and  C36_36
REMARK   36  A    between atoms: C36_36  and  C37_37
REMARK   37  A    between atoms: C37_37  and  C38_38
REMARK   38  A    between atoms: C38_38  and  C39_39
REMARK   39  A    between atoms: C39_39  and  C40_40
REMARK   40  A    between atoms: C40_40  and  C41_41
REMARK   41  A    between atoms: C41_41  and  C42_42
REMARK   42  A    between atoms: C42_42  and  C43_43
REMARK   43  A    between atoms: C43_43  and  C44_44
REMARK   44  A    between atoms: C44_44  and  C45_45
REMARK   45  A    between atoms: C45_45  and  C46_46
REMARK   46  A    between atoms: C46_46  and  C47_47
REMARK   47  A    between atoms: C47_47  and  C48_48
REMARK   48  A    between atoms: C48_48  and  C49_49
REMARK   49  A    between atoms: C50_50  and  C51_51
REMARK   50  A    between atoms: C50_50  and  O2_53
REMARK                            x       y       z     vdW  Elec       q    Type
REMARK                         _______ _______ _______ _____ _____    ______ ____
ROOT
ATOM     27  C   UNL     1      51.467  21.087  16.334  0.00  0.00    +0.000 C 
ENDROOT
BRANCH  27  26
ATOM     26  C   UNL     1      50.931  21.143  17.767  0.00  0.00    +0.000 C 
BRANCH  26  25
ATOM     25  C   UNL     1      52.099  21.058  18.752  0.00  0.00    +0.000 C 
BRANCH  25  24
ATOM     24  C   UNL     1      51.577  20.634  20.126  0.00  0.00    +0.000 C 
BRANCH  24  23
ATOM     23  C   UNL     1      50.048  20.612  20.106  0.00  0.00    +0.000 C 
BRANCH  23  22
ATOM     22  C   UNL     1      49.519  20.654  21.542  0.00  0.00    +0.000 C 
BRANCH  22  21
ATOM     21  C   UNL     1      48.086  20.118  21.571  0.00  0.00    +0.000 C 
BRANCH  21  20
ATOM     20  C   UNL     1      47.128  21.248  21.955  0.00  0.00    +0.000 C 
BRANCH  20  19
ATOM     19  C   UNL     1      46.511  21.847  20.689  0.00  0.00    +0.000 C 
BRANCH  19  18
ATOM     18  C   UNL     1      45.207  22.563  21.046  0.00  0.00    +0.000 C 
BRANCH  18  17
ATOM     17  C   UNL     1      44.127  22.194  20.028  0.00  0.00    +0.000 C 
BRANCH  17  16
ATOM     16  C   UNL     1      44.654  21.099  19.098  0.00  0.00    +0.000 C 
BRANCH  16  15
ATOM     15  C   UNL     1      43.505  20.170  18.701  0.00  0.00    +0.000 C 
BRANCH  15  14
ATOM     14  C   UNL     1      42.314  20.404  19.631  0.00  0.00    +0.000 C 
BRANCH  14  13
ATOM     13  C   UNL     1      41.532  19.099  19.798  0.00  0.00    +0.000 C 
BRANCH  13  12
ATOM     12  C   UNL     1      41.301  18.829  21.286  0.00  0.00    +0.000 C 
BRANCH  12  11
ATOM     11  C   UNL     1      42.638  18.876  22.027  0.00  0.00    +0.000 C 
BRANCH  11  10
ATOM     10  C   UNL     1      43.209  17.460  22.138  0.00  0.00    +0.000 C 
BRANCH  10   9
ATOM      9  C   UNL     1      44.735  17.532  22.236  0.00  0.00    +0.000 C 
BRANCH   9   8
ATOM      8  C   UNL     1      45.316  17.917  20.874  0.00  0.00    +0.000 C 
BRANCH   8   7
ATOM      7  C   UNL     1      44.911  16.870  19.834  0.00  0.00    +0.000 C 
BRANCH   7   6
ATOM      6  C   UNL     1      45.902  16.901  18.668  0.00  0.00    +0.000 C 
BRANCH   6   5
ATOM      5  C   UNL     1      46.698  18.206  18.710  0.00  0.00    +0.000 C 
BRANCH   5   4
ATOM      4  C   UNL     1      48.185  17.903  18.509  0.00  0.00    -0.000 C 
BRANCH   4   3
ATOM      3  C   UNL     1      48.540  16.597  19.222  0.00  0.00    -0.000 C 
BRANCH   3   2
ATOM      1  C   UNL     1      48.862  16.458  21.697  0.00  0.00    +0.006 C 
ATOM      2  C   UNL     1      49.502  16.890  20.375  0.00  0.00    -0.006 C 
ENDBRANCH   3   2
ENDBRANCH   4   3
ENDBRANCH   5   4
ENDBRANCH   6   5
ENDBRANCH   7   6
ENDBRANCH   8   7
ENDBRANCH   9   8
ENDBRANCH  10   9
ENDBRANCH  11  10
ENDBRANCH  12  11
ENDBRANCH  13  12
ENDBRANCH  14  13
ENDBRANCH  15  14
ENDBRANCH  16  15
ENDBRANCH  17  16
ENDBRANCH  18  17
ENDBRANCH  19  18
ENDBRANCH  20  19
ENDBRANCH  21  20
ENDBRANCH  22  21
ENDBRANCH  23  22
ENDBRANCH  24  23
ENDBRANCH  25  24
ENDBRANCH  26  25
ENDBRANCH  27  26
BRANCH  27  28
ATOM     28  C   UNL     1      52.153  19.740  16.099  0.00  0.00    +0.000 C 
BRANCH  28  29
ATOM     29  C   UNL     1      51.143  18.610  16.313  0.00  0.00    +0.000 C 
BRANCH  29  30
ATOM     30  C   UNL     1      51.690  17.627  17.349  0.00  0.00    +0.000 C 
BRANCH  30  31
ATOM     31  C   UNL     1      51.469  16.195  16.860  0.00  0.00    +0.000 C 
BRANCH  31  32
ATOM     32  C   UNL     1      51.793  15.214  17.989  0.00  0.00    +0.000 C 
BRANCH  32  33
ATOM     33  C   UNL     1      52.905  15.793  18.866  0.00  0.00    +0.000 C 
BRANCH  33  34
ATOM     34  C   UNL     1      53.166  14.855  20.046  0.00  0.00    +0.000 C 
BRANCH  34  35
ATOM     35  C   UNL     1      54.600  14.328  19.971  0.00  0.00    +0.000 C 
BRANCH  35  36
ATOM     36  C   UNL     1      54.623  12.851  20.365  0.00  0.00    +0.000 C 
BRANCH  36  37
ATOM     37  C   UNL     1      54.797  11.991  19.111  0.00  0.00    +0.000 C 
BRANCH  37  38
ATOM     38  C   UNL     1      53.576  11.084  18.941  0.00  0.00    +0.000 C 
BRANCH  38  39
ATOM     39  C   UNL     1      52.672  11.648  17.842  0.00  0.00    +0.000 C 
BRANCH  39  40
ATOM     40  C   UNL     1      51.212  11.572  18.294  0.00  0.00    +0.000 C 
BRANCH  40  41
ATOM     41  C   UNL     1      51.145  11.676  19.820  0.00  0.00    -0.000 C 
BRANCH  41  42
ATOM     42  C   UNL     1      50.135  12.754  20.213  0.00  0.00    -0.000 C 
BRANCH  42  43
ATOM     43  C   UNL     1      48.726  12.301  19.820  0.00  0.00    +0.000 C 
BRANCH  43  44
ATOM     44  C   UNL     1      47.692  13.178  20.529  0.00  0.00    +0.000 C 
BRANCH  44  45
ATOM     45  C   UNL     1      46.508  13.427  19.593  0.00  0.00    +0.001 C 
BRANCH  45  46
ATOM     46  C   UNL     1      46.673  12.585  18.326  0.00  0.00    +0.003 C 
BRANCH  46  47
ATOM     47  C   UNL     1      46.214  13.394  17.112  0.00  0.00    +0.012 C 
BRANCH  47  48
ATOM     48  C   UNL     1      47.375  14.246  16.598  0.00  0.00    +0.064 C 
BRANCH  48  49
ATOM     49  C   UNL     1      48.493  13.348  16.134  0.00  0.00    +0.005 C 
ATOM     50  C   UNL     1      48.528  12.927  14.865  0.00  0.00    -0.026 C 
BRANCH  50  53
ATOM     53  C   UNL     1      49.616  12.051  14.414  0.00  0.00    +0.474 C 
ATOM     54  O   UNL     1      50.743  12.222  14.829  0.00  0.00    -0.458 OA
ENDBRANCH  50  53
BRANCH  50  51
ATOM     51  O   UNL     1      47.557  13.309  13.994  0.00  0.00    -0.473 OA
ATOM     52  H   UNL     1      47.528  12.784  13.182  0.00  0.00    +0.398 HD
ENDBRANCH  50  51
ENDBRANCH  48  49
ENDBRANCH  47  48
ENDBRANCH  46  47
ENDBRANCH  45  46
ENDBRANCH  44  45
ENDBRANCH  43  44
ENDBRANCH  42  43
ENDBRANCH  41  42
ENDBRANCH  40  41
ENDBRANCH  39  40
ENDBRANCH  38  39
ENDBRANCH  37  38
ENDBRANCH  36  37
ENDBRANCH  35  36
ENDBRANCH  34  35
ENDBRANCH  33  34
ENDBRANCH  32  33
ENDBRANCH  31  32
ENDBRANCH  30  31
ENDBRANCH  29  30
ENDBRANCH  28  29
ENDBRANCH  27  28
TORSDOF 49
ENDMDL
MODEL 2
REMARK VINA RESULT:      -3.8      1.399      9.087
REMARK  Name = ZINC95486098
REMARK  50 active torsions:
REMARK  status: ('A' for Active; 'I' for Inactive)
REMARK    1  A    between atoms: C1_1  and  C2_2
REMARK    2  A    between atoms: C2_2  and  C3_3
REMARK    3  A    between atoms: C3_3  and  C4_4
REMARK    4  A    between atoms: C4_4  and  C5_5
REMARK    5  A    between atoms: C5_5  and  C6_6
REMARK    6  A    between atoms: C6_6  and  C7_7
REMARK    7  A    between atoms: C7_7  and  C8_8
REMARK    8  A    between atoms: C8_8  and  C9_9
REMARK    9  A    between atoms: C9_9  and  C10_10
REMARK   10  A    between atoms: C10_10  and  C11_11
REMARK   11  A    between atoms: C11_11  and  C12_12
REMARK   12  A    between atoms: C12_12  and  C13_13
REMARK   13  A    between atoms: C13_13  and  C14_14
REMARK   14  A    between atoms: C14_14  and  C15_15
REMARK   15  A    between atoms: C15_15  and  C16_16
REMARK   16  A    between atoms: C16_16  and  C17_17
REMARK   17  A    between atoms: C17_17  and  C18_18
REMARK   18  A    between atoms: C18_18  and  C19_19
REMARK   19  A    between atoms: C19_19  and  C20_20
REMARK   20  A    between atoms: C20_20  and  C21_21
REMARK   21  A    between atoms: C21_21  and  C22_22
REMARK   22  A    between atoms: C22_22  and  C23_23
REMARK   23  A    between atoms: C23_23  and  C24_24
REMARK   24  A    between atoms: C24_24  and  C25_25
REMARK   25  A    between atoms: C25_25  and  C26_26
REMARK   26  A    between atoms: C26_26  and  C27_27
REMARK   27  A    between atoms: C27_27  and  C28_28
REMARK   28  A    between atoms: C28_28  and  C29_29
REMARK   29  A    between atoms: C29_29  and  C30_30
REMARK   30  A    between atoms: C30_30  and  C31_31
REMARK   31  A    between atoms: C31_31  and  C32_32
REMARK   32  A    between atoms: C32_32  and  C33_33
REMARK   33  A    between atoms: C33_33  and  C34_34
REMARK   34  A    between atoms: C34_34  and  C35_35
REMARK   35  A    between atoms: C35_35  and  C36_36
REMARK   36  A    between atoms: C36_36  and  C37_37
REMARK   37  A    between atoms: C37_37  and  C38_38
REMARK   38  A    between atoms: C38_38  and  C39_39
REMARK   39  A    between atoms: C39_39  and  C40_40
REMARK   40  A    between atoms: C40_40  and  C41_41
REMARK   41  A    between atoms: C41_41  and  C42_42
REMARK   42  A    between atoms: C42_42  and  C43_43
REMARK   43  A    between atoms: C43_43  and  C44_44
REMARK   44  A    between atoms: C44_44  and  C45_45
REMARK   45  A    between atoms: C45_45  and  C46_46
REMARK   46  A    between atoms: C46_46  and  C47_47
REMARK   47  A    between atoms: C47_47  and  C48_48
REMARK   48  A    between atoms: C48_48  and  C49_49
REMARK   49  A    between atoms: C50_50  and  C51_51
REMARK   50  A    between atoms: C50_50  and  O2_53
REMARK                            x       y       z     vdW  Elec       q    Type
REMARK                         _______ _______ _______ _____ _____    ______ ____
ROOT
ATOM     27  C   UNL     1      48.194  20.454  19.462  0.00  0.00    +0.000 C 
ENDROOT
BRANCH  27  26
ATOM     26  C   UNL     1      47.926  19.148  18.711  0.00  0.00    +0.000 C 
BRANCH  26  25
ATOM     25  C   UNL     1      48.880  18.064  19.216  0.00  0.00    +0.000 C 
BRANCH  25  24
ATOM     24  C   UNL     1      49.155  17.063  18.092  0.00  0.00    +0.000 C 
BRANCH  24  23
ATOM     23  C   UNL     1      49.548  15.714  18.696  0.00  0.00    +0.000 C 
BRANCH  23  22
ATOM     22  C   UNL     1      49.434  15.787  20.221  0.00  0.00    +0.000 C 
BRANCH  22  21
ATOM     21  C   UNL     1      49.423  14.370  20.799  0.00  0.00    +0.000 C 
BRANCH  21  20
ATOM     20  C   UNL     1      50.816  14.025  21.330  0.00  0.00    +0.000 C 
BRANCH  20  19
ATOM     19  C   UNL     1      51.578  13.220  20.275  0.00  0.00    +0.000 C 
BRANCH  19  18
ATOM     18  C   UNL     1      52.908  12.740  20.863  0.00  0.00    +0.000 C 
BRANCH  18  17
ATOM     17  C   UNL     1      53.464  11.604  20.004  0.00  0.00    +0.000 C 
BRANCH  17  16
ATOM     16  C   UNL     1      54.844  11.994  19.472  0.00  0.00    +0.000 C 
BRANCH  16  15
ATOM     15  C   UNL     1      55.422  13.123  20.329  0.00  0.00    +0.000 C 
BRANCH  15  14
ATOM     14  C   UNL     1      56.309  14.018  19.463  0.00  0.00    +0.000 C 
BRANCH  14  13
ATOM     13  C   UNL     1      56.054  15.485  19.817  0.00  0.00    +0.000 C 
BRANCH  13  12
ATOM     12  C   UNL     1      54.614  15.648  20.308  0.00  0.00    +0.000 C 
BRANCH  12  11
ATOM     11  C   UNL     1      53.740  16.163  19.163  0.00  0.00    +0.000 C 
BRANCH  11  10
ATOM     10  C   UNL     1      52.746  17.193  19.704  0.00  0.00    +0.000 C 
BRANCH  10   9
ATOM      9  C   UNL     1      52.827  17.227  21.232  0.00  0.00    +0.000 C 
BRANCH   9   8
ATOM      8  C   UNL     1      52.336  18.585  21.738  0.00  0.00    +0.000 C 
BRANCH   8   7
ATOM      7  C   UNL     1      51.717  19.368  20.578  0.00  0.00    +0.000 C 
BRANCH   7   6
ATOM      6  C   UNL     1      52.216  20.815  20.616  0.00  0.00    +0.000 C 
BRANCH   6   5
ATOM      5  C   UNL     1      51.884  21.503  19.292  0.00  0.00    +0.000 C 
BRANCH   5   4
ATOM      4  C   UNL     1      51.608  20.444  18.222  0.00  0.00    -0.000 C 
BRANCH   4   3
ATOM      3  C   UNL     1      51.438  21.125  16.862  0.00  0.00    -0.000 C 
BRANCH   3   2
ATOM      1  C   UNL     1      51.798  18.713  16.319  0.00  0.00    +0.006 C 
ATOM      2  C   UNL     1      51.778  20.132  15.748  0.00  0.00    -0.006 C 
ENDBRANCH   3   2
ENDBRANCH   4   3
ENDBRANCH   5   4
ENDBRANCH   6   5
ENDBRANCH   7   6
ENDBRANCH   8   7
ENDBRANCH   9   8
ENDBRANCH  10   9
ENDBRANCH  11  10
ENDBRANCH  12  11
ENDBRANCH  13  12
ENDBRANCH  14  13
ENDBRANCH  15  14
ENDBRANCH  16  15
ENDBRANCH  17  16
ENDBRANCH  18  17
ENDBRANCH  19  18
ENDBRANCH  20  19
ENDBRANCH  21  20
ENDBRANCH  22  21
ENDBRANCH  23  22
ENDBRANCH  24  23
ENDBRANCH  25  24
ENDBRANCH  26  25
ENDBRANCH  27  26
BRANCH  27  28
ATOM     28  C   UNL     1      48.219  20.180  20.968  0.00  0.00    +0.000 C 
BRANCH  28  29
ATOM     29  C   UNL     1      48.392  21.499  21.723  0.00  0.00    +0.000 C 
BRANCH  29  30
ATOM     30  C   UNL     1      47.073  21.878  22.397  0.00  0.00    +0.000 C 
BRANCH  30  31
ATOM     31  C   UNL     1      46.182  22.615  21.396  0.00  0.00    +0.000 C 
BRANCH  31  32
ATOM     32  C   UNL     1      44.751  22.081  21.496  0.00  0.00    +0.000 C 
BRANCH  32  33
ATOM     33  C   UNL     1      44.094  22.120  20.116  0.00  0.00    +0.000 C 
BRANCH  33  34
ATOM     34  C   UNL     1      44.764  21.091  19.202  0.00  0.00    +0.000 C 
BRANCH  34  35
ATOM     35  C   UNL     1      43.741  20.031  18.790  0.00  0.00    +0.000 C 
BRANCH  35  36
ATOM     36  C   UNL     1      42.337  20.637  18.823  0.00  0.00    +0.000 C 
BRANCH  36  37
ATOM     37  C   UNL     1      41.320  19.549  19.176  0.00  0.00    +0.000 C 
BRANCH  37  38
ATOM     38  C   UNL     1      40.927  19.679  20.649  0.00  0.00    +0.000 C 
BRANCH  38  39
ATOM     39  C   UNL     1      41.551  18.531  21.447  0.00  0.00    +0.000 C 
BRANCH  39  40
ATOM     40  C   UNL     1      42.697  19.071  22.304  0.00  0.00    +0.000 C 
BRANCH  40  41
ATOM     41  C   UNL     1      43.744  17.972  22.505  0.00  0.00    -0.000 C 
BRANCH  41  42
ATOM     42  C   UNL     1      45.124  18.508  22.122  0.00  0.00    -0.000 C 
BRANCH  42  43
ATOM     43  C   UNL     1      45.854  17.470  21.266  0.00  0.00    +0.000 C 
BRANCH  43  44
ATOM     44  C   UNL     1      44.932  16.999  20.139  0.00  0.00    +0.000 C 
BRANCH  44  45
ATOM     45  C   UNL     1      45.643  15.923  19.316  0.00  0.00    +0.001 C 
BRANCH  45  46
ATOM     46  C   UNL     1      45.586  14.589  20.063  0.00  0.00    +0.003 C 
BRANCH  46  47
ATOM     47  C   UNL     1      46.066  13.467  19.140  0.00  0.00    +0.012 C 
BRANCH  47  48
ATOM     48  C   UNL     1      46.464  14.054  17.786  0.00  0.00    +0.064 C 
BRANCH  48  49
ATOM     49  C   UNL     1      46.553  12.950  16.764  0.00  0.00    +0.005 C 
ATOM     50  C   UNL     1      47.514  12.975  15.835  0.00  0.00    -0.026 C 
BRANCH  50  53
ATOM     53  C   UNL     1      47.600  11.900  14.839  0.00  0.00    +0.474 C 
ATOM     54  O   UNL     1      46.669  11.136  14.691  0.00  0.00    -0.458 OA
ENDBRANCH  50  53
BRANCH  50  51
ATOM     51  O   UNL     1      48.412  13.996  15.813  0.00  0.00    -0.473 OA
ATOM     52  H   UNL     1      48.118  14.768  15.311  0.00  0.00    +0.398 HD
ENDBRANCH  50  51
ENDBRANCH  48  49
ENDBRANCH  47  48
ENDBRANCH  46  47
ENDBRANCH  45  46
ENDBRANCH  44  45
ENDBRANCH  43  44
ENDBRANCH  42  43
ENDBRANCH  41  42
ENDBRANCH  40  41
ENDBRANCH  39  40
ENDBRANCH  38  39
ENDBRANCH  37  38
ENDBRANCH  36  37
ENDBRANCH  35  36
ENDBRANCH  34  35
ENDBRANCH  33  34
ENDBRANCH  32  33
ENDBRANCH  31  32
ENDBRANCH  30  31
ENDBRANCH  29  30
ENDBRANCH  28  29
ENDBRANCH  27  28
TORSDOF 49
ENDMDL
MODEL 3
REMARK VINA RESULT:      -3.6      1.953      9.539
REMARK  Name = ZINC95486098
REMARK  50 active torsions:
REMARK  status: ('A' for Active; 'I' for Inactive)
REMARK    1  A    between atoms: C1_1  and  C2_2
REMARK    2  A    between atoms: C2_2  and  C3_3
REMARK    3  A    between atoms: C3_3  and  C4_4
REMARK    4  A    between atoms: C4_4  and  C5_5
REMARK    5  A    between atoms: C5_5  and  C6_6
REMARK    6  A    between atoms: C6_6  and  C7_7
REMARK    7  A    between atoms: C7_7  and  C8_8
REMARK    8  A    between atoms: C8_8  and  C9_9
REMARK    9  A    between atoms: C9_9  and  C10_10
REMARK   10  A    between atoms: C10_10  and  C11_11
REMARK   11  A    between atoms: C11_11  and  C12_12
REMARK   12  A    between atoms: C12_12  and  C13_13
REMARK   13  A    between atoms: C13_13  and  C14_14
REMARK   14  A    between atoms: C14_14  and  C15_15
REMARK   15  A    between atoms: C15_15  and  C16_16
REMARK   16  A    between atoms: C16_16  and  C17_17
REMARK   17  A    between atoms: C17_17  and  C18_18
REMARK   18  A    between atoms: C18_18  and  C19_19
REMARK   19  A    between atoms: C19_19  and  C20_20
REMARK   20  A    between atoms: C20_20  and  C21_21
REMARK   21  A    between atoms: C21_21  and  C22_22
REMARK   22  A    between atoms: C22_22  and  C23_23
REMARK   23  A    between atoms: C23_23  and  C24_24
REMARK   24  A    between atoms: C24_24  and  C25_25
REMARK   25  A    between atoms: C25_25  and  C26_26
REMARK   26  A    between atoms: C26_26  and  C27_27
REMARK   27  A    between atoms: C27_27  and  C28_28
REMARK   28  A    between atoms: C28_28  and  C29_29
REMARK   29  A    between atoms: C29_29  and  C30_30
REMARK   30  A    between atoms: C30_30  and  C31_31
REMARK   31  A    between atoms: C31_31  and  C32_32
REMARK   32  A    between atoms: C32_32  and  C33_33
REMARK   33  A    between atoms: C33_33  and  C34_34
REMARK   34  A    between atoms: C34_34  and  C35_35
REMARK   35  A    between atoms: C35_35  and  C36_36
REMARK   36  A    between atoms: C36_36  and  C37_37
REMARK   37  A    between atoms: C37_37  and  C38_38
REMARK   38  A    between atoms: C38_38  and  C39_39
REMARK   39  A    between atoms: C39_39  and  C40_40
REMARK   40  A    between atoms: C40_40  and  C41_41
REMARK   41  A    between atoms: C41_41  and  C42_42
REMARK   42  A    between atoms: C42_42  and  C43_43
REMARK   43  A    between atoms: C43_43  and  C44_44
REMARK   44  A    between atoms: C44_44  and  C45_45
REMARK   45  A    between atoms: C45_45  and  C46_46
REMARK   46  A    between atoms: C46_46  and  C47_47
REMARK   47  A    between atoms: C47_47  and  C48_48
REMARK   48  A    between atoms: C48_48  and  C49_49
REMARK   49  A    between atoms: C50_50  and  C51_51
REMARK   50  A    between atoms: C50_50  and  O2_53
REMARK                            x       y       z     vdW  Elec       q    Type
REMARK                         _______ _______ _______ _____ _____    ______ ____
ROOT
ATOM     27  C   UNL     1      46.559  18.543  17.687  0.00  0.00    +0.000 C 
ENDROOT
BRANCH  27  26
ATOM     26  C   UNL     1      46.617  17.120  17.126  0.00  0.00    +0.000 C 
BRANCH  26  25
ATOM     25  C   UNL     1      48.078  16.706  16.938  0.00  0.00    +0.000 C 
BRANCH  25  24
ATOM     24  C   UNL     1      48.971  17.562  17.841  0.00  0.00    +0.000 C 
BRANCH  24  23
ATOM     23  C   UNL     1      49.646  16.669  18.882  0.00  0.00    +0.000 C 
BRANCH  23  22
ATOM     22  C   UNL     1      48.681  16.424  20.046  0.00  0.00    +0.000 C 
BRANCH  22  21
ATOM     21  C   UNL     1      48.428  14.922  20.190  0.00  0.00    +0.000 C 
BRANCH  21  20
ATOM     20  C   UNL     1      47.036  14.695  20.784  0.00  0.00    +0.000 C 
BRANCH  20  19
ATOM     19  C   UNL     1      46.430  13.422  20.189  0.00  0.00    +0.000 C 
BRANCH  19  18
ATOM     18  C   UNL     1      45.502  13.792  19.030  0.00  0.00    +0.000 C 
BRANCH  18  17
ATOM     17  C   UNL     1      46.160  13.402  17.706  0.00  0.00    +0.000 C 
BRANCH  17  16
ATOM     16  C   UNL     1      46.714  11.980  17.810  0.00  0.00    +0.000 C 
BRANCH  16  15
ATOM     15  C   UNL     1      48.150  11.951  17.280  0.00  0.00    +0.000 C 
BRANCH  15  14
ATOM     14  C   UNL     1      48.528  13.337  16.755  0.00  0.00    +0.000 C 
BRANCH  14  13
ATOM     13  C   UNL     1      50.046  13.514  16.832  0.00  0.00    +0.000 C 
BRANCH  13  12
ATOM     12  C   UNL     1      50.671  12.283  17.490  0.00  0.00    +0.000 C 
BRANCH  12  11
ATOM     11  C   UNL     1      52.192  12.344  17.346  0.00  0.00    +0.000 C 
BRANCH  11  10
ATOM     10  C   UNL     1      52.848  11.770  18.604  0.00  0.00    +0.000 C 
BRANCH  10   9
ATOM      9  C   UNL     1      51.818  11.712  19.735  0.00  0.00    +0.000 C 
BRANCH   9   8
ATOM      8  C   UNL     1      52.258  12.636  20.873  0.00  0.00    +0.000 C 
BRANCH   8   7
ATOM      7  C   UNL     1      51.719  14.046  20.622  0.00  0.00    +0.000 C 
BRANCH   7   6
ATOM      6  C   UNL     1      52.839  15.065  20.840  0.00  0.00    +0.000 C 
BRANCH   6   5
ATOM      5  C   UNL     1      53.211  15.707  19.502  0.00  0.00    +0.000 C 
BRANCH   5   4
ATOM      4  C   UNL     1      54.734  15.807  19.390  0.00  0.00    -0.000 C 
BRANCH   4   3
ATOM      3  C   UNL     1      55.382  14.907  20.445  0.00  0.00    -0.000 C 
BRANCH   3   2
ATOM      1  C   UNL     1      56.221  12.733  19.541  0.00  0.00    +0.006 C 
ATOM      2  C   UNL     1      56.587  14.190  19.831  0.00  0.00    -0.006 C 
ENDBRANCH   3   2
ENDBRANCH   4   3
ENDBRANCH   5   4
ENDBRANCH   6   5
ENDBRANCH   7   6
ENDBRANCH   8   7
ENDBRANCH   9   8
ENDBRANCH  10   9
ENDBRANCH  11  10
ENDBRANCH  12  11
ENDBRANCH  13  12
ENDBRANCH  14  13
ENDBRANCH  15  14
ENDBRANCH  16  15
ENDBRANCH  17  16
ENDBRANCH  18  17
ENDBRANCH  19  18
ENDBRANCH  20  19
ENDBRANCH  21  20
ENDBRANCH  22  21
ENDBRANCH  23  22
ENDBRANCH  24  23
ENDBRANCH  25  24
ENDBRANCH  26  25
ENDBRANCH  27  26
BRANCH  27  28
ATOM     28  C   UNL     1      45.277  18.716  18.505  0.00  0.00    +0.000 C 
BRANCH  28  29
ATOM     29  C   UNL     1      45.044  17.467  19.357  0.00  0.00    +0.000 C 
BRANCH  29  30
ATOM     30  C   UNL     1      44.856  17.875  20.819  0.00  0.00    +0.000 C 
BRANCH  30  31
ATOM     31  C   UNL     1      44.272  16.701  21.605  0.00  0.00    +0.000 C 
BRANCH  31  32
ATOM     32  C   UNL     1      43.097  17.189  22.456  0.00  0.00    +0.000 C 
BRANCH  32  33
ATOM     33  C   UNL     1      42.582  18.518  21.900  0.00  0.00    +0.000 C 
BRANCH  33  34
ATOM     34  C   UNL     1      41.167  18.328  21.351  0.00  0.00    +0.000 C 
BRANCH  34  35
ATOM     35  C   UNL     1      40.768  19.557  20.533  0.00  0.00    +0.000 C 
BRANCH  35  36
ATOM     36  C   UNL     1      41.713  19.705  19.339  0.00  0.00    +0.000 C 
BRANCH  36  37
ATOM     37  C   UNL     1      41.337  20.956  18.542  0.00  0.00    +0.000 C 
BRANCH  37  38
ATOM     38  C   UNL     1      42.116  22.157  19.082  0.00  0.00    +0.000 C 
BRANCH  38  39
ATOM     39  C   UNL     1      43.520  21.708  19.497  0.00  0.00    +0.000 C 
BRANCH  39  40
ATOM     40  C   UNL     1      44.263  22.885  20.133  0.00  0.00    +0.000 C 
BRANCH  40  41
ATOM     41  C   UNL     1      45.025  22.399  21.368  0.00  0.00    -0.000 C 
BRANCH  41  42
ATOM     42  C   UNL     1      46.337  23.175  21.495  0.00  0.00    -0.000 C 
BRANCH  42  43
ATOM     43  C   UNL     1      47.512  22.195  21.480  0.00  0.00    +0.000 C 
BRANCH  43  44
ATOM     44  C   UNL     1      46.983  20.766  21.343  0.00  0.00    +0.000 C 
BRANCH  44  45
ATOM     45  C   UNL     1      48.057  19.884  20.703  0.00  0.00    +0.001 C 
BRANCH  45  46
ATOM     46  C   UNL     1      48.917  20.729  19.761  0.00  0.00    +0.003 C 
BRANCH  46  47
ATOM     47  C   UNL     1      50.396  20.507  20.083  0.00  0.00    +0.012 C 
BRANCH  47  48
ATOM     48  C   UNL     1      51.257  21.169  19.006  0.00  0.00    +0.064 C 
BRANCH  48  49
ATOM     49  C   UNL     1      51.693  20.133  18.003  0.00  0.00    +0.005 C 
ATOM     50  C   UNL     1      51.751  20.444  16.703  0.00  0.00    -0.026 C 
BRANCH  50  53
ATOM     53  C   UNL     1      52.175  19.434  15.726  0.00  0.00    +0.474 C 
ATOM     54  O   UNL     1      51.675  18.329  15.742  0.00  0.00    -0.458 OA
ENDBRANCH  50  53
BRANCH  50  51
ATOM     51  O   UNL     1      51.418  21.694  16.287  0.00  0.00    -0.473 OA
ATOM     52  H   UNL     1      51.344  22.341  17.003  0.00  0.00    +0.398 HD
ENDBRANCH  50  51
ENDBRANCH  48  49
ENDBRANCH  47  48
ENDBRANCH  46  47
ENDBRANCH  45  46
ENDBRANCH  44  45
ENDBRANCH  43  44
ENDBRANCH  42  43
ENDBRANCH  41  42
ENDBRANCH  40  41
ENDBRANCH  39  40
ENDBRANCH  38  39
ENDBRANCH  37  38
ENDBRANCH  36  37
ENDBRANCH  35  36
ENDBRANCH  34  35
ENDBRANCH  33  34
ENDBRANCH  32  33
ENDBRANCH  31  32
ENDBRANCH  30  31
ENDBRANCH  29  30
ENDBRANCH  28  29
ENDBRANCH  27  28
TORSDOF 49
ENDMDL
MODEL 4
REMARK VINA RESULT:      -3.5      2.119      7.982
REMARK  Name = ZINC95486098
REMARK  50 active torsions:
REMARK  status: ('A' for Active; 'I' for Inactive)
REMARK    1  A    between atoms: C1_1  and  C2_2
REMARK    2  A    between atoms: C2_2  and  C3_3
REMARK    3  A    between atoms: C3_3  and  C4_4
REMARK    4  A    between atoms: C4_4  and  C5_5
REMARK    5  A    between atoms: C5_5  and  C6_6
REMARK    6  A    between atoms: C6_6  and  C7_7
REMARK    7  A    between atoms: C7_7  and  C8_8
REMARK    8  A    between atoms: C8_8  and  C9_9
REMARK    9  A    between atoms: C9_9  and  C10_10
REMARK   10  A    between atoms: C10_10  and  C11_11
REMARK   11  A    between atoms: C11_11  and  C12_12
REMARK   12  A    between atoms: C12_12  and  C13_13
REMARK   13  A    between atoms: C13_13  and  C14_14
REMARK   14  A    between atoms: C14_14  and  C15_15
REMARK   15  A    between atoms: C15_15  and  C16_16
REMARK   16  A    between atoms: C16_16  and  C17_17
REMARK   17  A    between atoms: C17_17  and  C18_18
REMARK   18  A    between atoms: C18_18  and  C19_19
REMARK   19  A    between atoms: C19_19  and  C20_20
REMARK   20  A    between atoms: C20_20  and  C21_21
REMARK   21  A    between atoms: C21_21  and  C22_22
REMARK   22  A    between atoms: C22_22  and  C23_23
REMARK   23  A    between atoms: C23_23  and  C24_24
REMARK   24  A    between atoms: C24_24  and  C25_25
REMARK   25  A    between atoms: C25_25  and  C26_26
REMARK   26  A    between atoms: C26_26  and  C27_27
REMARK   27  A    between atoms: C27_27  and  C28_28
REMARK   28  A    between atoms: C28_28  and  C29_29
REMARK   29  A    between atoms: C29_29  and  C30_30
REMARK   30  A    between atoms: C30_30  and  C31_31
REMARK   31  A    between atoms: C31_31  and  C32_32
REMARK   32  A    between atoms: C32_32  and  C33_33
REMARK   33  A    between atoms: C33_33  and  C34_34
REMARK   34  A    between atoms: C34_34  and  C35_35
REMARK   35  A    between atoms: C35_35  and  C36_36
REMARK   36  A    between atoms: C36_36  and  C37_37
REMARK   37  A    between atoms: C37_37  and  C38_38
REMARK   38  A    between atoms: C38_38  and  C39_39
REMARK   39  A    between atoms: C39_39  and  C40_40
REMARK   40  A    between atoms: C40_40  and  C41_41
REMARK   41  A    between atoms: C41_41  and  C42_42
REMARK   42  A    between atoms: C42_42  and  C43_43
REMARK   43  A    between atoms: C43_43  and  C44_44
REMARK   44  A    between atoms: C44_44  and  C45_45
REMARK   45  A    between atoms: C45_45  and  C46_46
REMARK   46  A    between atoms: C46_46  and  C47_47
REMARK   47  A    between atoms: C47_47  and  C48_48
REMARK   48  A    between atoms: C48_48  and  C49_49
REMARK   49  A    between atoms: C50_50  and  C51_51
REMARK   50  A    between atoms: C50_50  and  O2_53
REMARK                            x       y       z     vdW  Elec       q    Type
REMARK                         _______ _______ _______ _____ _____    ______ ____
ROOT
ATOM     27  C   UNL     1      46.006  17.060  21.624  0.00  0.00    +0.000 C 
ENDROOT
BRANCH  27  26
ATOM     26  C   UNL     1      47.067  16.299  22.423  0.00  0.00    +0.000 C 
BRANCH  26  25
ATOM     25  C   UNL     1      47.485  15.045  21.652  0.00  0.00    +0.000 C 
BRANCH  25  24
ATOM     24  C   UNL     1      48.724  15.354  20.809  0.00  0.00    +0.000 C 
BRANCH  24  23
ATOM     23  C   UNL     1      49.981  14.988  21.599  0.00  0.00    +0.000 C 
BRANCH  23  22
ATOM     22  C   UNL     1      50.935  16.185  21.623  0.00  0.00    +0.000 C 
BRANCH  22  21
ATOM     21  C   UNL     1      50.321  17.341  20.830  0.00  0.00    +0.000 C 
BRANCH  21  20
ATOM     20  C   UNL     1      50.433  18.632  21.643  0.00  0.00    +0.000 C 
BRANCH  20  19
ATOM     19  C   UNL     1      49.065  19.315  21.707  0.00  0.00    +0.000 C 
BRANCH  19  18
ATOM     18  C   UNL     1      49.194  20.762  21.226  0.00  0.00    +0.000 C 
BRANCH  18  17
ATOM     17  C   UNL     1      50.338  20.864  20.216  0.00  0.00    +0.000 C 
BRANCH  17  16
ATOM     16  C   UNL     1      49.764  20.968  18.802  0.00  0.00    +0.000 C 
BRANCH  16  15
ATOM     15  C   UNL     1      50.908  20.976  17.786  0.00  0.00    +0.000 C 
BRANCH  15  14
ATOM     14  C   UNL     1      52.196  20.504  18.463  0.00  0.00    +0.000 C 
BRANCH  14  13
ATOM     13  C   UNL     1      52.581  19.125  17.922  0.00  0.00    +0.000 C 
BRANCH  13  12
ATOM     12  C   UNL     1      51.888  18.892  16.579  0.00  0.00    +0.000 C 
BRANCH  12  11
ATOM     11  C   UNL     1      51.416  17.440  16.493  0.00  0.00    +0.000 C 
BRANCH  11  10
ATOM     10  C   UNL     1      51.879  16.678  17.737  0.00  0.00    +0.000 C 
BRANCH  10   9
ATOM      9  C   UNL     1      51.066  15.389  17.877  0.00  0.00    +0.000 C 
BRANCH   9   8
ATOM      8  C   UNL     1      50.621  14.914  16.492  0.00  0.00    +0.000 C 
BRANCH   8   7
ATOM      7  C   UNL     1      51.251  13.551  16.194  0.00  0.00    +0.000 C 
BRANCH   7   6
ATOM      6  C   UNL     1      51.540  13.440  14.696  0.00  0.00    +0.000 C 
BRANCH   6   5
ATOM      5  C   UNL     1      51.021  12.098  14.176  0.00  0.00    +0.000 C 
BRANCH   5   4
ATOM      4  C   UNL     1      50.631  11.209  15.359  0.00  0.00    -0.000 C 
BRANCH   4   3
ATOM      3  C   UNL     1      49.244  10.613  15.113  0.00  0.00    -0.000 C 
BRANCH   3   2
ATOM      1  C   UNL     1      46.831  11.248  14.971  0.00  0.00    +0.006 C 
ATOM      2  C   UNL     1      48.265  11.731  14.747  0.00  0.00    -0.006 C 
ENDBRANCH   3   2
ENDBRANCH   4   3
ENDBRANCH   5   4
ENDBRANCH   6   5
ENDBRANCH   7   6
ENDBRANCH   8   7
ENDBRANCH   9   8
ENDBRANCH  10   9
ENDBRANCH  11  10
ENDBRANCH  12  11
ENDBRANCH  13  12
ENDBRANCH  14  13
ENDBRANCH  15  14
ENDBRANCH  16  15
ENDBRANCH  17  16
ENDBRANCH  18  17
ENDBRANCH  19  18
ENDBRANCH  20  19
ENDBRANCH  21  20
ENDBRANCH  22  21
ENDBRANCH  23  22
ENDBRANCH  24  23
ENDBRANCH  25  24
ENDBRANCH  26  25
ENDBRANCH  27  26
BRANCH  27  28
ATOM     28  C   UNL     1      44.817  16.137  21.349  0.00  0.00    +0.000 C 
BRANCH  28  29
ATOM     29  C   UNL     1      43.592  16.644  22.114  0.00  0.00    +0.000 C 
BRANCH  29  30
ATOM     30  C   UNL     1      43.693  18.159  22.294  0.00  0.00    +0.000 C 
BRANCH  30  31
ATOM     31  C   UNL     1      42.528  18.838  21.573  0.00  0.00    +0.000 C 
BRANCH  31  32
ATOM     32  C   UNL     1      42.825  18.904  20.073  0.00  0.00    +0.000 C 
BRANCH  32  33
ATOM     33  C   UNL     1      42.811  20.363  19.613  0.00  0.00    +0.000 C 
BRANCH  33  34
ATOM     34  C   UNL     1      44.095  21.056  20.075  0.00  0.00    +0.000 C 
BRANCH  34  35
ATOM     35  C   UNL     1      45.135  21.003  18.955  0.00  0.00    +0.000 C 
BRANCH  35  36
ATOM     36  C   UNL     1      46.239  20.013  19.329  0.00  0.00    +0.000 C 
BRANCH  36  37
ATOM     37  C   UNL     1      46.307  18.904  18.276  0.00  0.00    +0.000 C 
BRANCH  37  38
ATOM     38  C   UNL     1      47.559  18.055  18.511  0.00  0.00    +0.000 C 
BRANCH  38  39
ATOM     39  C   UNL     1      47.862  17.236  17.255  0.00  0.00    +0.000 C 
BRANCH  39  40
ATOM     40  C   UNL     1      46.656  16.360  16.914  0.00  0.00    +0.000 C 
BRANCH  40  41
ATOM     41  C   UNL     1      46.468  15.303  18.005  0.00  0.00    -0.000 C 
BRANCH  41  42
ATOM     42  C   UNL     1      47.186  14.016  17.597  0.00  0.00    -0.000 C 
BRANCH  42  43
ATOM     43  C   UNL     1      46.986  12.955  18.682  0.00  0.00    +0.000 C 
BRANCH  43  44
ATOM     44  C   UNL     1      47.912  11.768  18.410  0.00  0.00    +0.000 C 
BRANCH  44  45
ATOM     45  C   UNL     1      49.314  12.085  18.935  0.00  0.00    +0.001 C 
BRANCH  45  46
ATOM     46  C   UNL     1      50.078  10.779  19.171  0.00  0.00    +0.003 C 
BRANCH  46  47
ATOM     47  C   UNL     1      51.579  11.034  19.030  0.00  0.00    +0.012 C 
BRANCH  47  48
ATOM     48  C   UNL     1      51.919  12.412  19.599  0.00  0.00    +0.064 C 
BRANCH  48  49
ATOM     49  C   UNL     1      53.313  12.800  19.179  0.00  0.00    +0.005 C 
ATOM     50  C   UNL     1      54.189  13.237  20.091  0.00  0.00    -0.026 C 
BRANCH  50  53
ATOM     53  C   UNL     1      55.547  13.616  19.683  0.00  0.00    +0.474 C 
ATOM     54  O   UNL     1      56.394  12.761  19.530  0.00  0.00    -0.458 OA
ENDBRANCH  50  53
BRANCH  50  51
ATOM     51  O   UNL     1      53.822  13.329  21.397  0.00  0.00    -0.473 OA
ATOM     52  H   UNL     1      54.565  13.365  22.014  0.00  0.00    +0.398 HD
ENDBRANCH  50  51
ENDBRANCH  48  49
ENDBRANCH  47  48
ENDBRANCH  46  47
ENDBRANCH  45  46
ENDBRANCH  44  45
ENDBRANCH  43  44
ENDBRANCH  42  43
ENDBRANCH  41  42
ENDBRANCH  40  41
ENDBRANCH  39  40
ENDBRANCH  38  39
ENDBRANCH  37  38
ENDBRANCH  36  37
ENDBRANCH  35  36
ENDBRANCH  34  35
ENDBRANCH  33  34
ENDBRANCH  32  33
ENDBRANCH  31  32
ENDBRANCH  30  31
ENDBRANCH  29  30
ENDBRANCH  28  29
ENDBRANCH  27  28
TORSDOF 49
ENDMDL
MODEL 5
REMARK VINA RESULT:      -3.4      1.993      9.717
REMARK  Name = ZINC95486098
REMARK  50 active torsions:
REMARK  status: ('A' for Active; 'I' for Inactive)
REMARK    1  A    between atoms: C1_1  and  C2_2
REMARK    2  A    between atoms: C2_2  and  C3_3
REMARK    3  A    between atoms: C3_3  and  C4_4
REMARK    4  A    between atoms: C4_4  and  C5_5
REMARK    5  A    between atoms: C5_5  and  C6_6
REMARK    6  A    between atoms: C6_6  and  C7_7
REMARK    7  A    between atoms: C7_7  and  C8_8
REMARK    8  A    between atoms: C8_8  and  C9_9
REMARK    9  A    between atoms: C9_9  and  C10_10
REMARK   10  A    between atoms: C10_10  and  C11_11
REMARK   11  A    between atoms: C11_11  and  C12_12
REMARK   12  A    between atoms: C12_12  and  C13_13
REMARK   13  A    between atoms: C13_13  and  C14_14
REMARK   14  A    between atoms: C14_14  and  C15_15
REMARK   15  A    between atoms: C15_15  and  C16_16
REMARK   16  A    between atoms: C16_16  and  C17_17
REMARK   17  A    between atoms: C17_17  and  C18_18
REMARK   18  A    between atoms: C18_18  and  C19_19
REMARK   19  A    between atoms: C19_19  and  C20_20
REMARK   20  A    between atoms: C20_20  and  C21_21
REMARK   21  A    between atoms: C21_21  and  C22_22
REMARK   22  A    between atoms: C22_22  and  C23_23
REMARK   23  A    between atoms: C23_23  and  C24_24
REMARK   24  A    between atoms: C24_24  and  C25_25
REMARK   25  A    between atoms: C25_25  and  C26_26
REMARK   26  A    between atoms: C26_26  and  C27_27
REMARK   27  A    between atoms: C27_27  and  C28_28
REMARK   28  A    between atoms: C28_28  and  C29_29
REMARK   29  A    between atoms: C29_29  and  C30_30
REMARK   30  A    between atoms: C30_30  and  C31_31
REMARK   31  A    between atoms: C31_31  and  C32_32
REMARK   32  A    between atoms: C32_32  and  C33_33
REMARK   33  A    between atoms: C33_33  and  C34_34
REMARK   34  A    between atoms: C34_34  and  C35_35
REMARK   35  A    between atoms: C35_35  and  C36_36
REMARK   36  A    between atoms: C36_36  and  C37_37
REMARK   37  A    between atoms: C37_37  and  C38_38
REMARK   38  A    between atoms: C38_38  and  C39_39
REMARK   39  A    between atoms: C39_39  and  C40_40
REMARK   40  A    between atoms: C40_40  and  C41_41
REMARK   41  A    between atoms: C41_41  and  C42_42
REMARK   42  A    between atoms: C42_42  and  C43_43
REMARK   43  A    between atoms: C43_43  and  C44_44
REMARK   44  A    between atoms: C44_44  and  C45_45
REMARK   45  A    between atoms: C45_45  and  C46_46
REMARK   46  A    between atoms: C46_46  and  C47_47
REMARK   47  A    between atoms: C47_47  and  C48_48
REMARK   48  A    between atoms: C48_48  and  C49_49
REMARK   49  A    between atoms: C50_50  and  C51_51
REMARK   50  A    between atoms: C50_50  and  O2_53
REMARK                            x       y       z     vdW  Elec       q    Type
REMARK                         _______ _______ _______ _____ _____    ______ ____
ROOT
ATOM     27  C   UNL     1      47.001  18.036  18.597  0.00  0.00    +0.000 C 
ENDROOT
BRANCH  27  26
ATOM     26  C   UNL     1      47.612  17.531  17.288  0.00  0.00    +0.000 C 
BRANCH  26  25
ATOM     25  C   UNL     1      48.129  16.104  17.484  0.00  0.00    +0.000 C 
BRANCH  25  24
ATOM     24  C   UNL     1      49.652  16.090  17.339  0.00  0.00    +0.000 C 
BRANCH  24  23
ATOM     23  C   UNL     1      50.291  16.626  18.620  0.00  0.00    +0.000 C 
BRANCH  23  22
ATOM     22  C   UNL     1      51.811  16.462  18.539  0.00  0.00    +0.000 C 
BRANCH  22  21
ATOM     21  C   UNL     1      52.302  15.659  19.745  0.00  0.00    +0.000 C 
BRANCH  21  20
ATOM     20  C   UNL     1      52.627  14.229  19.307  0.00  0.00    +0.000 C 
BRANCH  20  19
ATOM     19  C   UNL     1      52.417  13.275  20.484  0.00  0.00    +0.000 C 
BRANCH  19  18
ATOM     18  C   UNL     1      52.965  11.892  20.124  0.00  0.00    +0.000 C 
BRANCH  18  17
ATOM     17  C   UNL     1      53.750  11.980  18.815  0.00  0.00    +0.000 C 
BRANCH  17  16
ATOM     16  C   UNL     1      53.412  10.776  17.934  0.00  0.00    +0.000 C 
BRANCH  16  15
ATOM     15  C   UNL     1      52.576  11.238  16.738  0.00  0.00    +0.000 C 
BRANCH  15  14
ATOM     14  C   UNL     1      51.090  11.082  17.063  0.00  0.00    +0.000 C 
BRANCH  14  13
ATOM     13  C   UNL     1      50.418  12.457  17.049  0.00  0.00    +0.000 C 
BRANCH  13  12
ATOM     12  C   UNL     1      50.725  13.162  15.726  0.00  0.00    +0.000 C 
BRANCH  12  11
ATOM     11  C   UNL     1      49.817  12.605  14.629  0.00  0.00    +0.000 C 
BRANCH  11  10
ATOM     10  C   UNL     1      48.354  12.878  14.990  0.00  0.00    +0.000 C 
BRANCH  10   9
ATOM      9  C   UNL     1      47.574  11.562  14.983  0.00  0.00    +0.000 C 
BRANCH   9   8
ATOM      8  C   UNL     1      46.895  11.365  16.340  0.00  0.00    +0.000 C 
BRANCH   8   7
ATOM      7  C   UNL     1      46.247  12.679  16.781  0.00  0.00    +0.000 C 
BRANCH   7   6
ATOM      6  C   UNL     1      46.533  12.915  18.266  0.00  0.00    +0.000 C 
BRANCH   6   5
ATOM      5  C   UNL     1      45.219  13.181  19.002  0.00  0.00    +0.000 C 
BRANCH   5   4
ATOM      4  C   UNL     1      45.373  14.419  19.889  0.00  0.00    -0.000 C 
BRANCH   4   3
ATOM      3  C   UNL     1      46.358  14.115  21.020  0.00  0.00    -0.000 C 
BRANCH   3   2
ATOM      1  C   UNL     1      48.841  14.390  21.098  0.00  0.00    +0.006 C 
ATOM      2  C   UNL     1      47.505  15.128  20.982  0.00  0.00    -0.006 C 
ENDBRANCH   3   2
ENDBRANCH   4   3
ENDBRANCH   5   4
ENDBRANCH   6   5
ENDBRANCH   7   6
ENDBRANCH   8   7
ENDBRANCH   9   8
ENDBRANCH  10   9
ENDBRANCH  11  10
ENDBRANCH  12  11
ENDBRANCH  13  12
ENDBRANCH  14  13
ENDBRANCH  15  14
ENDBRANCH  16  15
ENDBRANCH  17  16
ENDBRANCH  18  17
ENDBRANCH  19  18
ENDBRANCH  20  19
ENDBRANCH  21  20
ENDBRANCH  22  21
ENDBRANCH  23  22
ENDBRANCH  24  23
ENDBRANCH  25  24
ENDBRANCH  26  25
ENDBRANCH  27  26
BRANCH  27  28
ATOM     28  C   UNL     1      45.525  18.371  18.374  0.00  0.00    +0.000 C 
BRANCH  28  29
ATOM     29  C   UNL     1      44.688  17.767  19.505  0.00  0.00    +0.000 C 
BRANCH  29  30
ATOM     30  C   UNL     1      45.075  18.422  20.832  0.00  0.00    +0.000 C 
BRANCH  30  31
ATOM     31  C   UNL     1      44.794  17.453  21.980  0.00  0.00    +0.000 C 
BRANCH  31  32
ATOM     32  C   UNL     1      43.283  17.301  22.163  0.00  0.00    +0.000 C 
BRANCH  32  33
ATOM     33  C   UNL     1      42.619  18.678  22.095  0.00  0.00    +0.000 C 
BRANCH  33  34
ATOM     34  C   UNL     1      41.219  18.540  21.493  0.00  0.00    +0.000 C 
BRANCH  34  35
ATOM     35  C   UNL     1      40.960  19.702  20.532  0.00  0.00    +0.000 C 
BRANCH  35  36
ATOM     36  C   UNL     1      41.342  19.285  19.112  0.00  0.00    +0.000 C 
BRANCH  36  37
ATOM     37  C   UNL     1      41.835  20.508  18.336  0.00  0.00    +0.000 C 
BRANCH  37  38
ATOM     38  C   UNL     1      42.326  21.572  19.320  0.00  0.00    +0.000 C 
BRANCH  38  39
ATOM     39  C   UNL     1      43.854  21.532  19.394  0.00  0.00    +0.000 C 
BRANCH  39  40
ATOM     40  C   UNL     1      44.309  21.989  20.782  0.00  0.00    +0.000 C 
BRANCH  40  41
ATOM     41  C   UNL     1      45.808  22.296  20.752  0.00  0.00    -0.000 C 
BRANCH  41  42
ATOM     42  C   UNL     1      46.490  21.623  21.943  0.00  0.00    -0.000 C 
BRANCH  42  43
ATOM     43  C   UNL     1      47.825  22.316  22.224  0.00  0.00    +0.000 C 
BRANCH  43  44
ATOM     44  C   UNL     1      48.961  21.296  22.116  0.00  0.00    +0.000 C 
BRANCH  44  45
ATOM     45  C   UNL     1      48.617  20.261  21.042  0.00  0.00    +0.001 C 
BRANCH  45  46
ATOM     46  C   UNL     1      49.290  20.650  19.724  0.00  0.00    +0.003 C 
BRANCH  46  47
ATOM     47  C   UNL     1      50.809  20.620  19.899  0.00  0.00    +0.012 C 
BRANCH  47  48
ATOM     48  C   UNL     1      51.476  21.241  18.671  0.00  0.00    +0.064 C 
BRANCH  48  49
ATOM     49  C   UNL     1      51.716  20.174  17.634  0.00  0.00    +0.005 C 
ATOM     50  C   UNL     1      51.899  20.515  16.354  0.00  0.00    -0.026 C 
BRANCH  50  53
ATOM     53  C   UNL     1      52.131  19.475  15.344  0.00  0.00    +0.474 C 
ATOM     54  O   UNL     1      51.925  18.311  15.616  0.00  0.00    -0.458 OA
ENDBRANCH  50  53
BRANCH  50  51
ATOM     51  O   UNL     1      51.871  21.824  15.988  0.00  0.00    -0.473 OA
ATOM     52  H   UNL     1      52.411  22.027  15.211  0.00  0.00    +0.398 HD
ENDBRANCH  50  51
ENDBRANCH  48  49
ENDBRANCH  47  48
ENDBRANCH  46  47
ENDBRANCH  45  46
ENDBRANCH  44  45
ENDBRANCH  43  44
ENDBRANCH  42  43
ENDBRANCH  41  42
ENDBRANCH  40  41
ENDBRANCH  39  40
ENDBRANCH  38  39
ENDBRANCH  37  38
ENDBRANCH  36  37
ENDBRANCH  35  36
ENDBRANCH  34  35
ENDBRANCH  33  34
ENDBRANCH  32  33
ENDBRANCH  31  32
ENDBRANCH  30  31
ENDBRANCH  29  30
ENDBRANCH  28  29
ENDBRANCH  27  28
TORSDOF 49
ENDMDL
MODEL 6
REMARK VINA RESULT:      -3.2      1.630      8.603
REMARK  Name = ZINC95486098
REMARK  50 active torsions:
REMARK  status: ('A' for Active; 'I' for Inactive)
REMARK    1  A    between atoms: C1_1  and  C2_2
REMARK    2  A    between atoms: C2_2  and  C3_3
REMARK    3  A    between atoms: C3_3  and  C4_4
REMARK    4  A    between atoms: C4_4  and  C5_5
REMARK    5  A    between atoms: C5_5  and  C6_6
REMARK    6  A    between atoms: C6_6  and  C7_7
REMARK    7  A    between atoms: C7_7  and  C8_8
REMARK    8  A    between atoms: C8_8  and  C9_9
REMARK    9  A    between atoms: C9_9  and  C10_10
REMARK   10  A    between atoms: C10_10  and  C11_11
REMARK   11  A    between atoms: C11_11  and  C12_12
REMARK   12  A    between atoms: C12_12  and  C13_13
REMARK   13  A    between atoms: C13_13  and  C14_14
REMARK   14  A    between atoms: C14_14  and  C15_15
REMARK   15  A    between atoms: C15_15  and  C16_16
REMARK   16  A    between atoms: C16_16  and  C17_17
REMARK   17  A    between atoms: C17_17  and  C18_18
REMARK   18  A    between atoms: C18_18  and  C19_19
REMARK   19  A    between atoms: C19_19  and  C20_20
REMARK   20  A    between atoms: C20_20  and  C21_21
REMARK   21  A    between atoms: C21_21  and  C22_22
REMARK   22  A    between atoms: C22_22  and  C23_23
REMARK   23  A    between atoms: C23_23  and  C24_24
REMARK   24  A    between atoms: C24_24  and  C25_25
REMARK   25  A    between atoms: C25_25  and  C26_26
REMARK   26  A    between atoms: C26_26  and  C27_27
REMARK   27  A    between atoms: C27_27  and  C28_28
REMARK   28  A    between atoms: C28_28  and  C29_29
REMARK   29  A    between atoms: C29_29  and  C30_30
REMARK   30  A    between atoms: C30_30  and  C31_31
REMARK   31  A    between atoms: C31_31  and  C32_32
REMARK   32  A    between atoms: C32_32  and  C33_33
REMARK   33  A    between atoms: C33_33  and  C34_34
REMARK   34  A    between atoms: C34_34  and  C35_35
REMARK   35  A    between atoms: C35_35  and  C36_36
REMARK   36  A    between atoms: C36_36  and  C37_37
REMARK   37  A    between atoms: C37_37  and  C38_38
REMARK   38  A    between atoms: C38_38  and  C39_39
REMARK   39  A    between atoms: C39_39  and  C40_40
REMARK   40  A    between atoms: C40_40  and  C41_41
REMARK   41  A    between atoms: C41_41  and  C42_42
REMARK   42  A    between atoms: C42_42  and  C43_43
REMARK   43  A    between atoms: C43_43  and  C44_44
REMARK   44  A    between atoms: C44_44  and  C45_45
REMARK   45  A    between atoms: C45_45  and  C46_46
REMARK   46  A    between atoms: C46_46  and  C47_47
REMARK   47  A    between atoms: C47_47  and  C48_48
REMARK   48  A    between atoms: C48_48  and  C49_49
REMARK   49  A    between atoms: C50_50  and  C51_51
REMARK   50  A    between atoms: C50_50  and  O2_53
REMARK                            x       y       z     vdW  Elec       q    Type
REMARK                         _______ _______ _______ _____ _____    ______ ____
ROOT
ATOM     27  C   UNL     1      47.760  20.453  19.705  0.00  0.00    +0.000 C 
ENDROOT
BRANCH  27  26
ATOM     26  C   UNL     1      48.242  19.327  18.787  0.00  0.00    +0.000 C 
BRANCH  26  25
ATOM     25  C   UNL     1      48.990  18.280  19.615  0.00  0.00    +0.000 C 
BRANCH  25  24
ATOM     24  C   UNL     1      48.777  16.896  18.999  0.00  0.00    +0.000 C 
BRANCH  24  23
ATOM     23  C   UNL     1      49.047  15.822  20.054  0.00  0.00    +0.000 C 
BRANCH  23  22
ATOM     22  C   UNL     1      48.918  16.437  21.450  0.00  0.00    +0.000 C 
BRANCH  22  21
ATOM     21  C   UNL     1      49.090  15.342  22.505  0.00  0.00    +0.000 C 
BRANCH  21  20
ATOM     20  C   UNL     1      50.489  14.733  22.386  0.00  0.00    +0.000 C 
BRANCH  20  19
ATOM     19  C   UNL     1      50.370  13.244  22.055  0.00  0.00    +0.000 C 
BRANCH  19  18
ATOM     18  C   UNL     1      51.207  12.930  20.813  0.00  0.00    +0.000 C 
BRANCH  18  17
ATOM     17  C   UNL     1      50.525  11.826  20.004  0.00  0.00    +0.000 C 
BRANCH  17  16
ATOM     16  C   UNL     1      50.563  12.184  18.517  0.00  0.00    +0.000 C 
BRANCH  16  15
ATOM     15  C   UNL     1      51.105  13.605  18.348  0.00  0.00    +0.000 C 
BRANCH  15  14
ATOM     14  C   UNL     1      50.405  14.281  17.168  0.00  0.00    +0.000 C 
BRANCH  14  13
ATOM     13  C   UNL     1      51.394  14.443  16.012  0.00  0.00    +0.000 C 
BRANCH  13  12
ATOM     12  C   UNL     1      52.070  15.811  16.107  0.00  0.00    +0.000 C 
BRANCH  12  11
ATOM     11  C   UNL     1      51.076  16.835  16.659  0.00  0.00    +0.000 C 
BRANCH  11  10
ATOM     10  C   UNL     1      51.820  18.121  17.027  0.00  0.00    +0.000 C 
BRANCH  10   9
ATOM      9  C   UNL     1      51.630  19.156  15.916  0.00  0.00    +0.000 C 
BRANCH   9   8
ATOM      8  C   UNL     1      51.956  20.550  16.457  0.00  0.00    +0.000 C 
BRANCH   8   7
ATOM      7  C   UNL     1      52.297  20.452  17.945  0.00  0.00    +0.000 C 
BRANCH   7   6
ATOM      6  C   UNL     1      51.268  21.241  18.757  0.00  0.00    +0.000 C 
BRANCH   6   5
ATOM      5  C   UNL     1      51.763  21.396  20.196  0.00  0.00    +0.000 C 
BRANCH   5   4
ATOM      4  C   UNL     1      52.531  20.138  20.608  0.00  0.00    -0.000 C 
BRANCH   4   3
ATOM      3  C   UNL     1      51.792  19.442  21.753  0.00  0.00    -0.000 C 
BRANCH   3   2
ATOM      1  C   UNL     1      52.429  17.388  20.479  0.00  0.00    +0.006 C 
ATOM      2  C   UNL     1      52.286  17.998  21.875  0.00  0.00    -0.006 C 
ENDBRANCH   3   2
ENDBRANCH   4   3
ENDBRANCH   5   4
ENDBRANCH   6   5
ENDBRANCH   7   6
ENDBRANCH   8   7
ENDBRANCH   9   8
ENDBRANCH  10   9
ENDBRANCH  11  10
ENDBRANCH  12  11
ENDBRANCH  13  12
ENDBRANCH  14  13
ENDBRANCH  15  14
ENDBRANCH  16  15
ENDBRANCH  17  16
ENDBRANCH  18  17
ENDBRANCH  19  18
ENDBRANCH  20  19
ENDBRANCH  21  20
ENDBRANCH  22  21
ENDBRANCH  23  22
ENDBRANCH  24  23
ENDBRANCH  25  24
ENDBRANCH  26  25
ENDBRANCH  27  26
BRANCH  27  28
ATOM     28  C   UNL     1      48.306  20.229  21.117  0.00  0.00    +0.000 C 
BRANCH  28  29
ATOM     29  C   UNL     1      48.373  21.568  21.855  0.00  0.00    +0.000 C 
BRANCH  29  30
ATOM     30  C   UNL     1      46.967  21.983  22.289  0.00  0.00    +0.000 C 
BRANCH  30  31
ATOM     31  C   UNL     1      46.619  23.336  21.666  0.00  0.00    +0.000 C 
BRANCH  31  32
ATOM     32  C   UNL     1      45.127  23.374  21.329  0.00  0.00    +0.000 C 
BRANCH  32  33
ATOM     33  C   UNL     1      44.948  23.594  19.826  0.00  0.00    +0.000 C 
BRANCH  33  34
ATOM     34  C   UNL     1      45.024  22.249  19.100  0.00  0.00    +0.000 C 
BRANCH  34  35
ATOM     35  C   UNL     1      44.130  21.233  19.813  0.00  0.00    +0.000 C 
BRANCH  35  36
ATOM     36  C   UNL     1      42.672  21.471  19.417  0.00  0.00    +0.000 C 
BRANCH  36  37
ATOM     37  C   UNL     1      42.010  20.133  19.081  0.00  0.00    +0.000 C 
BRANCH  37  38
ATOM     38  C   UNL     1      40.856  19.876  20.053  0.00  0.00    +0.000 C 
BRANCH  38  39
ATOM     39  C   UNL     1      41.121  18.584  20.828  0.00  0.00    +0.000 C 
BRANCH  39  40
ATOM     40  C   UNL     1      42.030  18.883  22.022  0.00  0.00    +0.000 C 
BRANCH  40  41
ATOM     41  C   UNL     1      43.134  17.826  22.100  0.00  0.00    -0.000 C 
BRANCH  41  42
ATOM     42  C   UNL     1      44.487  18.515  22.285  0.00  0.00    -0.000 C 
BRANCH  42  43
ATOM     43  C   UNL     1      45.467  18.007  21.224  0.00  0.00    +0.000 C 
BRANCH  43  44
ATOM     44  C   UNL     1      44.695  17.621  19.960  0.00  0.00    +0.000 C 
BRANCH  44  45
ATOM     45  C   UNL     1      45.371  16.418  19.298  0.00  0.00    +0.001 C 
BRANCH  45  46
ATOM     46  C   UNL     1      45.491  15.279  20.313  0.00  0.00    +0.003 C 
BRANCH  46  47
ATOM     47  C   UNL     1      45.242  13.943  19.611  0.00  0.00    +0.012 C 
BRANCH  47  48
ATOM     48  C   UNL     1      46.561  13.180  19.483  0.00  0.00    +0.064 C 
BRANCH  48  49
ATOM     49  C   UNL     1      47.142  13.406  18.111  0.00  0.00    +0.005 C 
ATOM     50  C   UNL     1      46.793  12.607  17.097  0.00  0.00    -0.026 C 
BRANCH  50  53
ATOM     53  C   UNL     1      47.360  12.827  15.761  0.00  0.00    +0.474 C 
ATOM     54  O   UNL     1      48.071  11.982  15.259  0.00  0.00    -0.458 OA
ENDBRANCH  50  53
BRANCH  50  51
ATOM     51  O   UNL     1      45.913  11.592  17.303  0.00  0.00    -0.473 OA
ATOM     52  H   UNL     1      45.088  11.865  17.729  0.00  0.00    +0.398 HD
ENDBRANCH  50  51
ENDBRANCH  48  49
ENDBRANCH  47  48
ENDBRANCH  46  47
ENDBRANCH  45  46
ENDBRANCH  44  45
ENDBRANCH  43  44
ENDBRANCH  42  43
ENDBRANCH  41  42
ENDBRANCH  40  41
ENDBRANCH  39  40
ENDBRANCH  38  39
ENDBRANCH  37  38
ENDBRANCH  36  37
ENDBRANCH  35  36
ENDBRANCH  34  35
ENDBRANCH  33  34
ENDBRANCH  32  33
ENDBRANCH  31  32
ENDBRANCH  30  31
ENDBRANCH  29  30
ENDBRANCH  28  29
ENDBRANCH  27  28
TORSDOF 49
ENDMDL
MODEL 7
REMARK VINA RESULT:      -3.0      1.509      5.601
REMARK  Name = ZINC95486098
REMARK  50 active torsions:
REMARK  status: ('A' for Active; 'I' for Inactive)
REMARK    1  A    between atoms: C1_1  and  C2_2
REMARK    2  A    between atoms: C2_2  and  C3_3
REMARK    3  A    between atoms: C3_3  and  C4_4
REMARK    4  A    between atoms: C4_4  and  C5_5
REMARK    5  A    between atoms: C5_5  and  C6_6
REMARK    6  A    between atoms: C6_6  and  C7_7
REMARK    7  A    between atoms: C7_7  and  C8_8
REMARK    8  A    between atoms: C8_8  and  C9_9
REMARK    9  A    between atoms: C9_9  and  C10_10
REMARK   10  A    between atoms: C10_10  and  C11_11
REMARK   11  A    between atoms: C11_11  and  C12_12
REMARK   12  A    between atoms: C12_12  and  C13_13
REMARK   13  A    between atoms: C13_13  and  C14_14
REMARK   14  A    between atoms: C14_14  and  C15_15
REMARK   15  A    between atoms: C15_15  and  C16_16
REMARK   16  A    between atoms: C16_16  and  C17_17
REMARK   17  A    between atoms: C17_17  and  C18_18
REMARK   18  A    between atoms: C18_18  and  C19_19
REMARK   19  A    between atoms: C19_19  and  C20_20
REMARK   20  A    between atoms: C20_20  and  C21_21
REMARK   21  A    between atoms: C21_21  and  C22_22
REMARK   22  A    between atoms: C22_22  and  C23_23
REMARK   23  A    between atoms: C23_23  and  C24_24
REMARK   24  A    between atoms: C24_24  and  C25_25
REMARK   25  A    between atoms: C25_25  and  C26_26
REMARK   26  A    between atoms: C26_26  and  C27_27
REMARK   27  A    between atoms: C27_27  and  C28_28
REMARK   28  A    between atoms: C28_28  and  C29_29
REMARK   29  A    between atoms: C29_29  and  C30_30
REMARK   30  A    between atoms: C30_30  and  C31_31
REMARK   31  A    between atoms: C31_31  and  C32_32
REMARK   32  A    between atoms: C32_32  and  C33_33
REMARK   33  A    between atoms: C33_33  and  C34_34
REMARK   34  A    between atoms: C34_34  and  C35_35
REMARK   35  A    between atoms: C35_35  and  C36_36
REMARK   36  A    between atoms: C36_36  and  C37_37
REMARK   37  A    between atoms: C37_37  and  C38_38
REMARK   38  A    between atoms: C38_38  and  C39_39
REMARK   39  A    between atoms: C39_39  and  C40_40
REMARK   40  A    between atoms: C40_40  and  C41_41
REMARK   41  A    between atoms: C41_41  and  C42_42
REMARK   42  A    between atoms: C42_42  and  C43_43
REMARK   43  A    between atoms: C43_43  and  C44_44
REMARK   44  A    between atoms: C44_44  and  C45_45
REMARK   45  A    between atoms: C45_45  and  C46_46
REMARK   46  A    between atoms: C46_46  and  C47_47
REMARK   47  A    between atoms: C47_47  and  C48_48
REMARK   48  A    between atoms: C48_48  and  C49_49
REMARK   49  A    between atoms: C50_50  and  C51_51
REMARK   50  A    between atoms: C50_50  and  O2_53
REMARK                            x       y       z     vdW  Elec       q    Type
REMARK                         _______ _______ _______ _____ _____    ______ ____
ROOT
ATOM     27  C   UNL     1      50.366  18.872  17.861  0.00  0.00    +0.000 C 
ENDROOT
BRANCH  27  26
ATOM     26  C   UNL     1      50.370  17.736  16.836  0.00  0.00    +0.000 C 
BRANCH  26  25
ATOM     25  C   UNL     1      49.337  16.681  17.239  0.00  0.00    +0.000 C 
BRANCH  25  24
ATOM     24  C   UNL     1      49.641  16.185  18.654  0.00  0.00    +0.000 C 
BRANCH  24  23
ATOM     23  C   UNL     1      50.548  14.956  18.578  0.00  0.00    +0.000 C 
BRANCH  23  22
ATOM     22  C   UNL     1      50.089  13.920  19.607  0.00  0.00    +0.000 C 
BRANCH  22  21
ATOM     21  C   UNL     1      49.323  12.802  18.897  0.00  0.00    +0.000 C 
BRANCH  21  20
ATOM     20  C   UNL     1      48.325  12.170  19.871  0.00  0.00    +0.000 C 
BRANCH  20  19
ATOM     19  C   UNL     1      48.277  12.996  21.158  0.00  0.00    +0.000 C 
BRANCH  19  18
ATOM     18  C   UNL     1      46.827  13.382  21.462  0.00  0.00    +0.000 C 
BRANCH  18  17
ATOM     17  C   UNL     1      46.738  14.892  21.688  0.00  0.00    +0.000 C 
BRANCH  17  16
ATOM     16  C   UNL     1      46.800  15.614  20.341  0.00  0.00    +0.000 C 
BRANCH  16  15
ATOM     15  C   UNL     1      45.380  15.883  19.840  0.00  0.00    +0.000 C 
BRANCH  15  14
ATOM     14  C   UNL     1      45.203  17.382  19.589  0.00  0.00    +0.000 C 
BRANCH  14  13
ATOM     13  C   UNL     1      46.553  18.086  19.732  0.00  0.00    +0.000 C 
BRANCH  13  12
ATOM     12  C   UNL     1      46.685  19.161  18.651  0.00  0.00    +0.000 C 
BRANCH  12  11
ATOM     11  C   UNL     1      47.488  20.341  19.200  0.00  0.00    +0.000 C 
BRANCH  11  10
ATOM     10  C   UNL     1      48.176  19.928  20.504  0.00  0.00    +0.000 C 
BRANCH  10   9
ATOM      9  C   UNL     1      47.941  21.003  21.567  0.00  0.00    +0.000 C 
BRANCH   9   8
ATOM      8  C   UNL     1      47.001  22.075  21.009  0.00  0.00    +0.000 C 
BRANCH   8   7
ATOM      7  C   UNL     1      46.016  22.505  22.099  0.00  0.00    +0.000 C 
BRANCH   7   6
ATOM      6  C   UNL     1      44.590  22.449  21.547  0.00  0.00    +0.000 C 
BRANCH   6   5
ATOM      5  C   UNL     1      44.403  21.157  20.750  0.00  0.00    +0.000 C 
BRANCH   5   4
ATOM      4  C   UNL     1      43.699  21.472  19.428  0.00  0.00    -0.000 C 
BRANCH   4   3
ATOM      3  C   UNL     1      42.939  20.233  18.948  0.00  0.00    -0.000 C 
BRANCH   3   2
ATOM      1  C   UNL     1      41.715  18.963  20.718  0.00  0.00    +0.006 C 
ATOM      2  C   UNL     1      41.621  20.115  19.715  0.00  0.00    -0.006 C 
ENDBRANCH   3   2
ENDBRANCH   4   3
ENDBRANCH   5   4
ENDBRANCH   6   5
ENDBRANCH   7   6
ENDBRANCH   8   7
ENDBRANCH   9   8
ENDBRANCH  10   9
ENDBRANCH  11  10
ENDBRANCH  12  11
ENDBRANCH  13  12
ENDBRANCH  14  13
ENDBRANCH  15  14
ENDBRANCH  16  15
ENDBRANCH  17  16
ENDBRANCH  18  17
ENDBRANCH  19  18
ENDBRANCH  20  19
ENDBRANCH  21  20
ENDBRANCH  22  21
ENDBRANCH  23  22
ENDBRANCH  24  23
ENDBRANCH  25  24
ENDBRANCH  26  25
ENDBRANCH  27  26
BRANCH  27  28
ATOM     28  C   UNL     1      51.455  19.885  17.503  0.00  0.00    +0.000 C 
BRANCH  28  29
ATOM     29  C   UNL     1      51.255  21.160  18.326  0.00  0.00    +0.000 C 
BRANCH  29  30
ATOM     30  C   UNL     1      52.343  21.251  19.398  0.00  0.00    +0.000 C 
BRANCH  30  31
ATOM     31  C   UNL     1      51.708  21.117  20.782  0.00  0.00    +0.000 C 
BRANCH  31  32
ATOM     32  C   UNL     1      52.351  19.946  21.529  0.00  0.00    +0.000 C 
BRANCH  32  33
ATOM     33  C   UNL     1      51.544  18.672  21.274  0.00  0.00    +0.000 C 
BRANCH  33  34
ATOM     34  C   UNL     1      52.452  17.608  20.653  0.00  0.00    +0.000 C 
BRANCH  34  35
ATOM     35  C   UNL     1      52.552  16.409  21.597  0.00  0.00    +0.000 C 
BRANCH  35  36
ATOM     36  C   UNL     1      53.417  15.324  20.953  0.00  0.00    +0.000 C 
BRANCH  36  37
ATOM     37  C   UNL     1      53.865  15.785  19.564  0.00  0.00    +0.000 C 
BRANCH  37  38
ATOM     38  C   UNL     1      55.389  15.697  19.466  0.00  0.00    +0.000 C 
BRANCH  38  39
ATOM     39  C   UNL     1      55.926  14.847  20.620  0.00  0.00    +0.000 C 
BRANCH  39  40
ATOM     40  C   UNL     1      56.817  13.735  20.062  0.00  0.00    +0.000 C 
BRANCH  40  41
ATOM     41  C   UNL     1      56.245  12.374  20.464  0.00  0.00    -0.000 C 
BRANCH  41  42
ATOM     42  C   UNL     1      55.216  11.926  19.426  0.00  0.00    -0.000 C 
BRANCH  42  43
ATOM     43  C   UNL     1      53.863  11.710  20.108  0.00  0.00    +0.000 C 
BRANCH  43  44
ATOM     44  C   UNL     1      52.803  11.395  19.051  0.00  0.00    +0.000 C 
BRANCH  44  45
ATOM     45  C   UNL     1      53.376  10.403  18.036  0.00  0.00    +0.001 C 
BRANCH  45  46
ATOM     46  C   UNL     1      52.906  10.784  16.630  0.00  0.00    +0.003 C 
BRANCH  46  47
ATOM     47  C   UNL     1      52.190  12.135  16.680  0.00  0.00    +0.012 C 
BRANCH  47  48
ATOM     48  C   UNL     1      51.654  12.480  15.290  0.00  0.00    +0.064 C 
BRANCH  48  49
ATOM     49  C   UNL     1      50.173  12.744  15.373  0.00  0.00    +0.005 C 
ATOM     50  C   UNL     1      49.321  12.005  14.653  0.00  0.00    -0.026 C 
BRANCH  50  53
ATOM     53  C   UNL     1      47.878  12.264  14.733  0.00  0.00    +0.474 C 
ATOM     54  O   UNL     1      47.475  13.313  15.189  0.00  0.00    -0.458 OA
ENDBRANCH  50  53
BRANCH  50  51
ATOM     51  O   UNL     1      49.791  11.016  13.848  0.00  0.00    -0.473 OA
ATOM     52  H   UNL     1      49.941  10.175  14.303  0.00  0.00    +0.398 HD
ENDBRANCH  50  51
ENDBRANCH  48  49
ENDBRANCH  47  48
ENDBRANCH  46  47
ENDBRANCH  45  46
ENDBRANCH  44  45
ENDBRANCH  43  44
ENDBRANCH  42  43
ENDBRANCH  41  42
ENDBRANCH  40  41
ENDBRANCH  39  40
ENDBRANCH  38  39
ENDBRANCH  37  38
ENDBRANCH  36  37
ENDBRANCH  35  36
ENDBRANCH  34  35
ENDBRANCH  33  34
ENDBRANCH  32  33
ENDBRANCH  31  32
ENDBRANCH  30  31
ENDBRANCH  29  30
ENDBRANCH  28  29
ENDBRANCH  27  28
TORSDOF 49
ENDMDL
MODEL 8
REMARK VINA RESULT:      -2.3      2.001      8.559
REMARK  Name = ZINC95486098
REMARK  50 active torsions:
REMARK  status: ('A' for Active; 'I' for Inactive)
REMARK    1  A    between atoms: C1_1  and  C2_2
REMARK    2  A    between atoms: C2_2  and  C3_3
REMARK    3  A    between atoms: C3_3  and  C4_4
REMARK    4  A    between atoms: C4_4  and  C5_5
REMARK    5  A    between atoms: C5_5  and  C6_6
REMARK    6  A    between atoms: C6_6  and  C7_7
REMARK    7  A    between atoms: C7_7  and  C8_8
REMARK    8  A    between atoms: C8_8  and  C9_9
REMARK    9  A    between atoms: C9_9  and  C10_10
REMARK   10  A    between atoms: C10_10  and  C11_11
REMARK   11  A    between atoms: C11_11  and  C12_12
REMARK   12  A    between atoms: C12_12  and  C13_13
REMARK   13  A    between atoms: C13_13  and  C14_14
REMARK   14  A    between atoms: C14_14  and  C15_15
REMARK   15  A    between atoms: C15_15  and  C16_16
REMARK   16  A    between atoms: C16_16  and  C17_17
REMARK   17  A    between atoms: C17_17  and  C18_18
REMARK   18  A    between atoms: C18_18  and  C19_19
REMARK   19  A    between atoms: C19_19  and  C20_20
REMARK   20  A    between atoms: C20_20  and  C21_21
REMARK   21  A    between atoms: C21_21  and  C22_22
REMARK   22  A    between atoms: C22_22  and  C23_23
REMARK   23  A    between atoms: C23_23  and  C24_24
REMARK   24  A    between atoms: C24_24  and  C25_25
REMARK   25  A    between atoms: C25_25  and  C26_26
REMARK   26  A    between atoms: C26_26  and  C27_27
REMARK   27  A    between atoms: C27_27  and  C28_28
REMARK   28  A    between atoms: C28_28  and  C29_29
REMARK   29  A    between atoms: C29_29  and  C30_30
REMARK   30  A    between atoms: C30_30  and  C31_31
REMARK   31  A    between atoms: C31_31  and  C32_32
REMARK   32  A    between atoms: C32_32  and  C33_33
REMARK   33  A    between atoms: C33_33  and  C34_34
REMARK   34  A    between atoms: C34_34  and  C35_35
REMARK   35  A    between atoms: C35_35  and  C36_36
REMARK   36  A    between atoms: C36_36  and  C37_37
REMARK   37  A    between atoms: C37_37  and  C38_38
REMARK   38  A    between atoms: C38_38  and  C39_39
REMARK   39  A    between atoms: C39_39  and  C40_40
REMARK   40  A    between atoms: C40_40  and  C41_41
REMARK   41  A    between atoms: C41_41  and  C42_42
REMARK   42  A    between atoms: C42_42  and  C43_43
REMARK   43  A    between atoms: C43_43  and  C44_44
REMARK   44  A    between atoms: C44_44  and  C45_45
REMARK   45  A    between atoms: C45_45  and  C46_46
REMARK   46  A    between atoms: C46_46  and  C47_47
REMARK   47  A    between atoms: C47_47  and  C48_48
REMARK   48  A    between atoms: C48_48  and  C49_49
REMARK   49  A    between atoms: C50_50  and  C51_51
REMARK   50  A    between atoms: C50_50  and  O2_53
REMARK                            x       y       z     vdW  Elec       q    Type
REMARK                         _______ _______ _______ _____ _____    ______ ____
ROOT
ATOM     27  C   UNL     1      44.327  18.439  21.019  0.00  0.00    +0.000 C 
ENDROOT
BRANCH  27  26
ATOM     26  C   UNL     1      44.985  19.430  21.982  0.00  0.00    +0.000 C 
BRANCH  26  25
ATOM     25  C   UNL     1      46.296  18.838  22.505  0.00  0.00    +0.000 C 
BRANCH  25  24
ATOM     24  C   UNL     1      46.766  17.728  21.562  0.00  0.00    +0.000 C 
BRANCH  24  23
ATOM     23  C   UNL     1      47.302  16.556  22.385  0.00  0.00    +0.000 C 
BRANCH  23  22
ATOM     22  C   UNL     1      48.832  16.548  22.323  0.00  0.00    +0.000 C 
BRANCH  22  21
ATOM     21  C   UNL     1      49.289  17.056  20.954  0.00  0.00    +0.000 C 
BRANCH  21  20
ATOM     20  C   UNL     1      50.520  17.948  21.128  0.00  0.00    +0.000 C 
BRANCH  20  19
ATOM     19  C   UNL     1      50.084  19.329  21.621  0.00  0.00    +0.000 C 
BRANCH  19  18
ATOM     18  C   UNL     1      51.256  20.010  22.332  0.00  0.00    +0.000 C 
BRANCH  18  17
ATOM     17  C   UNL     1      52.417  20.181  21.352  0.00  0.00    +0.000 C 
BRANCH  17  16
ATOM     16  C   UNL     1      52.352  21.573  20.721  0.00  0.00    +0.000 C 
BRANCH  16  15
ATOM     15  C   UNL     1      52.187  21.440  19.205  0.00  0.00    +0.000 C 
BRANCH  15  14
ATOM     14  C   UNL     1      52.643  20.048  18.763  0.00  0.00    +0.000 C 
BRANCH  14  13
ATOM     13  C   UNL     1      51.996  19.702  17.420  0.00  0.00    +0.000 C 
BRANCH  13  12
ATOM     12  C   UNL     1      50.551  19.258  17.650  0.00  0.00    +0.000 C 
BRANCH  12  11
ATOM     11  C   UNL     1      50.345  17.862  17.060  0.00  0.00    +0.000 C 
BRANCH  11  10
ATOM     10  C   UNL     1      51.705  17.193  16.847  0.00  0.00    +0.000 C 
BRANCH  10   9
ATOM      9  C   UNL     1      51.873  16.049  17.850  0.00  0.00    +0.000 C 
BRANCH   9   8
ATOM      8  C   UNL     1      50.763  15.018  17.637  0.00  0.00    +0.000 C 
BRANCH   8   7
ATOM      7  C   UNL     1      51.352  13.759  16.998  0.00  0.00    +0.000 C 
BRANCH   7   6
ATOM      6  C   UNL     1      50.575  13.423  15.724  0.00  0.00    +0.000 C 
BRANCH   6   5
ATOM      5  C   UNL     1      51.553  13.244  14.562  0.00  0.00    +0.000 C 
BRANCH   5   4
ATOM      4  C   UNL     1      50.907  12.375  13.481  0.00  0.00    -0.000 C 
BRANCH   4   3
ATOM      3  C   UNL     1      50.210  13.272  12.455  0.00  0.00    -0.000 C 
BRANCH   3   2
ATOM      1  C   UNL     1      51.459  13.221  10.291  0.00  0.00    +0.006 C 
ATOM      2  C   UNL     1      50.288  12.621  11.072  0.00  0.00    -0.006 C 
ENDBRANCH   3   2
ENDBRANCH   4   3
ENDBRANCH   5   4
ENDBRANCH   6   5
ENDBRANCH   7   6
ENDBRANCH   8   7
ENDBRANCH   9   8
ENDBRANCH  10   9
ENDBRANCH  11  10
ENDBRANCH  12  11
ENDBRANCH  13  12
ENDBRANCH  14  13
ENDBRANCH  15  14
ENDBRANCH  16  15
ENDBRANCH  17  16
ENDBRANCH  18  17
ENDBRANCH  19  18
ENDBRANCH  20  19
ENDBRANCH  21  20
ENDBRANCH  22  21
ENDBRANCH  23  22
ENDBRANCH  24  23
ENDBRANCH  25  24
ENDBRANCH  26  25
ENDBRANCH  27  26
BRANCH  27  28
ATOM     28  C   UNL     1      43.297  17.599  21.776  0.00  0.00    +0.000 C 
BRANCH  28  29
ATOM     29  C   UNL     1      41.891  18.123  21.477  0.00  0.00    +0.000 C 
BRANCH  29  30
ATOM     30  C   UNL     1      41.990  19.392  20.629  0.00  0.00    +0.000 C 
BRANCH  30  31
ATOM     31  C   UNL     1      40.978  19.321  19.484  0.00  0.00    +0.000 C 
BRANCH  31  32
ATOM     32  C   UNL     1      41.461  20.189  18.320  0.00  0.00    +0.000 C 
BRANCH  32  33
ATOM     33  C   UNL     1      41.681  21.622  18.809  0.00  0.00    +0.000 C 
BRANCH  33  34
ATOM     34  C   UNL     1      42.906  21.667  19.725  0.00  0.00    +0.000 C 
BRANCH  34  35
ATOM     35  C   UNL     1      43.827  22.808  19.289  0.00  0.00    +0.000 C 
BRANCH  35  36
ATOM     36  C   UNL     1      45.269  22.476  19.677  0.00  0.00    +0.000 C 
BRANCH  36  37
ATOM     37  C   UNL     1      45.725  21.224  18.925  0.00  0.00    +0.000 C 
BRANCH  37  38
ATOM     38  C   UNL     1      47.243  21.079  19.050  0.00  0.00    +0.000 C 
BRANCH  38  39
ATOM     39  C   UNL     1      47.621  19.598  18.978  0.00  0.00    +0.000 C 
BRANCH  39  40
ATOM     40  C   UNL     1      46.704  18.886  17.980  0.00  0.00    +0.000 C 
BRANCH  40  41
ATOM     41  C   UNL     1      46.696  17.385  18.276  0.00  0.00    -0.000 C 
BRANCH  41  42
ATOM     42  C   UNL     1      46.267  16.621  17.023  0.00  0.00    -0.000 C 
BRANCH  42  43
ATOM     43  C   UNL     1      47.290  15.523  16.721  0.00  0.00    +0.000 C 
BRANCH  43  44
ATOM     44  C   UNL     1      46.640  14.152  16.920  0.00  0.00    +0.000 C 
BRANCH  44  45
ATOM     45  C   UNL     1      47.519  13.300  17.838  0.00  0.00    +0.001 C 
BRANCH  45  46
ATOM     46  C   UNL     1      47.117  13.540  19.295  0.00  0.00    +0.003 C 
BRANCH  46  47
ATOM     47  C   UNL     1      48.374  13.661  20.158  0.00  0.00    +0.012 C 
BRANCH  47  48
ATOM     48  C   UNL     1      48.510  12.418  21.039  0.00  0.00    +0.064 C 
BRANCH  48  49
ATOM     49  C   UNL     1      49.937  12.285  21.506  0.00  0.00    +0.005 C 
ATOM     50  C   UNL     1      50.856  11.743  20.700  0.00  0.00    -0.026 C 
BRANCH  50  53
ATOM     53  C   UNL     1      52.245  11.612  21.155  0.00  0.00    +0.474 C 
ATOM     54  O   UNL     1      53.062  11.052  20.454  0.00  0.00    -0.458 OA
ENDBRANCH  50  53
BRANCH  50  51
ATOM     51  O   UNL     1      50.504  11.312  19.459  0.00  0.00    -0.473 OA
ATOM     52  H   UNL     1      49.647  10.863  19.426  0.00  0.00    +0.398 HD
ENDBRANCH  50  51
ENDBRANCH  48  49
ENDBRANCH  47  48
ENDBRANCH  46  47
ENDBRANCH  45  46
ENDBRANCH  44  45
ENDBRANCH  43  44
ENDBRANCH  42  43
ENDBRANCH  41  42
ENDBRANCH  40  41
ENDBRANCH  39  40
ENDBRANCH  38  39
ENDBRANCH  37  38
ENDBRANCH  36  37
ENDBRANCH  35  36
ENDBRANCH  34  35
ENDBRANCH  33  34
ENDBRANCH  32  33
ENDBRANCH  31  32
ENDBRANCH  30  31
ENDBRANCH  29  30
ENDBRANCH  28  29
ENDBRANCH  27  28
TORSDOF 49
ENDMDL
MODEL 9
REMARK VINA RESULT:      -2.1      2.014      4.284
REMARK  Name = ZINC95486098
REMARK  50 active torsions:
REMARK  status: ('A' for Active; 'I' for Inactive)
REMARK    1  A    between atoms: C1_1  and  C2_2
REMARK    2  A    between atoms: C2_2  and  C3_3
REMARK    3  A    between atoms: C3_3  and  C4_4
REMARK    4  A    between atoms: C4_4  and  C5_5
REMARK    5  A    between atoms: C5_5  and  C6_6
REMARK    6  A    between atoms: C6_6  and  C7_7
REMARK    7  A    between atoms: C7_7  and  C8_8
REMARK    8  A    between atoms: C8_8  and  C9_9
REMARK    9  A    between atoms: C9_9  and  C10_10
REMARK   10  A    between atoms: C10_10  and  C11_11
REMARK   11  A    between atoms: C11_11  and  C12_12
REMARK   12  A    between atoms: C12_12  and  C13_13
REMARK   13  A    between atoms: C13_13  and  C14_14
REMARK   14  A    between atoms: C14_14  and  C15_15
REMARK   15  A    between atoms: C15_15  and  C16_16
REMARK   16  A    between atoms: C16_16  and  C17_17
REMARK   17  A    between atoms: C17_17  and  C18_18
REMARK   18  A    between atoms: C18_18  and  C19_19
REMARK   19  A    between atoms: C19_19  and  C20_20
REMARK   20  A    between atoms: C20_20  and  C21_21
REMARK   21  A    between atoms: C21_21  and  C22_22
REMARK   22  A    between atoms: C22_22  and  C23_23
REMARK   23  A    between atoms: C23_23  and  C24_24
REMARK   24  A    between atoms: C24_24  and  C25_25
REMARK   25  A    between atoms: C25_25  and  C26_26
REMARK   26  A    between atoms: C26_26  and  C27_27
REMARK   27  A    between atoms: C27_27  and  C28_28
REMARK   28  A    between atoms: C28_28  and  C29_29
REMARK   29  A    between atoms: C29_29  and  C30_30
REMARK   30  A    between atoms: C30_30  and  C31_31
REMARK   31  A    between atoms: C31_31  and  C32_32
REMARK   32  A    between atoms: C32_32  and  C33_33
REMARK   33  A    between atoms: C33_33  and  C34_34
REMARK   34  A    between atoms: C34_34  and  C35_35
REMARK   35  A    between atoms: C35_35  and  C36_36
REMARK   36  A    between atoms: C36_36  and  C37_37
REMARK   37  A    between atoms: C37_37  and  C38_38
REMARK   38  A    between atoms: C38_38  and  C39_39
REMARK   39  A    between atoms: C39_39  and  C40_40
REMARK   40  A    between atoms: C40_40  and  C41_41
REMARK   41  A    between atoms: C41_41  and  C42_42
REMARK   42  A    between atoms: C42_42  and  C43_43
REMARK   43  A    between atoms: C43_43  and  C44_44
REMARK   44  A    between atoms: C44_44  and  C45_45
REMARK   45  A    between atoms: C45_45  and  C46_46
REMARK   46  A    between atoms: C46_46  and  C47_47
REMARK   47  A    between atoms: C47_47  and  C48_48
REMARK   48  A    between atoms: C48_48  and  C49_49
REMARK   49  A    between atoms: C50_50  and  C51_51
REMARK   50  A    between atoms: C50_50  and  O2_53
REMARK                            x       y       z     vdW  Elec       q    Type
REMARK                         _______ _______ _______ _____ _____    ______ ____
ROOT
ATOM     27  C   UNL     1      51.805  20.759  18.721  0.00  0.00    +0.000 C 
ENDROOT
BRANCH  27  26
ATOM     26  C   UNL     1      50.794  20.833  19.868  0.00  0.00    +0.000 C 
BRANCH  26  25
ATOM     25  C   UNL     1      51.540  20.977  21.196  0.00  0.00    +0.000 C 
BRANCH  25  24
ATOM     24  C   UNL     1      50.804  20.190  22.282  0.00  0.00    +0.000 C 
BRANCH  24  23
ATOM     23  C   UNL     1      49.979  19.077  21.634  0.00  0.00    +0.000 C 
BRANCH  23  22
ATOM     22  C   UNL     1      48.758  18.774  22.506  0.00  0.00    +0.000 C 
BRANCH  22  21
ATOM     21  C   UNL     1      47.492  19.262  21.796  0.00  0.00    +0.000 C 
BRANCH  21  20
ATOM     20  C   UNL     1      47.130  20.659  22.304  0.00  0.00    +0.000 C 
BRANCH  20  19
ATOM     19  C   UNL     1      47.453  21.694  21.224  0.00  0.00    +0.000 C 
BRANCH  19  18
ATOM     18  C   UNL     1      46.856  23.046  21.618  0.00  0.00    +0.000 C 
BRANCH  18  17
ATOM     17  C   UNL     1      45.411  23.129  21.126  0.00  0.00    +0.000 C 
BRANCH  17  16
ATOM     16  C   UNL     1      45.286  22.405  19.784  0.00  0.00    +0.000 C 
BRANCH  16  15
ATOM     15  C   UNL     1      44.035  21.524  19.793  0.00  0.00    +0.000 C 
BRANCH  15  14
ATOM     14  C   UNL     1      44.013  20.682  21.070  0.00  0.00    +0.000 C 
BRANCH  14  13
ATOM     13  C   UNL     1      43.154  19.436  20.844  0.00  0.00    +0.000 C 
BRANCH  13  12
ATOM     12  C   UNL     1      43.790  18.568  19.757  0.00  0.00    +0.000 C 
BRANCH  12  11
ATOM     11  C   UNL     1      44.562  17.419  20.408  0.00  0.00    +0.000 C 
BRANCH  11  10
ATOM     10  C   UNL     1      44.079  17.230  21.848  0.00  0.00    +0.000 C 
BRANCH  10   9
ATOM      9  C   UNL     1      44.028  15.736  22.176  0.00  0.00    +0.000 C 
BRANCH   9   8
ATOM      8  C   UNL     1      45.443  15.155  22.127  0.00  0.00    +0.000 C 
BRANCH   8   7
ATOM      7  C   UNL     1      45.697  14.548  20.746  0.00  0.00    +0.000 C 
BRANCH   7   6
ATOM      6  C   UNL     1      47.186  14.229  20.596  0.00  0.00    +0.000 C 
BRANCH   6   5
ATOM      5  C   UNL     1      48.013  15.422  21.075  0.00  0.00    +0.000 C 
BRANCH   5   4
ATOM      4  C   UNL     1      48.172  16.426  19.931  0.00  0.00    -0.000 C 
BRANCH   4   3
ATOM      3  C   UNL     1      48.159  15.681  18.594  0.00  0.00    -0.000 C 
BRANCH   3   2
ATOM      1  C   UNL     1      46.343  16.823  17.312  0.00  0.00    +0.006 C 
ATOM      2  C   UNL     1      47.858  16.667  17.464  0.00  0.00    -0.006 C 
ENDBRANCH   3   2
ENDBRANCH   4   3
ENDBRANCH   5   4
ENDBRANCH   6   5
ENDBRANCH   7   6
ENDBRANCH   8   7
ENDBRANCH   9   8
ENDBRANCH  10   9
ENDBRANCH  11  10
ENDBRANCH  12  11
ENDBRANCH  13  12
ENDBRANCH  14  13
ENDBRANCH  15  14
ENDBRANCH  16  15
ENDBRANCH  17  16
ENDBRANCH  18  17
ENDBRANCH  19  18
ENDBRANCH  20  19
ENDBRANCH  21  20
ENDBRANCH  22  21
ENDBRANCH  23  22
ENDBRANCH  24  23
ENDBRANCH  25  24
ENDBRANCH  26  25
ENDBRANCH  27  26
BRANCH  27  28
ATOM     28  C   UNL     1      52.599  19.455  18.824  0.00  0.00    +0.000 C 
BRANCH  28  29
ATOM     29  C   UNL     1      51.630  18.273  18.895  0.00  0.00    +0.000 C 
BRANCH  29  30
ATOM     30  C   UNL     1      52.352  16.995  18.468  0.00  0.00    +0.000 C 
BRANCH  30  31
ATOM     31  C   UNL     1      51.679  15.786  19.119  0.00  0.00    +0.000 C 
BRANCH  31  32
ATOM     32  C   UNL     1      51.588  14.644  18.104  0.00  0.00    +0.000 C 
BRANCH  32  33
ATOM     33  C   UNL     1      51.684  15.212  16.687  0.00  0.00    +0.000 C 
BRANCH  33  34
ATOM     34  C   UNL     1      50.880  14.331  15.728  0.00  0.00    +0.000 C 
BRANCH  34  35
ATOM     35  C   UNL     1      51.817  13.734  14.676  0.00  0.00    +0.000 C 
BRANCH  35  36
ATOM     36  C   UNL     1      51.291  12.364  14.244  0.00  0.00    +0.000 C 
BRANCH  36  37
ATOM     37  C   UNL     1      49.943  12.533  13.541  0.00  0.00    +0.000 C 
BRANCH  37  38
ATOM     38  C   UNL     1      48.869  11.756  14.306  0.00  0.00    +0.000 C 
BRANCH  38  39
ATOM     39  C   UNL     1      47.683  12.678  14.598  0.00  0.00    +0.000 C 
BRANCH  39  40
ATOM     40  C   UNL     1      47.815  13.244  16.014  0.00  0.00    +0.000 C 
BRANCH  40  41
ATOM     41  C   UNL     1      46.518  12.992  16.786  0.00  0.00    -0.000 C 
BRANCH  41  42
ATOM     42  C   UNL     1      46.587  11.624  17.465  0.00  0.00    -0.000 C 
BRANCH  42  43
ATOM     43  C   UNL     1      47.771  11.595  18.434  0.00  0.00    +0.000 C 
BRANCH  43  44
ATOM     44  C   UNL     1      48.530  10.277  18.273  0.00  0.00    +0.000 C 
BRANCH  44  45
ATOM     45  C   UNL     1      49.625  10.445  17.217  0.00  0.00    +0.001 C 
BRANCH  45  46
ATOM     46  C   UNL     1      50.717  11.370  17.757  0.00  0.00    +0.003 C 
BRANCH  46  47
ATOM     47  C   UNL     1      52.066  10.651  17.705  0.00  0.00    +0.012 C 
BRANCH  47  48
ATOM     48  C   UNL     1      52.525  10.323  19.127  0.00  0.00    +0.064 C 
BRANCH  48  49
ATOM     49  C   UNL     1      53.989  10.645  19.271  0.00  0.00    +0.005 C 
ATOM     50  C   UNL     1      54.369  11.849  19.714  0.00  0.00    -0.026 C 
BRANCH  50  53
ATOM     53  C   UNL     1      55.796  12.162  19.853  0.00  0.00    +0.474 C 
ATOM     54  O   UNL     1      56.519  11.426  20.490  0.00  0.00    -0.458 OA
ENDBRANCH  50  53
BRANCH  50  51
ATOM     51  O   UNL     1      53.433  12.781  20.036  0.00  0.00    -0.473 OA
ATOM     52  H   UNL     1      52.531  12.434  20.082  0.00  0.00    +0.398 HD
ENDBRANCH  50  51
ENDBRANCH  48  49
ENDBRANCH  47  48
ENDBRANCH  46  47
ENDBRANCH  45  46
ENDBRANCH  44  45
ENDBRANCH  43  44
ENDBRANCH  42  43
ENDBRANCH  41  42
ENDBRANCH  40  41
ENDBRANCH  39  40
ENDBRANCH  38  39
ENDBRANCH  37  38
ENDBRANCH  36  37
ENDBRANCH  35  36
ENDBRANCH  34  35
ENDBRANCH  33  34
ENDBRANCH  32  33
ENDBRANCH  31  32
ENDBRANCH  30  31
ENDBRANCH  29  30
ENDBRANCH  28  29
ENDBRANCH  27  28
TORSDOF 49
ENDMDL
