MODEL 1
REMARK VINA RESULT:      -6.2      0.000      0.000
REMARK  Name = ZINC28456059
REMARK  2 active torsions:
REMARK  status: ('A' for Active; 'I' for Inactive)
REMARK    1  A    between atoms: C8_9  and  O4_17
REMARK    2  A    between atoms: C12_14  and  O3_16
REMARK                            x       y       z     vdW  Elec       q    Type
REMARK                         _______ _______ _______ _____ _____    ______ ____
ROOT
ATOM      1  C   UNL     1      46.930  22.119  21.797  0.00  0.00    +0.031 A 
ATOM      2  C   UNL     1      46.111  21.048  21.508  0.00  0.00    +0.073 A 
ATOM      3  C   UNL     1      44.914  21.259  20.824  0.00  0.00    -0.188 A 
ATOM      4  C   UNL     1      44.018  20.128  20.501  0.00  0.00    +0.443 A 
ATOM      5  C   UNL     1      42.775  20.452  19.777  0.00  0.00    -0.280 A 
ATOM      6  C   UNL     1      41.867  19.450  19.430  0.00  0.00    +0.166 A 
ATOM      7  C   UNL     1      40.723  19.773  18.758  0.00  0.00    -0.051 A 
ATOM      8  C   UNL     1      40.458  21.098  18.419  0.00  0.00    +0.232 A 
ATOM     11  C   UNL     1      41.349  22.103  18.756  0.00  0.00    -0.107 A 
ATOM     12  C   UNL     1      42.519  21.792  19.439  0.00  0.00    +0.212 A 
ATOM     13  O   UNL     1      43.386  22.770  19.767  0.00  0.00    -0.220 OA
ATOM     14  O   UNL     1      44.292  18.986  20.820  0.00  0.00    -0.450 OA
ATOM     15  C   UNL     1      44.540  22.551  20.429  0.00  0.00    +0.121 A 
ATOM     16  C   UNL     1      45.384  23.622  20.732  0.00  0.00    +0.137 A 
ATOM     19  C   UNL     1      46.565  23.400  21.416  0.00  0.00    -0.010 A 
ENDROOT
BRANCH   8   9
ATOM      9  O   UNL     1      39.317  21.406  17.751  0.00  0.00    -0.496 OA
ATOM     10  H   UNL     1      39.371  21.830  16.737  0.00  0.00    +0.444 HD
ENDBRANCH   8   9
BRANCH  16  17
ATOM     17  O   UNL     1      45.041  24.884  20.359  0.00  0.00    -0.498 OA
ATOM     18  H   UNL     1      45.228  25.728  21.038  0.00  0.00    +0.440 HD
ENDBRANCH  16  17
TORSDOF 2
ENDMDL
MODEL 2
REMARK VINA RESULT:      -5.9      0.950      5.094
REMARK  Name = ZINC28456059
REMARK  2 active torsions:
REMARK  status: ('A' for Active; 'I' for Inactive)
REMARK    1  A    between atoms: C8_9  and  O4_17
REMARK    2  A    between atoms: C12_14  and  O3_16
REMARK                            x       y       z     vdW  Elec       q    Type
REMARK                         _______ _______ _______ _____ _____    ______ ____
ROOT
ATOM      1  C   UNL     1      40.963  19.493  18.950  0.00  0.00    +0.031 A 
ATOM      2  C   UNL     1      42.060  19.312  19.766  0.00  0.00    +0.073 A 
ATOM      3  C   UNL     1      42.902  20.389  20.042  0.00  0.00    -0.188 A 
ATOM      4  C   UNL     1      44.083  20.222  20.913  0.00  0.00    +0.443 A 
ATOM      5  C   UNL     1      44.913  21.419  21.144  0.00  0.00    -0.280 A 
ATOM      6  C   UNL     1      46.049  21.357  21.953  0.00  0.00    +0.166 A 
ATOM      7  C   UNL     1      46.802  22.478  22.154  0.00  0.00    -0.051 A 
ATOM      8  C   UNL     1      46.441  23.683  21.554  0.00  0.00    +0.232 A 
ATOM     11  C   UNL     1      45.317  23.760  20.749  0.00  0.00    -0.107 A 
ATOM     12  C   UNL     1      44.538  22.629  20.535  0.00  0.00    +0.212 A 
ATOM     13  O   UNL     1      43.444  22.704  19.752  0.00  0.00    -0.220 OA
ATOM     14  O   UNL     1      44.360  19.147  21.415  0.00  0.00    -0.450 OA
ATOM     15  C   UNL     1      42.639  21.653  19.495  0.00  0.00    +0.121 A 
ATOM     16  C   UNL     1      41.523  21.815  18.670  0.00  0.00    +0.137 A 
ATOM     19  C   UNL     1      40.700  20.738  18.400  0.00  0.00    -0.010 A 
ENDROOT
BRANCH   8   9
ATOM      9  O   UNL     1      47.197  24.791  21.761  0.00  0.00    -0.496 OA
ATOM     10  H   UNL     1      46.747  25.687  22.213  0.00  0.00    +0.444 HD
ENDBRANCH   8   9
BRANCH  16  17
ATOM     17  O   UNL     1      41.250  23.032  18.129  0.00  0.00    -0.498 OA
ATOM     18  H   UNL     1      41.946  23.481  17.407  0.00  0.00    +0.440 HD
ENDBRANCH  16  17
TORSDOF 2
ENDMDL
MODEL 3
REMARK VINA RESULT:      -5.4     20.741     22.349
REMARK  Name = ZINC28456059
REMARK  2 active torsions:
REMARK  status: ('A' for Active; 'I' for Inactive)
REMARK    1  A    between atoms: C8_9  and  O4_17
REMARK    2  A    between atoms: C12_14  and  O3_16
REMARK                            x       y       z     vdW  Elec       q    Type
REMARK                         _______ _______ _______ _____ _____    ______ ____
ROOT
ATOM      1  C   UNL     1      57.993  31.655   3.190  0.00  0.00    +0.031 A 
ATOM      2  C   UNL     1      56.616  31.613   3.132  0.00  0.00    +0.073 A 
ATOM      3  C   UNL     1      55.862  32.348   4.047  0.00  0.00    -0.188 A 
ATOM      4  C   UNL     1      54.385  32.319   4.005  0.00  0.00    +0.443 A 
ATOM      5  C   UNL     1      53.677  33.128   5.015  0.00  0.00    -0.280 A 
ATOM      6  C   UNL     1      52.282  33.163   5.054  0.00  0.00    +0.166 A 
ATOM      7  C   UNL     1      51.647  33.919   5.998  0.00  0.00    -0.051 A 
ATOM      8  C   UNL     1      52.387  34.654   6.922  0.00  0.00    +0.232 A 
ATOM     11  C   UNL     1      53.771  34.629   6.896  0.00  0.00    -0.107 A 
ATOM     12  C   UNL     1      54.433  33.866   5.942  0.00  0.00    +0.212 A 
ATOM     13  O   UNL     1      55.780  33.842   5.917  0.00  0.00    -0.220 OA
ATOM     14  O   UNL     1      53.782  31.660   3.178  0.00  0.00    -0.450 OA
ATOM     15  C   UNL     1      56.496  33.127   5.025  0.00  0.00    +0.121 A 
ATOM     16  C   UNL     1      57.892  33.156   5.068  0.00  0.00    +0.137 A 
ATOM     19  C   UNL     1      58.627  32.418   4.158  0.00  0.00    -0.010 A 
ENDROOT
BRANCH   8   9
ATOM      9  O   UNL     1      51.744  35.401   7.855  0.00  0.00    -0.496 OA
ATOM     10  H   UNL     1      52.260  36.249   8.330  0.00  0.00    +0.444 HD
ENDBRANCH   8   9
BRANCH  16  17
ATOM     17  O   UNL     1      58.527  33.905   6.008  0.00  0.00    -0.498 OA
ATOM     18  H   UNL     1      58.755  34.961   5.807  0.00  0.00    +0.440 HD
ENDBRANCH  16  17
TORSDOF 2
ENDMDL
MODEL 4
REMARK VINA RESULT:      -5.2      1.709      3.682
REMARK  Name = ZINC28456059
REMARK  2 active torsions:
REMARK  status: ('A' for Active; 'I' for Inactive)
REMARK    1  A    between atoms: C8_9  and  O4_17
REMARK    2  A    between atoms: C12_14  and  O3_16
REMARK                            x       y       z     vdW  Elec       q    Type
REMARK                         _______ _______ _______ _____ _____    ______ ____
ROOT
ATOM      1  C   UNL     1      47.078  18.657  21.136  0.00  0.00    +0.031 A 
ATOM      2  C   UNL     1      46.513  19.886  20.873  0.00  0.00    +0.073 A 
ATOM      3  C   UNL     1      45.225  19.955  20.341  0.00  0.00    -0.188 A 
ATOM      4  C   UNL     1      44.596  21.261  20.050  0.00  0.00    +0.443 A 
ATOM      5  C   UNL     1      43.233  21.230  19.488  0.00  0.00    -0.280 A 
ATOM      6  C   UNL     1      42.558  22.413  19.181  0.00  0.00    +0.166 A 
ATOM      7  C   UNL     1      41.296  22.361  18.662  0.00  0.00    -0.051 A 
ATOM      8  C   UNL     1      40.680  21.132  18.437  0.00  0.00    +0.232 A 
ATOM     11  C   UNL     1      41.336  19.950  18.736  0.00  0.00    -0.107 A 
ATOM     12  C   UNL     1      42.620  19.984  19.266  0.00  0.00    +0.212 A 
ATOM     13  O   UNL     1      43.259  18.834  19.558  0.00  0.00    -0.220 OA
ATOM     14  O   UNL     1      45.175  22.310  20.263  0.00  0.00    -0.450 OA
ATOM     15  C   UNL     1      44.504  18.783  20.073  0.00  0.00    +0.121 A 
ATOM     16  C   UNL     1      45.096  17.547  20.345  0.00  0.00    +0.137 A 
ATOM     19  C   UNL     1      46.375  17.493  20.867  0.00  0.00    -0.010 A 
ENDROOT
BRANCH   8   9
ATOM      9  O   UNL     1      39.426  21.093  17.921  0.00  0.00    -0.496 OA
ATOM     10  H   UNL     1      38.569  20.868  18.574  0.00  0.00    +0.444 HD
ENDBRANCH   8   9
BRANCH  16  17
ATOM     17  O   UNL     1      44.415  16.398  20.092  0.00  0.00    -0.498 OA
ATOM     18  H   UNL     1      44.734  15.456  20.561  0.00  0.00    +0.440 HD
ENDBRANCH  16  17
TORSDOF 2
ENDMDL
MODEL 5
REMARK VINA RESULT:      -5.1      4.066      5.792
REMARK  Name = ZINC28456059
REMARK  2 active torsions:
REMARK  status: ('A' for Active; 'I' for Inactive)
REMARK    1  A    between atoms: C8_9  and  O4_17
REMARK    2  A    between atoms: C12_14  and  O3_16
REMARK                            x       y       z     vdW  Elec       q    Type
REMARK                         _______ _______ _______ _____ _____    ______ ____
ROOT
ATOM      1  C   UNL     1      46.699  14.194  18.294  0.00  0.00    +0.031 A 
ATOM      2  C   UNL     1      45.989  14.712  19.355  0.00  0.00    +0.073 A 
ATOM      3  C   UNL     1      45.569  16.043  19.323  0.00  0.00    -0.188 A 
ATOM      4  C   UNL     1      44.806  16.623  20.448  0.00  0.00    +0.443 A 
ATOM      5  C   UNL     1      44.410  18.037  20.321  0.00  0.00    -0.280 A 
ATOM      6  C   UNL     1      43.687  18.671  21.334  0.00  0.00    +0.166 A 
ATOM      7  C   UNL     1      43.330  19.982  21.195  0.00  0.00    -0.051 A 
ATOM      8  C   UNL     1      43.684  20.688  20.048  0.00  0.00    +0.232 A 
ATOM     11  C   UNL     1      44.401  20.074  19.035  0.00  0.00    -0.107 A 
ATOM     12  C   UNL     1      44.772  18.740  19.159  0.00  0.00    +0.212 A 
ATOM     13  O   UNL     1      45.469  18.141  18.174  0.00  0.00    -0.220 OA
ATOM     14  O   UNL     1      44.521  15.965  21.432  0.00  0.00    -0.450 OA
ATOM     15  C   UNL     1      45.867  16.853  18.218  0.00  0.00    +0.121 A 
ATOM     16  C   UNL     1      46.588  16.309  17.154  0.00  0.00    +0.137 A 
ATOM     19  C   UNL     1      47.003  14.991  17.201  0.00  0.00    -0.010 A 
ENDROOT
BRANCH   8   9
ATOM      9  O   UNL     1      43.323  21.990  19.922  0.00  0.00    -0.496 OA
ATOM     10  H   UNL     1      42.523  22.402  20.555  0.00  0.00    +0.444 HD
ENDBRANCH   8   9
BRANCH  16  17
ATOM     17  O   UNL     1      46.888  17.077  16.073  0.00  0.00    -0.498 OA
ATOM     18  H   UNL     1      47.416  16.637  15.215  0.00  0.00    +0.440 HD
ENDBRANCH  16  17
TORSDOF 2
ENDMDL
MODEL 6
REMARK VINA RESULT:      -5.1     21.097     22.845
REMARK  Name = ZINC28456059
REMARK  2 active torsions:
REMARK  status: ('A' for Active; 'I' for Inactive)
REMARK    1  A    between atoms: C8_9  and  O4_17
REMARK    2  A    between atoms: C12_14  and  O3_16
REMARK                            x       y       z     vdW  Elec       q    Type
REMARK                         _______ _______ _______ _____ _____    ______ ____
ROOT
ATOM      1  C   UNL     1      50.654  32.925   3.271  0.00  0.00    +0.031 A 
ATOM      2  C   UNL     1      51.875  32.463   2.828  0.00  0.00    +0.073 A 
ATOM      3  C   UNL     1      53.033  32.778   3.540  0.00  0.00    -0.188 A 
ATOM      4  C   UNL     1      54.354  32.295   3.086  0.00  0.00    +0.443 A 
ATOM      5  C   UNL     1      55.519  32.681   3.904  0.00  0.00    -0.280 A 
ATOM      6  C   UNL     1      56.807  32.272   3.554  0.00  0.00    +0.166 A 
ATOM      7  C   UNL     1      57.871  32.642   4.326  0.00  0.00    -0.051 A 
ATOM      8  C   UNL     1      57.675  33.425   5.462  0.00  0.00    +0.232 A 
ATOM     11  C   UNL     1      56.404  33.839   5.822  0.00  0.00    -0.107 A 
ATOM     12  C   UNL     1      55.310  33.471   5.048  0.00  0.00    +0.212 A 
ATOM     13  O   UNL     1      54.072  33.874   5.398  0.00  0.00    -0.220 OA
ATOM     14  O   UNL     1      54.476  31.612   2.086  0.00  0.00    -0.450 OA
ATOM     15  C   UNL     1      52.962  33.561   4.701  0.00  0.00    +0.121 A 
ATOM     16  C   UNL     1      51.715  34.019   5.132  0.00  0.00    +0.137 A 
ATOM     19  C   UNL     1      50.576  33.705   4.414  0.00  0.00    -0.010 A 
ENDROOT
BRANCH   8   9
ATOM      9  O   UNL     1      58.741  33.786   6.221  0.00  0.00    -0.496 OA
ATOM     10  H   UNL     1      58.799  33.467   7.273  0.00  0.00    +0.444 HD
ENDBRANCH   8   9
BRANCH  16  17
ATOM     17  O   UNL     1      51.623  34.780   6.255  0.00  0.00    -0.498 OA
ATOM     18  H   UNL     1      50.793  34.623   6.958  0.00  0.00    +0.440 HD
ENDBRANCH  16  17
TORSDOF 2
ENDMDL
MODEL 7
REMARK VINA RESULT:      -4.9      3.706      5.649
REMARK  Name = ZINC28456059
REMARK  2 active torsions:
REMARK  status: ('A' for Active; 'I' for Inactive)
REMARK    1  A    between atoms: C8_9  and  O4_17
REMARK    2  A    between atoms: C12_14  and  O3_16
REMARK                            x       y       z     vdW  Elec       q    Type
REMARK                         _______ _______ _______ _____ _____    ______ ____
ROOT
ATOM      1  C   UNL     1      44.849  21.286  19.141  0.00  0.00    +0.031 A 
ATOM      2  C   UNL     1      45.198  20.047  18.649  0.00  0.00    +0.073 A 
ATOM      3  C   UNL     1      45.056  18.917  19.455  0.00  0.00    -0.188 A 
ATOM      4  C   UNL     1      45.423  17.577  18.951  0.00  0.00    +0.443 A 
ATOM      5  C   UNL     1      45.239  16.446  19.879  0.00  0.00    -0.280 A 
ATOM      6  C   UNL     1      45.558  15.143  19.491  0.00  0.00    +0.166 A 
ATOM      7  C   UNL     1      45.379  14.111  20.366  0.00  0.00    -0.051 A 
ATOM      8  C   UNL     1      44.878  14.352  21.644  0.00  0.00    +0.232 A 
ATOM     11  C   UNL     1      44.557  15.639  22.043  0.00  0.00    -0.107 A 
ATOM     12  C   UNL     1      44.732  16.701  21.165  0.00  0.00    +0.212 A 
ATOM     13  O   UNL     1      44.419  17.953  21.553  0.00  0.00    -0.220 OA
ATOM     14  O   UNL     1      45.858  17.416  17.825  0.00  0.00    -0.450 OA
ATOM     15  C   UNL     1      44.561  19.036  20.761  0.00  0.00    +0.121 A 
ATOM     16  C   UNL     1      44.214  20.301  21.241  0.00  0.00    +0.137 A 
ATOM     19  C   UNL     1      44.365  21.413  20.434  0.00  0.00    -0.010 A 
ENDROOT
BRANCH   8   9
ATOM      9  O   UNL     1      44.704  13.318  22.505  0.00  0.00    -0.496 OA
ATOM     10  H   UNL     1      44.042  12.482  22.233  0.00  0.00    +0.444 HD
ENDBRANCH   8   9
BRANCH  16  17
ATOM     17  O   UNL     1      43.732  20.439  22.505  0.00  0.00    -0.498 OA
ATOM     18  H   UNL     1      42.818  21.022  22.684  0.00  0.00    +0.440 HD
ENDBRANCH  16  17
TORSDOF 2
ENDMDL
MODEL 8
REMARK VINA RESULT:      -4.9      9.157      9.671
REMARK  Name = ZINC28456059
REMARK  2 active torsions:
REMARK  status: ('A' for Active; 'I' for Inactive)
REMARK    1  A    between atoms: C8_9  and  O4_17
REMARK    2  A    between atoms: C12_14  and  O3_16
REMARK                            x       y       z     vdW  Elec       q    Type
REMARK                         _______ _______ _______ _____ _____    ______ ____
ROOT
ATOM      1  C   UNL     1      52.549  16.220  21.882  0.00  0.00    +0.031 A 
ATOM      2  C   UNL     1      52.408  16.128  20.513  0.00  0.00    +0.073 A 
ATOM      3  C   UNL     1      52.278  17.290  19.752  0.00  0.00    -0.188 A 
ATOM      4  C   UNL     1      52.126  17.220  18.284  0.00  0.00    +0.443 A 
ATOM      5  C   UNL     1      51.993  18.503  17.568  0.00  0.00    -0.280 A 
ATOM      6  C   UNL     1      51.845  18.536  16.181  0.00  0.00    +0.166 A 
ATOM      7  C   UNL     1      51.724  19.735  15.539  0.00  0.00    -0.051 A 
ATOM      8  C   UNL     1      51.748  20.925  16.263  0.00  0.00    +0.232 A 
ATOM     11  C   UNL     1      51.895  20.908  17.640  0.00  0.00    -0.107 A 
ATOM     12  C   UNL     1      52.020  19.697  18.309  0.00  0.00    +0.212 A 
ATOM     13  O   UNL     1      52.162  19.680  19.650  0.00  0.00    -0.220 OA
ATOM     14  O   UNL     1      52.109  16.155  17.694  0.00  0.00    -0.450 OA
ATOM     15  C   UNL     1      52.289  18.548  20.372  0.00  0.00    +0.121 A 
ATOM     16  C   UNL     1      52.431  18.619  21.759  0.00  0.00    +0.137 A 
ATOM     19  C   UNL     1      52.554  17.459  22.502  0.00  0.00    -0.010 A 
ENDROOT
BRANCH   8   9
ATOM      9  O   UNL     1      51.628  22.110  15.613  0.00  0.00    -0.496 OA
ATOM     10  H   UNL     1      52.089  23.016  16.034  0.00  0.00    +0.444 HD
ENDBRANCH   8   9
BRANCH  16  17
ATOM     17  O   UNL     1      52.444  19.828  22.380  0.00  0.00    -0.498 OA
ATOM     18  H   UNL     1      52.506  20.751  21.785  0.00  0.00    +0.440 HD
ENDBRANCH  16  17
TORSDOF 2
ENDMDL
MODEL 9
REMARK VINA RESULT:      -4.9      4.922      7.038
REMARK  Name = ZINC28456059
REMARK  2 active torsions:
REMARK  status: ('A' for Active; 'I' for Inactive)
REMARK    1  A    between atoms: C8_9  and  O4_17
REMARK    2  A    between atoms: C12_14  and  O3_16
REMARK                            x       y       z     vdW  Elec       q    Type
REMARK                         _______ _______ _______ _____ _____    ______ ____
ROOT
ATOM      1  C   UNL     1      47.201  13.362  17.619  0.00  0.00    +0.031 A 
ATOM      2  C   UNL     1      47.181  14.692  17.255  0.00  0.00    +0.073 A 
ATOM      3  C   UNL     1      46.440  15.604  18.008  0.00  0.00    -0.188 A 
ATOM      4  C   UNL     1      46.403  17.034  17.640  0.00  0.00    +0.443 A 
ATOM      5  C   UNL     1      45.591  17.919  18.496  0.00  0.00    -0.280 A 
ATOM      6  C   UNL     1      45.495  19.285  18.226  0.00  0.00    +0.166 A 
ATOM      7  C   UNL     1      44.738  20.086  19.032  0.00  0.00    -0.051 A 
ATOM      8  C   UNL     1      44.061  19.544  20.123  0.00  0.00    +0.232 A 
ATOM     11  C   UNL     1      44.146  18.191  20.403  0.00  0.00    -0.107 A 
ATOM     12  C   UNL     1      44.913  17.362  19.594  0.00  0.00    +0.212 A 
ATOM     13  O   UNL     1      44.996  16.045  19.867  0.00  0.00    -0.220 OA
ATOM     14  O   UNL     1      47.011  17.462  16.676  0.00  0.00    -0.450 OA
ATOM     15  C   UNL     1      45.717  15.175  19.130  0.00  0.00    +0.121 A 
ATOM     16  C   UNL     1      45.750  13.824  19.481  0.00  0.00    +0.137 A 
ATOM     19  C   UNL     1      46.483  12.930  18.723  0.00  0.00    -0.010 A 
ENDROOT
BRANCH   8   9
ATOM      9  O   UNL     1      43.312  20.351  20.917  0.00  0.00    -0.496 OA
ATOM     10  H   UNL     1      42.865  19.951  21.840  0.00  0.00    +0.444 HD
ENDBRANCH   8   9
BRANCH  16  17
ATOM     17  O   UNL     1      45.056  13.387  20.565  0.00  0.00    -0.498 OA
ATOM     18  H   UNL     1      45.146  13.915  21.525  0.00  0.00    +0.440 HD
ENDBRANCH  16  17
TORSDOF 2
ENDMDL
