MODEL 1
REMARK VINA RESULT:      -6.2      0.000      0.000
REMARK  Name = ZINC95486234
REMARK  12 active torsions:
REMARK  status: ('A' for Active; 'I' for Inactive)
REMARK    1  A    between atoms: C3_3  and  O12_38
REMARK    2  A    between atoms: C6_6  and  C7_7
REMARK    3  A    between atoms: C8_8  and  O11_37
REMARK    4  A    between atoms: C13_15  and  O10_36
REMARK    5  A    between atoms: C14_16  and  O9_35
REMARK    6  A    between atoms: C15_17  and  O3_18
REMARK    7  A    between atoms: O3_18  and  C16_19
REMARK    8  A    between atoms: C17_21  and  O8_34
REMARK    9  A    between atoms: C18_23  and  O7_33
REMARK   10  A    between atoms: C19_25  and  O6_32
REMARK   11  A    between atoms: C20_27  and  C21_30
REMARK   12  A    between atoms: C21_30  and  O5_31
REMARK                            x       y       z     vdW  Elec       q    Type
REMARK                         _______ _______ _______ _____ _____    ______ ____
ROOT
ATOM      9  C   UNL     1      47.753  19.758  19.436  0.00  0.00    +0.139 A 
ATOM     10  C   UNL     1      47.379  18.461  19.624  0.00  0.00    -0.046 A 
ATOM     13  C   UNL     1      48.157  17.421  19.056  0.00  0.00    +0.401 A 
ATOM     14  C   UNL     1      49.347  17.809  18.282  0.00  0.00    -0.242 A 
ATOM     15  C   UNL     1      49.646  19.177  18.150  0.00  0.00    +0.171 A 
ATOM     16  C   UNL     1      50.762  19.564  17.425  0.00  0.00    +0.002 A 
ATOM     17  C   UNL     1      51.576  18.609  16.839  0.00  0.00    +0.165 A 
ATOM     20  C   UNL     1      51.284  17.252  16.967  0.00  0.00    +0.059 A 
ATOM     23  C   UNL     1      50.172  16.846  17.687  0.00  0.00    +0.171 A 
ATOM     40  O   UNL     1      47.851  16.247  19.203  0.00  0.00    -0.446 OA
ATOM     41  O   UNL     1      48.842  20.098  18.722  0.00  0.00    -0.196 OA
ENDROOT
BRANCH   9   8
ATOM      1  C   UNL     1      45.839  21.346  19.334  0.00  0.00    +0.090 A 
ATOM      2  C   UNL     1      45.077  22.346  19.896  0.00  0.00    -0.012 A 
ATOM      3  C   UNL     1      45.395  22.840  21.154  0.00  0.00    +0.129 A 
ATOM      6  C   UNL     1      46.481  22.328  21.853  0.00  0.00    -0.013 A 
ATOM      7  C   UNL     1      47.249  21.329  21.300  0.00  0.00    +0.069 A 
ATOM      8  C   UNL     1      46.934  20.828  20.033  0.00  0.00    -0.064 A 
BRANCH   3   4
ATOM      4  O   UNL     1      44.640  23.827  21.704  0.00  0.00    -0.498 OA
ATOM      5  H   UNL     1      45.018  24.210  22.508  0.00  0.00    +0.396 HD
ENDBRANCH   3   4
ENDBRANCH   9   8
BRANCH  10  11
ATOM     11  O   UNL     1      46.266  18.168  20.350  0.00  0.00    -0.448 OA
ATOM     12  H   UNL     1      46.244  18.587  21.222  0.00  0.00    +0.407 HD
ENDBRANCH  10  11
BRANCH  17  18
ATOM     18  O   UNL     1      52.668  18.998  16.130  0.00  0.00    -0.473 OA
ATOM     19  H   UNL     1      52.628  19.912  15.817  0.00  0.00    +0.401 HD
ENDBRANCH  17  18
BRANCH  20  21
ATOM     21  O   UNL     1      52.093  16.324  16.384  0.00  0.00    -0.455 OA
ATOM     22  H   UNL     1      52.034  16.302  15.419  0.00  0.00    +0.387 HD
ENDBRANCH  20  21
BRANCH  23  24
ATOM     24  O   UNL     1      49.885  15.525  17.815  0.00  0.00    -0.290 OA
BRANCH  24  25
ATOM     25  C   UNL     1      49.774  14.765  16.610  0.00  0.00    +0.308 C 
ATOM     26  C   UNL     1      48.389  14.116  16.541  0.00  0.00    +0.148 C 
ATOM     29  C   UNL     1      48.299  13.256  15.277  0.00  0.00    +0.163 C 
ATOM     32  C   UNL     1      49.427  12.218  15.297  0.00  0.00    +0.171 C 
ATOM     35  C   UNL     1      50.772  12.940  15.415  0.00  0.00    +0.187 C 
ATOM     39  O   UNL     1      50.777  13.747  16.595  0.00  0.00    -0.363 OA
BRANCH  26  27
ATOM     27  O   UNL     1      47.387  15.134  16.500  0.00  0.00    -0.546 OA
ATOM     28  H   UNL     1      47.419  15.749  17.245  0.00  0.00    +0.397 HD
ENDBRANCH  26  27
BRANCH  29  30
ATOM     30  O   UNL     1      47.036  12.589  15.241  0.00  0.00    -0.555 OA
ATOM     31  H   UNL     1      47.084  11.644  15.435  0.00  0.00    +0.396 HD
ENDBRANCH  29  30
BRANCH  32  33
ATOM     33  O   UNL     1      49.396  11.456  14.090  0.00  0.00    -0.550 OA
ATOM     34  H   UNL     1      50.224  11.476  13.590  0.00  0.00    +0.394 HD
ENDBRANCH  32  33
BRANCH  35  36
ATOM     36  C   UNL     1      51.899  11.911  15.496  0.00  0.00    +0.226 C 
BRANCH  36  37
ATOM     37  O   UNL     1      52.324  11.562  14.177  0.00  0.00    -0.563 OA
ATOM     38  H   UNL     1      51.791  11.956  13.475  0.00  0.00    +0.383 HD
ENDBRANCH  36  37
ENDBRANCH  35  36
ENDBRANCH  24  25
ENDBRANCH  23  24
TORSDOF 12
ENDMDL
MODEL 2
REMARK VINA RESULT:      -6.1      3.279      6.518
REMARK  Name = ZINC95486234
REMARK  12 active torsions:
REMARK  status: ('A' for Active; 'I' for Inactive)
REMARK    1  A    between atoms: C3_3  and  O12_38
REMARK    2  A    between atoms: C6_6  and  C7_7
REMARK    3  A    between atoms: C8_8  and  O11_37
REMARK    4  A    between atoms: C13_15  and  O10_36
REMARK    5  A    between atoms: C14_16  and  O9_35
REMARK    6  A    between atoms: C15_17  and  O3_18
REMARK    7  A    between atoms: O3_18  and  C16_19
REMARK    8  A    between atoms: C17_21  and  O8_34
REMARK    9  A    between atoms: C18_23  and  O7_33
REMARK   10  A    between atoms: C19_25  and  O6_32
REMARK   11  A    between atoms: C20_27  and  C21_30
REMARK   12  A    between atoms: C21_30  and  O5_31
REMARK                            x       y       z     vdW  Elec       q    Type
REMARK                         _______ _______ _______ _____ _____    ______ ____
ROOT
ATOM      9  C   UNL     1      44.196  19.865  19.317  0.00  0.00    +0.139 A 
ATOM     10  C   UNL     1      44.967  20.290  20.357  0.00  0.00    -0.046 A 
ATOM     13  C   UNL     1      46.282  19.781  20.504  0.00  0.00    +0.401 A 
ATOM     14  C   UNL     1      46.747  18.804  19.505  0.00  0.00    -0.242 A 
ATOM     15  C   UNL     1      45.870  18.434  18.470  0.00  0.00    +0.171 A 
ATOM     16  C   UNL     1      46.288  17.516  17.519  0.00  0.00    +0.002 A 
ATOM     17  C   UNL     1      47.560  16.971  17.591  0.00  0.00    +0.165 A 
ATOM     20  C   UNL     1      48.432  17.335  18.616  0.00  0.00    +0.059 A 
ATOM     23  C   UNL     1      48.031  18.251  19.575  0.00  0.00    +0.171 A 
ATOM     40  O   UNL     1      47.001  20.138  21.424  0.00  0.00    -0.446 OA
ATOM     41  O   UNL     1      44.632  18.969  18.414  0.00  0.00    -0.196 OA
ENDROOT
BRANCH   9   8
ATOM      1  C   UNL     1      42.638  21.741  18.817  0.00  0.00    +0.090 A 
ATOM      2  C   UNL     1      41.361  22.240  18.688  0.00  0.00    -0.012 A 
ATOM      3  C   UNL     1      40.265  21.418  18.917  0.00  0.00    +0.129 A 
ATOM      6  C   UNL     1      40.452  20.088  19.275  0.00  0.00    -0.013 A 
ATOM      7  C   UNL     1      41.724  19.580  19.406  0.00  0.00    +0.069 A 
ATOM      8  C   UNL     1      42.831  20.404  19.178  0.00  0.00    -0.064 A 
BRANCH   3   4
ATOM      4  O   UNL     1      39.007  21.915  18.789  0.00  0.00    -0.498 OA
ATOM      5  H   UNL     1      38.741  22.081  17.875  0.00  0.00    +0.396 HD
ENDBRANCH   3   4
ENDBRANCH   9   8
BRANCH  10  11
ATOM     11  O   UNL     1      44.478  21.196  21.247  0.00  0.00    -0.448 OA
ATOM     12  H   UNL     1      44.299  20.829  22.124  0.00  0.00    +0.407 HD
ENDBRANCH  10  11
BRANCH  17  18
ATOM     18  O   UNL     1      47.960  16.071  16.654  0.00  0.00    -0.473 OA
ATOM     19  H   UNL     1      48.834  16.253  16.283  0.00  0.00    +0.401 HD
ENDBRANCH  17  18
BRANCH  20  21
ATOM     21  O   UNL     1      49.678  16.790  18.673  0.00  0.00    -0.455 OA
ATOM     22  H   UNL     1      50.284  17.255  19.267  0.00  0.00    +0.387 HD
ENDBRANCH  20  21
BRANCH  23  24
ATOM     24  O   UNL     1      48.878  18.609  20.575  0.00  0.00    -0.290 OA
BRANCH  24  25
ATOM     25  C   UNL     1      50.177  19.068  20.193  0.00  0.00    +0.308 C 
ATOM     26  C   UNL     1      50.796  19.861  21.346  0.00  0.00    +0.148 C 
ATOM     29  C   UNL     1      52.162  20.400  20.908  0.00  0.00    +0.163 C 
ATOM     32  C   UNL     1      51.983  21.250  19.646  0.00  0.00    +0.171 C 
ATOM     35  C   UNL     1      51.317  20.403  18.559  0.00  0.00    +0.187 C 
ATOM     39  O   UNL     1      50.066  19.908  19.042  0.00  0.00    -0.363 OA
BRANCH  26  27
ATOM     27  O   UNL     1      50.960  19.008  22.480  0.00  0.00    -0.546 OA
ATOM     28  H   UNL     1      50.847  19.456  23.330  0.00  0.00    +0.397 HD
ENDBRANCH  26  27
BRANCH  29  30
ATOM     30  O   UNL     1      52.717  21.202  21.953  0.00  0.00    -0.555 OA
ATOM     31  H   UNL     1      52.284  21.087  22.809  0.00  0.00    +0.396 HD
ENDBRANCH  29  30
BRANCH  32  33
ATOM     33  O   UNL     1      53.259  21.700  19.188  0.00  0.00    -0.550 OA
ATOM     34  H   UNL     1      53.373  22.660  19.220  0.00  0.00    +0.394 HD
ENDBRANCH  32  33
BRANCH  35  36
ATOM     36  C   UNL     1      51.079  21.261  17.316  0.00  0.00    +0.226 C 
BRANCH  36  37
ATOM     37  O   UNL     1      52.250  21.251  16.497  0.00  0.00    -0.563 OA
ATOM     38  H   UNL     1      52.946  21.851  16.796  0.00  0.00    +0.383 HD
ENDBRANCH  36  37
ENDBRANCH  35  36
ENDBRANCH  24  25
ENDBRANCH  23  24
TORSDOF 12
ENDMDL
MODEL 3
REMARK VINA RESULT:      -5.8      3.249      9.557
REMARK  Name = ZINC95486234
REMARK  12 active torsions:
REMARK  status: ('A' for Active; 'I' for Inactive)
REMARK    1  A    between atoms: C3_3  and  O12_38
REMARK    2  A    between atoms: C6_6  and  C7_7
REMARK    3  A    between atoms: C8_8  and  O11_37
REMARK    4  A    between atoms: C13_15  and  O10_36
REMARK    5  A    between atoms: C14_16  and  O9_35
REMARK    6  A    between atoms: C15_17  and  O3_18
REMARK    7  A    between atoms: O3_18  and  C16_19
REMARK    8  A    between atoms: C17_21  and  O8_34
REMARK    9  A    between atoms: C18_23  and  O7_33
REMARK   10  A    between atoms: C19_25  and  O6_32
REMARK   11  A    between atoms: C20_27  and  C21_30
REMARK   12  A    between atoms: C21_30  and  O5_31
REMARK                            x       y       z     vdW  Elec       q    Type
REMARK                         _______ _______ _______ _____ _____    ______ ____
ROOT
ATOM      9  C   UNL     1      47.591  14.734  17.573  0.00  0.00    +0.139 A 
ATOM     10  C   UNL     1      47.525  16.093  17.477  0.00  0.00    -0.046 A 
ATOM     13  C   UNL     1      46.799  16.826  18.449  0.00  0.00    +0.401 A 
ATOM     14  C   UNL     1      46.145  16.064  19.525  0.00  0.00    -0.242 A 
ATOM     15  C   UNL     1      46.277  14.664  19.532  0.00  0.00    +0.171 A 
ATOM     16  C   UNL     1      45.669  13.927  20.536  0.00  0.00    +0.002 A 
ATOM     17  C   UNL     1      44.940  14.567  21.525  0.00  0.00    +0.165 A 
ATOM     20  C   UNL     1      44.807  15.955  21.522  0.00  0.00    +0.059 A 
ATOM     23  C   UNL     1      45.407  16.708  20.526  0.00  0.00    +0.171 A 
ATOM     40  O   UNL     1      46.717  18.044  18.394  0.00  0.00    -0.446 OA
ATOM     41  O   UNL     1      46.985  14.051  18.560  0.00  0.00    -0.196 OA
ENDROOT
BRANCH   9   8
ATOM      1  C   UNL     1      47.677  13.291  15.546  0.00  0.00    +0.090 A 
ATOM      2  C   UNL     1      48.392  12.594  14.598  0.00  0.00    -0.012 A 
ATOM      3  C   UNL     1      49.780  12.579  14.642  0.00  0.00    +0.129 A 
ATOM      6  C   UNL     1      50.454  13.269  15.643  0.00  0.00    -0.013 A 
ATOM      7  C   UNL     1      49.749  13.970  16.595  0.00  0.00    +0.069 A 
ATOM      8  C   UNL     1      48.351  13.986  16.555  0.00  0.00    -0.064 A 
BRANCH   3   4
ATOM      4  O   UNL     1      50.480  11.889  13.705  0.00  0.00    -0.498 OA
ATOM      5  H   UNL     1      51.068  12.440  13.169  0.00  0.00    +0.396 HD
ENDBRANCH   3   4
ENDBRANCH   9   8
BRANCH  10  11
ATOM     11  O   UNL     1      48.153  16.739  16.457  0.00  0.00    -0.448 OA
ATOM     12  H   UNL     1      49.091  16.521  16.371  0.00  0.00    +0.407 HD
ENDBRANCH  10  11
BRANCH  17  18
ATOM     18  O   UNL     1      44.348  13.837  22.505  0.00  0.00    -0.473 OA
ATOM     19  H   UNL     1      44.121  14.348  23.294  0.00  0.00    +0.401 HD
ENDBRANCH  17  18
BRANCH  20  21
ATOM     21  O   UNL     1      44.087  16.571  22.500  0.00  0.00    -0.455 OA
ATOM     22  H   UNL     1      44.629  17.024  23.161  0.00  0.00    +0.387 HD
ENDBRANCH  20  21
BRANCH  23  24
ATOM     24  O   UNL     1      45.281  18.060  20.520  0.00  0.00    -0.290 OA
BRANCH  24  25
ATOM     25  C   UNL     1      44.091  18.599  19.938  0.00  0.00    +0.308 C 
ATOM     26  C   UNL     1      44.265  20.104  19.723  0.00  0.00    +0.148 C 
ATOM     29  C   UNL     1      42.966  20.683  19.155  0.00  0.00    +0.163 C 
ATOM     32  C   UNL     1      41.814  20.362  20.112  0.00  0.00    +0.171 C 
ATOM     35  C   UNL     1      41.735  18.846  20.313  0.00  0.00    +0.187 C 
ATOM     39  O   UNL     1      42.985  18.367  20.813  0.00  0.00    -0.363 OA
BRANCH  26  27
ATOM     27  O   UNL     1      45.334  20.335  18.804  0.00  0.00    -0.546 OA
ATOM     28  H   UNL     1      45.117  20.956  18.095  0.00  0.00    +0.397 HD
ENDBRANCH  26  27
BRANCH  29  30
ATOM     30  O   UNL     1      43.094  22.100  19.018  0.00  0.00    -0.555 OA
ATOM     31  H   UNL     1      43.718  22.500  19.638  0.00  0.00    +0.396 HD
ENDBRANCH  29  30
BRANCH  32  33
ATOM     33  O   UNL     1      40.586  20.836  19.558  0.00  0.00    -0.550 OA
ATOM     34  H   UNL     1      40.293  21.685  19.918  0.00  0.00    +0.394 HD
ENDBRANCH  32  33
BRANCH  35  36
ATOM     36  C   UNL     1      40.627  18.519  21.314  0.00  0.00    +0.226 C 
BRANCH  36  37
ATOM     37  O   UNL     1      40.392  19.652  22.153  0.00  0.00    -0.563 OA
ATOM     38  H   UNL     1      41.060  19.779  22.839  0.00  0.00    +0.383 HD
ENDBRANCH  36  37
ENDBRANCH  35  36
ENDBRANCH  24  25
ENDBRANCH  23  24
TORSDOF 12
ENDMDL
MODEL 4
REMARK VINA RESULT:      -5.6      2.712      9.784
REMARK  Name = ZINC95486234
REMARK  12 active torsions:
REMARK  status: ('A' for Active; 'I' for Inactive)
REMARK    1  A    between atoms: C3_3  and  O12_38
REMARK    2  A    between atoms: C6_6  and  C7_7
REMARK    3  A    between atoms: C8_8  and  O11_37
REMARK    4  A    between atoms: C13_15  and  O10_36
REMARK    5  A    between atoms: C14_16  and  O9_35
REMARK    6  A    between atoms: C15_17  and  O3_18
REMARK    7  A    between atoms: O3_18  and  C16_19
REMARK    8  A    between atoms: C17_21  and  O8_34
REMARK    9  A    between atoms: C18_23  and  O7_33
REMARK   10  A    between atoms: C19_25  and  O6_32
REMARK   11  A    between atoms: C20_27  and  C21_30
REMARK   12  A    between atoms: C21_30  and  O5_31
REMARK                            x       y       z     vdW  Elec       q    Type
REMARK                         _______ _______ _______ _____ _____    ______ ____
ROOT
ATOM      9  C   UNL     1      50.605  12.663  13.247  0.00  0.00    +0.139 A 
ATOM     10  C   UNL     1      51.486  13.405  13.976  0.00  0.00    -0.046 A 
ATOM     13  C   UNL     1      51.083  13.934  15.228  0.00  0.00    +0.401 A 
ATOM     14  C   UNL     1      49.712  13.645  15.677  0.00  0.00    -0.242 A 
ATOM     15  C   UNL     1      48.884  12.867  14.849  0.00  0.00    +0.171 A 
ATOM     16  C   UNL     1      47.589  12.583  15.253  0.00  0.00    +0.002 A 
ATOM     17  C   UNL     1      47.117  13.062  16.465  0.00  0.00    +0.165 A 
ATOM     20  C   UNL     1      47.935  13.834  17.289  0.00  0.00    +0.059 A 
ATOM     23  C   UNL     1      49.232  14.128  16.901  0.00  0.00    +0.171 A 
ATOM     40  O   UNL     1      51.845  14.605  15.908  0.00  0.00    -0.446 OA
ATOM     41  O   UNL     1      49.353  12.410  13.669  0.00  0.00    -0.196 OA
ENDROOT
BRANCH   9   8
ATOM      1  C   UNL     1      51.452  10.787  11.846  0.00  0.00    +0.090 A 
ATOM      2  C   UNL     1      51.856  10.284  10.630  0.00  0.00    -0.012 A 
ATOM      3  C   UNL     1      51.855  11.098   9.504  0.00  0.00    +0.129 A 
ATOM      6  C   UNL     1      51.446  12.423   9.600  0.00  0.00    -0.013 A 
ATOM      7  C   UNL     1      51.039  12.934  10.811  0.00  0.00    +0.069 A 
ATOM      8  C   UNL     1      51.039  12.119  11.947  0.00  0.00    -0.064 A 
BRANCH   3   4
ATOM      4  O   UNL     1      52.256  10.597   8.307  0.00  0.00    -0.498 OA
ATOM      5  H   UNL     1      52.535  11.272   7.672  0.00  0.00    +0.396 HD
ENDBRANCH   3   4
ENDBRANCH   9   8
BRANCH  10  11
ATOM     11  O   UNL     1      52.741  13.636  13.504  0.00  0.00    -0.448 OA
ATOM     12  H   UNL     1      53.431  13.583  14.180  0.00  0.00    +0.407 HD
ENDBRANCH  10  11
BRANCH  17  18
ATOM     18  O   UNL     1      45.846  12.779  16.852  0.00  0.00    -0.473 OA
ATOM     19  H   UNL     1      45.498  11.955  16.486  0.00  0.00    +0.401 HD
ENDBRANCH  17  18
BRANCH  20  21
ATOM     21  O   UNL     1      47.458  14.299  18.477  0.00  0.00    -0.455 OA
ATOM     22  H   UNL     1      46.775  13.740  18.872  0.00  0.00    +0.387 HD
ENDBRANCH  20  21
BRANCH  23  24
ATOM     24  O   UNL     1      50.032  14.880  17.702  0.00  0.00    -0.290 OA
BRANCH  24  25
ATOM     25  C   UNL     1      49.907  16.300  17.596  0.00  0.00    +0.308 C 
ATOM     26  C   UNL     1      51.051  16.970  18.360  0.00  0.00    +0.148 C 
ATOM     29  C   UNL     1      50.877  18.491  18.291  0.00  0.00    +0.163 C 
ATOM     32  C   UNL     1      49.503  18.863  18.857  0.00  0.00    +0.171 C 
ATOM     35  C   UNL     1      48.419  18.118  18.074  0.00  0.00    +0.187 C 
ATOM     39  O   UNL     1      48.657  16.711  18.152  0.00  0.00    -0.363 OA
BRANCH  26  27
ATOM     27  O   UNL     1      52.300  16.604  17.769  0.00  0.00    -0.546 OA
ATOM     28  H   UNL     1      52.342  16.754  16.814  0.00  0.00    +0.397 HD
ENDBRANCH  26  27
BRANCH  29  30
ATOM     30  O   UNL     1      51.901  19.124  19.062  0.00  0.00    -0.555 OA
ATOM     31  H   UNL     1      52.564  18.514  19.412  0.00  0.00    +0.396 HD
ENDBRANCH  29  30
BRANCH  32  33
ATOM     33  O   UNL     1      49.301  20.272  18.733  0.00  0.00    -0.550 OA
ATOM     34  H   UNL     1      49.197  20.576  17.822  0.00  0.00    +0.394 HD
ENDBRANCH  32  33
BRANCH  35  36
ATOM     36  C   UNL     1      47.047  18.437  18.671  0.00  0.00    +0.226 C 
BRANCH  36  37
ATOM     37  O   UNL     1      46.083  18.542  17.622  0.00  0.00    -0.563 OA
ATOM     38  H   UNL     1      46.346  18.108  16.800  0.00  0.00    +0.383 HD
ENDBRANCH  36  37
ENDBRANCH  35  36
ENDBRANCH  24  25
ENDBRANCH  23  24
TORSDOF 12
ENDMDL
MODEL 5
REMARK VINA RESULT:      -5.5      3.895      9.294
REMARK  Name = ZINC95486234
REMARK  12 active torsions:
REMARK  status: ('A' for Active; 'I' for Inactive)
REMARK    1  A    between atoms: C3_3  and  O12_38
REMARK    2  A    between atoms: C6_6  and  C7_7
REMARK    3  A    between atoms: C8_8  and  O11_37
REMARK    4  A    between atoms: C13_15  and  O10_36
REMARK    5  A    between atoms: C14_16  and  O9_35
REMARK    6  A    between atoms: C15_17  and  O3_18
REMARK    7  A    between atoms: O3_18  and  C16_19
REMARK    8  A    between atoms: C17_21  and  O8_34
REMARK    9  A    between atoms: C18_23  and  O7_33
REMARK   10  A    between atoms: C19_25  and  O6_32
REMARK   11  A    between atoms: C20_27  and  C21_30
REMARK   12  A    between atoms: C21_30  and  O5_31
REMARK                            x       y       z     vdW  Elec       q    Type
REMARK                         _______ _______ _______ _____ _____    ______ ____
ROOT
ATOM      9  C   UNL     1      49.335  18.068  20.352  0.00  0.00    +0.139 A 
ATOM     10  C   UNL     1      49.057  19.402  20.340  0.00  0.00    -0.046 A 
ATOM     13  C   UNL     1      47.761  19.849  20.700  0.00  0.00    +0.401 A 
ATOM     14  C   UNL     1      46.771  18.826  21.074  0.00  0.00    -0.242 A 
ATOM     15  C   UNL     1      47.162  17.475  21.055  0.00  0.00    +0.171 A 
ATOM     16  C   UNL     1      46.245  16.495  21.404  0.00  0.00    +0.002 A 
ATOM     17  C   UNL     1      44.956  16.848  21.769  0.00  0.00    +0.165 A 
ATOM     20  C   UNL     1      44.564  18.186  21.790  0.00  0.00    +0.059 A 
ATOM     23  C   UNL     1      45.467  19.178  21.444  0.00  0.00    +0.171 A 
ATOM     40  O   UNL     1      47.476  21.037  20.699  0.00  0.00    -0.446 OA
ATOM     41  O   UNL     1      48.419  17.144  20.692  0.00  0.00    -0.196 OA
ENDROOT
BRANCH   9   8
ATOM      1  C   UNL     1      51.673  17.462  20.955  0.00  0.00    +0.090 A 
ATOM      2  C   UNL     1      52.936  17.043  20.598  0.00  0.00    -0.012 A 
ATOM      3  C   UNL     1      53.231  16.779  19.267  0.00  0.00    +0.129 A 
ATOM      6  C   UNL     1      52.255  16.934  18.289  0.00  0.00    -0.013 A 
ATOM      7  C   UNL     1      50.990  17.352  18.637  0.00  0.00    +0.069 A 
ATOM      8  C   UNL     1      50.688  17.620  19.975  0.00  0.00    -0.064 A 
BRANCH   3   4
ATOM      4  O   UNL     1      54.478  16.367  18.919  0.00  0.00    -0.498 OA
ATOM      5  H   UNL     1      54.541  15.420  18.730  0.00  0.00    +0.396 HD
ENDBRANCH   3   4
ENDBRANCH   9   8
BRANCH  10  11
ATOM     11  O   UNL     1      50.018  20.298  19.984  0.00  0.00    -0.448 OA
ATOM     12  H   UNL     1      49.954  20.601  19.067  0.00  0.00    +0.407 HD
ENDBRANCH  10  11
BRANCH  17  18
ATOM     18  O   UNL     1      44.064  15.881  22.109  0.00  0.00    -0.473 OA
ATOM     19  H   UNL     1      43.285  16.211  22.578  0.00  0.00    +0.401 HD
ENDBRANCH  17  18
BRANCH  20  21
ATOM     21  O   UNL     1      43.294  18.517  22.150  0.00  0.00    -0.455 OA
ATOM     22  H   UNL     1      42.905  17.926  22.809  0.00  0.00    +0.387 HD
ENDBRANCH  20  21
BRANCH  23  24
ATOM     24  O   UNL     1      45.090  20.483  21.463  0.00  0.00    -0.290 OA
BRANCH  24  25
ATOM     25  C   UNL     1      44.414  20.981  20.306  0.00  0.00    +0.308 C 
ATOM     26  C   UNL     1      44.296  22.504  20.400  0.00  0.00    +0.148 C 
ATOM     29  C   UNL     1      43.518  23.023  19.186  0.00  0.00    +0.163 C 
ATOM     32  C   UNL     1      42.150  22.336  19.138  0.00  0.00    +0.171 C 
ATOM     35  C   UNL     1      42.351  20.819  19.093  0.00  0.00    +0.187 C 
ATOM     39  O   UNL     1      43.108  20.405  20.233  0.00  0.00    -0.363 OA
BRANCH  26  27
ATOM     27  O   UNL     1      45.601  23.084  20.416  0.00  0.00    -0.546 OA
ATOM     28  H   UNL     1      45.651  23.952  19.993  0.00  0.00    +0.397 HD
ENDBRANCH  26  27
BRANCH  29  30
ATOM     30  O   UNL     1      43.341  24.437  19.302  0.00  0.00    -0.555 OA
ATOM     31  H   UNL     1      42.458  24.699  19.594  0.00  0.00    +0.396 HD
ENDBRANCH  29  30
BRANCH  32  33
ATOM     33  O   UNL     1      41.444  22.760  17.971  0.00  0.00    -0.550 OA
ATOM     34  H   UNL     1      41.948  23.355  17.400  0.00  0.00    +0.394 HD
ENDBRANCH  32  33
BRANCH  35  36
ATOM     36  C   UNL     1      40.990  20.122  19.105  0.00  0.00    +0.226 C 
BRANCH  36  37
ATOM     37  O   UNL     1      40.045  20.931  19.808  0.00  0.00    -0.563 OA
ATOM     38  H   UNL     1      39.173  20.968  19.394  0.00  0.00    +0.383 HD
ENDBRANCH  36  37
ENDBRANCH  35  36
ENDBRANCH  24  25
ENDBRANCH  23  24
TORSDOF 12
ENDMDL
MODEL 6
REMARK VINA RESULT:      -5.3      3.433      4.081
REMARK  Name = ZINC95486234
REMARK  12 active torsions:
REMARK  status: ('A' for Active; 'I' for Inactive)
REMARK    1  A    between atoms: C3_3  and  O12_38
REMARK    2  A    between atoms: C6_6  and  C7_7
REMARK    3  A    between atoms: C8_8  and  O11_37
REMARK    4  A    between atoms: C13_15  and  O10_36
REMARK    5  A    between atoms: C14_16  and  O9_35
REMARK    6  A    between atoms: C15_17  and  O3_18
REMARK    7  A    between atoms: O3_18  and  C16_19
REMARK    8  A    between atoms: C17_21  and  O8_34
REMARK    9  A    between atoms: C18_23  and  O7_33
REMARK   10  A    between atoms: C19_25  and  O6_32
REMARK   11  A    between atoms: C20_27  and  C21_30
REMARK   12  A    between atoms: C21_30  and  O5_31
REMARK                            x       y       z     vdW  Elec       q    Type
REMARK                         _______ _______ _______ _____ _____    ______ ____
ROOT
ATOM      9  C   UNL     1      47.133  20.100  19.603  0.00  0.00    +0.139 A 
ATOM     10  C   UNL     1      47.469  19.084  20.447  0.00  0.00    -0.046 A 
ATOM     13  C   UNL     1      48.810  18.625  20.489  0.00  0.00    +0.401 A 
ATOM     14  C   UNL     1      49.780  19.287  19.601  0.00  0.00    -0.242 A 
ATOM     15  C   UNL     1      49.329  20.327  18.770  0.00  0.00    +0.171 A 
ATOM     16  C   UNL     1      50.226  20.963  17.926  0.00  0.00    +0.002 A 
ATOM     17  C   UNL     1      51.557  20.576  17.906  0.00  0.00    +0.165 A 
ATOM     20  C   UNL     1      52.008  19.544  18.729  0.00  0.00    +0.059 A 
ATOM     23  C   UNL     1      51.125  18.897  19.578  0.00  0.00    +0.171 A 
ATOM     40  O   UNL     1      49.147  17.716  21.232  0.00  0.00    -0.446 OA
ATOM     41  O   UNL     1      48.030  20.692  18.795  0.00  0.00    -0.196 OA
ENDROOT
BRANCH   9   8
ATOM      1  C   UNL     1      44.771  19.844  18.861  0.00  0.00    +0.090 A 
ATOM      2  C   UNL     1      43.466  20.283  18.835  0.00  0.00    -0.012 A 
ATOM      3  C   UNL     1      43.106  21.440  19.513  0.00  0.00    +0.129 A 
ATOM      6  C   UNL     1      44.060  22.160  20.222  0.00  0.00    -0.013 A 
ATOM      7  C   UNL     1      45.367  21.729  20.254  0.00  0.00    +0.069 A 
ATOM      8  C   UNL     1      45.734  20.565  19.572  0.00  0.00    -0.064 A 
BRANCH   3   4
ATOM      4  O   UNL     1      41.817  21.869  19.484  0.00  0.00    -0.498 OA
ATOM      5  H   UNL     1      41.496  22.090  18.599  0.00  0.00    +0.396 HD
ENDBRANCH   3   4
ENDBRANCH   9   8
BRANCH  10  11
ATOM     11  O   UNL     1      46.524  18.514  21.244  0.00  0.00    -0.448 OA
ATOM     12  H   UNL     1      46.297  19.039  22.023  0.00  0.00    +0.407 HD
ENDBRANCH  10  11
BRANCH  17  18
ATOM     18  O   UNL     1      52.428  21.205  17.076  0.00  0.00    -0.473 OA
ATOM     19  H   UNL     1      53.244  20.711  16.914  0.00  0.00    +0.401 HD
ENDBRANCH  17  18
BRANCH  20  21
ATOM     21  O   UNL     1      53.318  19.174  18.698  0.00  0.00    -0.455 OA
ATOM     22  H   UNL     1      53.458  18.243  18.477  0.00  0.00    +0.387 HD
ENDBRANCH  20  21
BRANCH  23  24
ATOM     24  O   UNL     1      51.561  17.893  20.382  0.00  0.00    -0.290 OA
BRANCH  24  25
ATOM     25  C   UNL     1      52.201  16.784  19.746  0.00  0.00    +0.308 C 
ATOM     26  C   UNL     1      51.511  15.485  20.171  0.00  0.00    +0.148 C 
ATOM     29  C   UNL     1      52.239  14.298  19.533  0.00  0.00    +0.163 C 
ATOM     32  C   UNL     1      53.714  14.335  19.947  0.00  0.00    +0.171 C 
ATOM     35  C   UNL     1      54.319  15.678  19.532  0.00  0.00    +0.187 C 
ATOM     39  O   UNL     1      53.576  16.741  20.134  0.00  0.00    -0.363 OA
BRANCH  26  27
ATOM     27  O   UNL     1      50.150  15.503  19.734  0.00  0.00    -0.546 OA
ATOM     28  H   UNL     1      49.842  14.660  19.373  0.00  0.00    +0.397 HD
ENDBRANCH  26  27
BRANCH  29  30
ATOM     30  O   UNL     1      51.646  13.077  19.981  0.00  0.00    -0.555 OA
ATOM     31  H   UNL     1      50.703  13.148  20.180  0.00  0.00    +0.396 HD
ENDBRANCH  29  30
BRANCH  32  33
ATOM     33  O   UNL     1      54.418  13.273  19.301  0.00  0.00    -0.550 OA
ATOM     34  H   UNL     1      54.014  12.402  19.422  0.00  0.00    +0.394 HD
ENDBRANCH  32  33
BRANCH  35  36
ATOM     36  C   UNL     1      55.774  15.748  19.994  0.00  0.00    +0.226 C 
BRANCH  36  37
ATOM     37  O   UNL     1      56.640  15.465  18.893  0.00  0.00    -0.563 OA
ATOM     38  H   UNL     1      56.736  16.197  18.270  0.00  0.00    +0.383 HD
ENDBRANCH  36  37
ENDBRANCH  35  36
ENDBRANCH  24  25
ENDBRANCH  23  24
TORSDOF 12
ENDMDL
MODEL 7
REMARK VINA RESULT:      -5.3      2.490      4.469
REMARK  Name = ZINC95486234
REMARK  12 active torsions:
REMARK  status: ('A' for Active; 'I' for Inactive)
REMARK    1  A    between atoms: C3_3  and  O12_38
REMARK    2  A    between atoms: C6_6  and  C7_7
REMARK    3  A    between atoms: C8_8  and  O11_37
REMARK    4  A    between atoms: C13_15  and  O10_36
REMARK    5  A    between atoms: C14_16  and  O9_35
REMARK    6  A    between atoms: C15_17  and  O3_18
REMARK    7  A    between atoms: O3_18  and  C16_19
REMARK    8  A    between atoms: C17_21  and  O8_34
REMARK    9  A    between atoms: C18_23  and  O7_33
REMARK   10  A    between atoms: C19_25  and  O6_32
REMARK   11  A    between atoms: C20_27  and  C21_30
REMARK   12  A    between atoms: C21_30  and  O5_31
REMARK                            x       y       z     vdW  Elec       q    Type
REMARK                         _______ _______ _______ _____ _____    ______ ____
ROOT
ATOM      9  C   UNL     1      45.549  19.130  19.866  0.00  0.00    +0.139 A 
ATOM     10  C   UNL     1      45.990  18.836  18.610  0.00  0.00    -0.046 A 
ATOM     13  C   UNL     1      46.101  17.481  18.209  0.00  0.00    +0.401 A 
ATOM     14  C   UNL     1      45.725  16.450  19.190  0.00  0.00    -0.242 A 
ATOM     15  C   UNL     1      45.280  16.861  20.459  0.00  0.00    +0.171 A 
ATOM     16  C   UNL     1      44.922  15.906  21.398  0.00  0.00    +0.002 A 
ATOM     17  C   UNL     1      45.000  14.559  21.085  0.00  0.00    +0.165 A 
ATOM     20  C   UNL     1      45.441  14.147  19.827  0.00  0.00    +0.059 A 
ATOM     23  C   UNL     1      45.804  15.087  18.877  0.00  0.00    +0.171 A 
ATOM     40  O   UNL     1      46.494  17.180  17.092  0.00  0.00    -0.446 OA
ATOM     41  O   UNL     1      45.213  18.177  20.753  0.00  0.00    -0.196 OA
ENDROOT
BRANCH   9   8
ATOM      1  C   UNL     1      46.466  21.147  21.000  0.00  0.00    +0.090 A 
ATOM      2  C   UNL     1      46.358  22.468  21.373  0.00  0.00    -0.012 A 
ATOM      3  C   UNL     1      45.231  23.201  21.025  0.00  0.00    +0.129 A 
ATOM      6  C   UNL     1      44.207  22.606  20.298  0.00  0.00    -0.013 A 
ATOM      7  C   UNL     1      44.306  21.286  19.919  0.00  0.00    +0.069 A 
ATOM      8  C   UNL     1      45.438  20.544  20.268  0.00  0.00    -0.064 A 
BRANCH   3   4
ATOM      4  O   UNL     1      45.129  24.504  21.396  0.00  0.00    -0.498 OA
ATOM      5  H   UNL     1      45.855  24.811  21.957  0.00  0.00    +0.396 HD
ENDBRANCH   3   4
ENDBRANCH   9   8
BRANCH  10  11
ATOM     11  O   UNL     1      46.322  19.837  17.750  0.00  0.00    -0.448 OA
ATOM     12  H   UNL     1      47.275  19.952  17.630  0.00  0.00    +0.407 HD
ENDBRANCH  10  11
BRANCH  17  18
ATOM     18  O   UNL     1      44.647  13.631  22.011  0.00  0.00    -0.473 OA
ATOM     19  H   UNL     1      44.988  12.744  21.830  0.00  0.00    +0.401 HD
ENDBRANCH  17  18
BRANCH  20  21
ATOM     21  O   UNL     1      45.514  12.819  19.534  0.00  0.00    -0.455 OA
ATOM     22  H   UNL     1      45.240  12.600  18.633  0.00  0.00    +0.387 HD
ENDBRANCH  20  21
BRANCH  23  24
ATOM     24  O   UNL     1      46.233  14.690  17.651  0.00  0.00    -0.290 OA
BRANCH  24  25
ATOM     25  C   UNL     1      47.347  13.795  17.611  0.00  0.00    +0.308 C 
ATOM     26  C   UNL     1      48.484  14.430  16.806  0.00  0.00    +0.148 C 
ATOM     29  C   UNL     1      49.651  13.441  16.718  0.00  0.00    +0.163 C 
ATOM     32  C   UNL     1      49.153  12.135  16.091  0.00  0.00    +0.171 C 
ATOM     35  C   UNL     1      47.990  11.589  16.923  0.00  0.00    +0.187 C 
ATOM     39  O   UNL     1      46.952  12.569  16.992  0.00  0.00    -0.363 OA
BRANCH  26  27
ATOM     27  O   UNL     1      48.918  15.627  17.456  0.00  0.00    -0.546 OA
ATOM     28  H   UNL     1      48.920  15.572  18.421  0.00  0.00    +0.397 HD
ENDBRANCH  26  27
BRANCH  29  30
ATOM     30  O   UNL     1      50.688  13.998  15.908  0.00  0.00    -0.555 OA
ATOM     31  H   UNL     1      51.219  14.670  16.356  0.00  0.00    +0.396 HD
ENDBRANCH  29  30
BRANCH  32  33
ATOM     33  O   UNL     1      50.215  11.181  16.068  0.00  0.00    -0.550 OA
ATOM     34  H   UNL     1      51.047  11.509  16.435  0.00  0.00    +0.394 HD
ENDBRANCH  32  33
BRANCH  35  36
ATOM     36  C   UNL     1      47.447  10.317  16.271  0.00  0.00    +0.226 C 
BRANCH  36  37
ATOM     37  O   UNL     1      47.843  10.278  14.898  0.00  0.00    -0.563 OA
ATOM     38  H   UNL     1      47.760  11.124  14.440  0.00  0.00    +0.383 HD
ENDBRANCH  36  37
ENDBRANCH  35  36
ENDBRANCH  24  25
ENDBRANCH  23  24
TORSDOF 12
ENDMDL
MODEL 8
REMARK VINA RESULT:      -5.2      3.114      4.992
REMARK  Name = ZINC95486234
REMARK  12 active torsions:
REMARK  status: ('A' for Active; 'I' for Inactive)
REMARK    1  A    between atoms: C3_3  and  O12_38
REMARK    2  A    between atoms: C6_6  and  C7_7
REMARK    3  A    between atoms: C8_8  and  O11_37
REMARK    4  A    between atoms: C13_15  and  O10_36
REMARK    5  A    between atoms: C14_16  and  O9_35
REMARK    6  A    between atoms: C15_17  and  O3_18
REMARK    7  A    between atoms: O3_18  and  C16_19
REMARK    8  A    between atoms: C17_21  and  O8_34
REMARK    9  A    between atoms: C18_23  and  O7_33
REMARK   10  A    between atoms: C19_25  and  O6_32
REMARK   11  A    between atoms: C20_27  and  C21_30
REMARK   12  A    between atoms: C21_30  and  O5_31
REMARK                            x       y       z     vdW  Elec       q    Type
REMARK                         _______ _______ _______ _____ _____    ______ ____
ROOT
ATOM      9  C   UNL     1      45.355  18.038  19.686  0.00  0.00    +0.139 A 
ATOM     10  C   UNL     1      46.422  18.820  20.012  0.00  0.00    -0.046 A 
ATOM     13  C   UNL     1      47.700  18.515  19.479  0.00  0.00    +0.401 A 
ATOM     14  C   UNL     1      47.801  17.349  18.587  0.00  0.00    -0.242 A 
ATOM     15  C   UNL     1      46.637  16.609  18.313  0.00  0.00    +0.171 A 
ATOM     16  C   UNL     1      46.710  15.507  17.475  0.00  0.00    +0.002 A 
ATOM     17  C   UNL     1      47.922  15.141  16.912  0.00  0.00    +0.165 A 
ATOM     20  C   UNL     1      49.079  15.872  17.181  0.00  0.00    +0.059 A 
ATOM     23  C   UNL     1      49.025  16.976  18.016  0.00  0.00    +0.171 A 
ATOM     40  O   UNL     1      48.679  19.193  19.750  0.00  0.00    -0.446 OA
ATOM     41  O   UNL     1      45.463  16.973  18.872  0.00  0.00    -0.196 OA
ENDROOT
BRANCH   9   8
ATOM      1  C   UNL     1      43.189  19.262  19.579  0.00  0.00    +0.090 A 
ATOM      2  C   UNL     1      41.955  19.568  20.108  0.00  0.00    -0.012 A 
ATOM      3  C   UNL     1      41.549  18.993  21.306  0.00  0.00    +0.129 A 
ATOM      6  C   UNL     1      42.384  18.106  21.974  0.00  0.00    -0.013 A 
ATOM      7  C   UNL     1      43.619  17.793  21.453  0.00  0.00    +0.069 A 
ATOM      8  C   UNL     1      44.033  18.370  20.248  0.00  0.00    -0.064 A 
BRANCH   3   4
ATOM      4  O   UNL     1      40.331  19.299  21.824  0.00  0.00    -0.498 OA
ATOM      5  H   UNL     1      40.368  19.862  22.610  0.00  0.00    +0.396 HD
ENDBRANCH   3   4
ENDBRANCH   9   8
BRANCH  10  11
ATOM     11  O   UNL     1      46.262  19.886  20.844  0.00  0.00    -0.448 OA
ATOM     12  H   UNL     1      46.799  19.842  21.647  0.00  0.00    +0.407 HD
ENDBRANCH  10  11
BRANCH  17  18
ATOM     18  O   UNL     1      47.984  14.060  16.092  0.00  0.00    -0.473 OA
ATOM     19  H   UNL     1      47.329  14.068  15.381  0.00  0.00    +0.401 HD
ENDBRANCH  17  18
BRANCH  20  21
ATOM     21  O   UNL     1      50.263  15.500  16.620  0.00  0.00    -0.455 OA
ATOM     22  H   UNL     1      51.041  15.841  17.082  0.00  0.00    +0.387 HD
ENDBRANCH  20  21
BRANCH  23  24
ATOM     24  O   UNL     1      50.149  17.690  18.279  0.00  0.00    -0.290 OA
BRANCH  24  25
ATOM     25  C   UNL     1      51.060  17.139  19.233  0.00  0.00    +0.308 C 
ATOM     26  C   UNL     1      52.461  17.071  18.621  0.00  0.00    +0.148 C 
ATOM     29  C   UNL     1      53.419  16.425  19.627  0.00  0.00    +0.163 C 
ATOM     32  C   UNL     1      52.883  15.042  20.009  0.00  0.00    +0.171 C 
ATOM     35  C   UNL     1      51.465  15.188  20.568  0.00  0.00    +0.187 C 
ATOM     39  O   UNL     1      50.634  15.824  19.595  0.00  0.00    -0.363 OA
BRANCH  26  27
ATOM     27  O   UNL     1      52.911  18.391  18.311  0.00  0.00    -0.546 OA
ATOM     28  H   UNL     1      52.449  18.800  17.566  0.00  0.00    +0.397 HD
ENDBRANCH  26  27
BRANCH  29  30
ATOM     30  O   UNL     1      54.713  16.292  19.037  0.00  0.00    -0.555 OA
ATOM     31  H   UNL     1      54.953  17.019  18.446  0.00  0.00    +0.396 HD
ENDBRANCH  29  30
BRANCH  32  33
ATOM     33  O   UNL     1      53.731  14.459  21.000  0.00  0.00    -0.550 OA
ATOM     34  H   UNL     1      54.535  14.057  20.644  0.00  0.00    +0.394 HD
ENDBRANCH  32  33
BRANCH  35  36
ATOM     36  C   UNL     1      50.900  13.806  20.896  0.00  0.00    +0.226 C 
BRANCH  36  37
ATOM     37  O   UNL     1      51.499  12.829  20.042  0.00  0.00    -0.563 OA
ATOM     38  H   UNL     1      51.024  12.687  19.213  0.00  0.00    +0.383 HD
ENDBRANCH  36  37
ENDBRANCH  35  36
ENDBRANCH  24  25
ENDBRANCH  23  24
TORSDOF 12
ENDMDL
MODEL 9
REMARK VINA RESULT:      -5.2      2.312      4.228
REMARK  Name = ZINC95486234
REMARK  12 active torsions:
REMARK  status: ('A' for Active; 'I' for Inactive)
REMARK    1  A    between atoms: C3_3  and  O12_38
REMARK    2  A    between atoms: C6_6  and  C7_7
REMARK    3  A    between atoms: C8_8  and  O11_37
REMARK    4  A    between atoms: C13_15  and  O10_36
REMARK    5  A    between atoms: C14_16  and  O9_35
REMARK    6  A    between atoms: C15_17  and  O3_18
REMARK    7  A    between atoms: O3_18  and  C16_19
REMARK    8  A    between atoms: C17_21  and  O8_34
REMARK    9  A    between atoms: C18_23  and  O7_33
REMARK   10  A    between atoms: C19_25  and  O6_32
REMARK   11  A    between atoms: C20_27  and  C21_30
REMARK   12  A    between atoms: C21_30  and  O5_31
REMARK                            x       y       z     vdW  Elec       q    Type
REMARK                         _______ _______ _______ _____ _____    ______ ____
ROOT
ATOM      9  C   UNL     1      47.026  19.396  19.127  0.00  0.00    +0.139 A 
ATOM     10  C   UNL     1      48.378  19.573  19.101  0.00  0.00    -0.046 A 
ATOM     13  C   UNL     1      49.202  18.571  18.531  0.00  0.00    +0.401 A 
ATOM     14  C   UNL     1      48.538  17.374  17.989  0.00  0.00    -0.242 A 
ATOM     15  C   UNL     1      47.136  17.292  18.064  0.00  0.00    +0.171 A 
ATOM     16  C   UNL     1      46.491  16.174  17.559  0.00  0.00    +0.002 A 
ATOM     17  C   UNL     1      47.224  15.148  16.984  0.00  0.00    +0.165 A 
ATOM     20  C   UNL     1      48.614  15.226  16.907  0.00  0.00    +0.059 A 
ATOM     23  C   UNL     1      49.276  16.336  17.407  0.00  0.00    +0.171 A 
ATOM     40  O   UNL     1      50.417  18.695  18.492  0.00  0.00    -0.446 OA
ATOM     41  O   UNL     1      46.434  18.296  18.631  0.00  0.00    -0.196 OA
ENDROOT
BRANCH   9   8
ATOM      1  C   UNL     1      45.657  21.465  18.920  0.00  0.00    +0.090 A 
ATOM      2  C   UNL     1      44.870  22.446  19.482  0.00  0.00    -0.012 A 
ATOM      3  C   UNL     1      44.599  22.426  20.844  0.00  0.00    +0.129 A 
ATOM      6  C   UNL     1      45.119  21.417  21.646  0.00  0.00    -0.013 A 
ATOM      7  C   UNL     1      45.906  20.433  21.093  0.00  0.00    +0.069 A 
ATOM      8  C   UNL     1      46.183  20.448  19.723  0.00  0.00    -0.064 A 
BRANCH   3   4
ATOM      4  O   UNL     1      43.822  23.396  21.393  0.00  0.00    -0.498 OA
ATOM      5  H   UNL     1      42.967  23.079  21.717  0.00  0.00    +0.396 HD
ENDBRANCH   3   4
ENDBRANCH   9   8
BRANCH  10  11
ATOM     11  O   UNL     1      48.930  20.704  19.620  0.00  0.00    -0.448 OA
ATOM     12  H   UNL     1      48.284  21.375  19.879  0.00  0.00    +0.407 HD
ENDBRANCH  10  11
BRANCH  17  18
ATOM     18  O   UNL     1      46.583  14.057  16.492  0.00  0.00    -0.473 OA
ATOM     19  H   UNL     1      45.664  14.220  16.240  0.00  0.00    +0.401 HD
ENDBRANCH  17  18
BRANCH  20  21
ATOM     21  O   UNL     1      49.321  14.210  16.340  0.00  0.00    -0.455 OA
ATOM     22  H   UNL     1      50.251  14.182  16.605  0.00  0.00    +0.387 HD
ENDBRANCH  20  21
BRANCH  23  24
ATOM     24  O   UNL     1      50.630  16.415  17.334  0.00  0.00    -0.290 OA
BRANCH  24  25
ATOM     25  C   UNL     1      51.373  15.866  18.425  0.00  0.00    +0.308 C 
ATOM     26  C   UNL     1      52.839  16.290  18.308  0.00  0.00    +0.148 C 
ATOM     29  C   UNL     1      53.639  15.649  19.447  0.00  0.00    +0.163 C 
ATOM     32  C   UNL     1      53.467  14.128  19.384  0.00  0.00    +0.171 C 
ATOM     35  C   UNL     1      51.976  13.787  19.458  0.00  0.00    +0.187 C 
ATOM     39  O   UNL     1      51.286  14.440  18.390  0.00  0.00    -0.363 OA
BRANCH  26  27
ATOM     27  O   UNL     1      52.933  17.713  18.400  0.00  0.00    -0.546 OA
ATOM     28  H   UNL     1      52.873  18.167  17.548  0.00  0.00    +0.397 HD
ENDBRANCH  26  27
BRANCH  29  30
ATOM     30  O   UNL     1      55.022  15.981  19.305  0.00  0.00    -0.555 OA
ATOM     31  H   UNL     1      55.614  15.433  19.837  0.00  0.00    +0.396 HD
ENDBRANCH  29  30
BRANCH  32  33
ATOM     33  O   UNL     1      54.151  13.524  20.482  0.00  0.00    -0.550 OA
ATOM     34  H   UNL     1      54.371  12.592  20.345  0.00  0.00    +0.394 HD
ENDBRANCH  32  33
BRANCH  35  36
ATOM     36  C   UNL     1      51.791  12.274  19.335  0.00  0.00    +0.226 C 
BRANCH  36  37
ATOM     37  O   UNL     1      52.841  11.728  18.534  0.00  0.00    -0.563 OA
ATOM     38  H   UNL     1      52.770  10.775  18.389  0.00  0.00    +0.383 HD
ENDBRANCH  36  37
ENDBRANCH  35  36
ENDBRANCH  24  25
ENDBRANCH  23  24
TORSDOF 12
ENDMDL
