MODEL 1
REMARK VINA RESULT:      -5.6      0.000      0.000
REMARK  Name = ZINC95486345
REMARK  11 active torsions:
REMARK  status: ('A' for Active; 'I' for Inactive)
REMARK    1  A    between atoms: C1_1  and  N1_2
REMARK    2  A    between atoms: C6_7  and  O5_27
REMARK    3  A    between atoms: C7_8  and  O3_24
REMARK    4  A    between atoms: C15_17  and  O2_22
REMARK    5  A    between atoms: C16_18  and  O1_20
REMARK    6  A    between atoms: O1_20  and  C18_21
REMARK    7  A    between atoms: O2_22  and  C19_23
REMARK    8  A    between atoms: O3_24  and  C20_25
REMARK    9  A    between atoms: C20_25  and  O4_26
REMARK   10  A    between atoms: O5_27  and  C21_28
REMARK   11  A    between atoms: C21_28  and  O6_29
REMARK                            x       y       z     vdW  Elec       q    Type
REMARK                         _______ _______ _______ _____ _____    ______ ____
ROOT
ATOM      1  C   UNL     1      44.044  19.113  19.647  0.00  0.00    +0.329 C 
ATOM      2  N   UNL     1      45.389  19.660  19.424  0.00  0.00    -0.382 N 
ATOM      3  H   UNL     1      45.380  20.249  18.605  0.00  0.00    +0.425 HD
ATOM      4  C   UNL     1      45.792  20.451  20.588  0.00  0.00    +0.268 C 
ATOM      5  C   UNL     1      47.092  21.188  20.315  0.00  0.00    +0.126 C 
ATOM      6  C   UNL     1      48.065  20.353  19.532  0.00  0.00    -0.040 A 
ATOM      7  C   UNL     1      49.348  20.848  19.339  0.00  0.00    -0.043 A 
ATOM      8  C   UNL     1      50.295  20.114  18.648  0.00  0.00    +0.164 A 
ATOM     13  C   UNL     1      49.960  18.866  18.134  0.00  0.00    +0.076 A 
ATOM     18  C   UNL     1      48.667  18.377  18.308  0.00  0.00    +0.023 A 
ATOM     19  C   UNL     1      48.290  17.050  17.766  0.00  0.00    -0.059 A 
ATOM     20  C   UNL     1      49.266  16.132  17.392  0.00  0.00    +0.017 A 
ATOM     21  C   UNL     1      48.892  14.892  16.904  0.00  0.00    +0.109 A 
ATOM     24  C   UNL     1      47.543  14.568  16.792  0.00  0.00    +0.124 A 
ATOM     27  C   UNL     1      46.572  15.488  17.157  0.00  0.00    -0.023 A 
ATOM     28  C   UNL     1      46.940  16.729  17.634  0.00  0.00    -0.074 A 
ATOM     29  C   UNL     1      45.894  17.741  18.012  0.00  0.00    +0.113 C 
ATOM     30  C   UNL     1      47.720  19.122  19.016  0.00  0.00    -0.159 A 
ATOM     31  C   UNL     1      46.340  18.557  19.224  0.00  0.00    +0.244 C 
ENDROOT
BRANCH  21  22
ATOM     22  O   UNL     1      49.841  13.991  16.536  0.00  0.00    -0.299 OA
ATOM     23  C   UNL     1      51.168  14.487  16.346  0.00  0.00    +0.248 C 
ENDBRANCH  21  22
BRANCH  24  25
ATOM     25  O   UNL     1      47.177  13.345  16.321  0.00  0.00    -0.297 OA
ATOM     26  C   UNL     1      46.311  12.565  17.149  0.00  0.00    +0.246 C 
ENDBRANCH  24  25
BRANCH   8   9
ATOM      9  O   UNL     1      51.549  20.610  18.471  0.00  0.00    -0.260 OA
BRANCH   9  10
ATOM     10  C   UNL     1      52.349  20.783  19.643  0.00  0.00    +0.401 C 
BRANCH  10  11
ATOM     11  O   UNL     1      53.082  22.005  19.542  0.00  0.00    -0.590 OA
ATOM     12  H   UNL     1      53.866  21.948  18.979  0.00  0.00    +0.405 HD
ENDBRANCH  10  11
ENDBRANCH   9  10
ENDBRANCH   8   9
BRANCH  13  14
ATOM     14  O   UNL     1      50.888  18.129  17.466  0.00  0.00    -0.297 OA
BRANCH  14  15
ATOM     15  C   UNL     1      51.258  18.580  16.162  0.00  0.00    +0.387 C 
BRANCH  15  16
ATOM     16  O   UNL     1      52.581  19.116  16.201  0.00  0.00    -0.580 OA
ATOM     17  H   UNL     1      53.277  18.457  16.071  0.00  0.00    +0.398 HD
ENDBRANCH  15  16
ENDBRANCH  14  15
ENDBRANCH  13  14
TORSDOF 8
ENDMDL
MODEL 2
REMARK VINA RESULT:      -5.5      3.247      6.232
REMARK  Name = ZINC95486345
REMARK  11 active torsions:
REMARK  status: ('A' for Active; 'I' for Inactive)
REMARK    1  A    between atoms: C1_1  and  N1_2
REMARK    2  A    between atoms: C6_7  and  O5_27
REMARK    3  A    between atoms: C7_8  and  O3_24
REMARK    4  A    between atoms: C15_17  and  O2_22
REMARK    5  A    between atoms: C16_18  and  O1_20
REMARK    6  A    between atoms: O1_20  and  C18_21
REMARK    7  A    between atoms: O2_22  and  C19_23
REMARK    8  A    between atoms: O3_24  and  C20_25
REMARK    9  A    between atoms: C20_25  and  O4_26
REMARK   10  A    between atoms: O5_27  and  C21_28
REMARK   11  A    between atoms: C21_28  and  O6_29
REMARK                            x       y       z     vdW  Elec       q    Type
REMARK                         _______ _______ _______ _____ _____    ______ ____
ROOT
ATOM      1  C   UNL     1      47.971  13.367  17.724  0.00  0.00    +0.329 C 
ATOM      2  N   UNL     1      47.040  14.380  18.243  0.00  0.00    -0.382 N 
ATOM      3  H   UNL     1      46.387  14.638  17.519  0.00  0.00    +0.425 HD
ATOM      4  C   UNL     1      46.308  13.828  19.384  0.00  0.00    +0.268 C 
ATOM      5  C   UNL     1      45.203  14.774  19.825  0.00  0.00    +0.126 C 
ATOM      6  C   UNL     1      45.630  16.213  19.760  0.00  0.00    -0.040 A 
ATOM      7  C   UNL     1      44.770  17.176  20.273  0.00  0.00    -0.043 A 
ATOM      8  C   UNL     1      45.119  18.514  20.264  0.00  0.00    +0.164 A 
ATOM     13  C   UNL     1      46.342  18.905  19.732  0.00  0.00    +0.076 A 
ATOM     18  C   UNL     1      47.196  17.944  19.196  0.00  0.00    +0.023 A 
ATOM     19  C   UNL     1      48.503  18.340  18.622  0.00  0.00    -0.059 A 
ATOM     20  C   UNL     1      49.055  19.586  18.906  0.00  0.00    +0.017 A 
ATOM     21  C   UNL     1      50.285  19.930  18.372  0.00  0.00    +0.109 A 
ATOM     24  C   UNL     1      50.965  19.030  17.558  0.00  0.00    +0.124 A 
ATOM     27  C   UNL     1      50.410  17.792  17.269  0.00  0.00    -0.023 A 
ATOM     28  C   UNL     1      49.179  17.449  17.791  0.00  0.00    -0.074 A 
ATOM     29  C   UNL     1      48.558  16.118  17.466  0.00  0.00    +0.113 C 
ATOM     30  C   UNL     1      46.840  16.592  19.219  0.00  0.00    -0.159 A 
ATOM     31  C   UNL     1      47.795  15.566  18.669  0.00  0.00    +0.244 C 
ENDROOT
BRANCH  21  22
ATOM     22  O   UNL     1      50.829  21.146  18.645  0.00  0.00    -0.299 OA
ATOM     23  C   UNL     1      51.653  21.242  19.808  0.00  0.00    +0.248 C 
ENDBRANCH  21  22
BRANCH  24  25
ATOM     25  O   UNL     1      52.178  19.365  17.042  0.00  0.00    -0.297 OA
ATOM     26  C   UNL     1      52.203  19.822  15.688  0.00  0.00    +0.246 C 
ENDBRANCH  24  25
BRANCH   8   9
ATOM      9  O   UNL     1      44.268  19.445  20.775  0.00  0.00    -0.260 OA
BRANCH   9  10
ATOM     10  C   UNL     1      42.917  19.413  20.308  0.00  0.00    +0.401 C 
BRANCH  10  11
ATOM     11  O   UNL     1      42.505  20.734  19.951  0.00  0.00    -0.590 OA
ATOM     12  H   UNL     1      42.459  20.887  18.998  0.00  0.00    +0.405 HD
ENDBRANCH  10  11
ENDBRANCH   9  10
ENDBRANCH   8   9
BRANCH  13  14
ATOM     14  O   UNL     1      46.701  20.217  19.732  0.00  0.00    -0.297 OA
BRANCH  14  15
ATOM     15  C   UNL     1      46.048  21.069  18.788  0.00  0.00    +0.387 C 
BRANCH  15  16
ATOM     16  O   UNL     1      45.223  22.005  19.483  0.00  0.00    -0.580 OA
ATOM     17  H   UNL     1      44.907  21.690  20.341  0.00  0.00    +0.398 HD
ENDBRANCH  15  16
ENDBRANCH  14  15
ENDBRANCH  13  14
TORSDOF 8
ENDMDL
MODEL 3
REMARK VINA RESULT:      -5.5      2.596      5.454
REMARK  Name = ZINC95486345
REMARK  11 active torsions:
REMARK  status: ('A' for Active; 'I' for Inactive)
REMARK    1  A    between atoms: C1_1  and  N1_2
REMARK    2  A    between atoms: C6_7  and  O5_27
REMARK    3  A    between atoms: C7_8  and  O3_24
REMARK    4  A    between atoms: C15_17  and  O2_22
REMARK    5  A    between atoms: C16_18  and  O1_20
REMARK    6  A    between atoms: O1_20  and  C18_21
REMARK    7  A    between atoms: O2_22  and  C19_23
REMARK    8  A    between atoms: O3_24  and  C20_25
REMARK    9  A    between atoms: C20_25  and  O4_26
REMARK   10  A    between atoms: O5_27  and  C21_28
REMARK   11  A    between atoms: C21_28  and  O6_29
REMARK                            x       y       z     vdW  Elec       q    Type
REMARK                         _______ _______ _______ _____ _____    ______ ____
ROOT
ATOM      1  C   UNL     1      45.897  13.866  17.970  0.00  0.00    +0.329 C 
ATOM      2  N   UNL     1      47.140  14.645  18.048  0.00  0.00    -0.382 N 
ATOM      3  H   UNL     1      47.581  14.486  18.942  0.00  0.00    +0.425 HD
ATOM      4  C   UNL     1      48.045  14.226  16.978  0.00  0.00    +0.268 C 
ATOM      5  C   UNL     1      49.412  14.871  17.143  0.00  0.00    +0.126 C 
ATOM      6  C   UNL     1      49.313  16.298  17.603  0.00  0.00    -0.040 A 
ATOM      7  C   UNL     1      50.478  17.052  17.653  0.00  0.00    -0.043 A 
ATOM      8  C   UNL     1      50.448  18.378  18.045  0.00  0.00    +0.164 A 
ATOM     13  C   UNL     1      49.238  18.966  18.398  0.00  0.00    +0.076 A 
ATOM     18  C   UNL     1      48.071  18.205  18.369  0.00  0.00    +0.023 A 
ATOM     19  C   UNL     1      46.772  18.811  18.743  0.00  0.00    -0.059 A 
ATOM     20  C   UNL     1      46.622  20.194  18.791  0.00  0.00    +0.017 A 
ATOM     21  C   UNL     1      45.395  20.740  19.127  0.00  0.00    +0.109 A 
ATOM     24  C   UNL     1      44.318  19.906  19.412  0.00  0.00    +0.124 A 
ATOM     27  C   UNL     1      44.472  18.529  19.371  0.00  0.00    -0.023 A 
ATOM     28  C   UNL     1      45.696  17.980  19.047  0.00  0.00    -0.074 A 
ATOM     29  C   UNL     1      45.879  16.487  19.022  0.00  0.00    +0.113 C 
ATOM     30  C   UNL     1      48.111  16.868  17.962  0.00  0.00    -0.159 A 
ATOM     31  C   UNL     1      46.832  16.075  17.902  0.00  0.00    +0.244 C 
ENDROOT
BRANCH  21  22
ATOM     22  O   UNL     1      45.242  22.090  19.176  0.00  0.00    -0.299 OA
ATOM     23  C   UNL     1      45.504  22.727  20.429  0.00  0.00    +0.248 C 
ENDBRANCH  21  22
BRANCH  24  25
ATOM     25  O   UNL     1      43.110  20.444  19.731  0.00  0.00    -0.297 OA
ATOM     26  C   UNL     1      42.108  20.438  18.713  0.00  0.00    +0.246 C 
ENDBRANCH  24  25
BRANCH   8   9
ATOM      9  O   UNL     1      51.596  19.106  18.085  0.00  0.00    -0.260 OA
BRANCH   9  10
ATOM     10  C   UNL     1      51.942  19.838  16.907  0.00  0.00    +0.401 C 
BRANCH  10  11
ATOM     11  O   UNL     1      51.752  21.234  17.141  0.00  0.00    -0.590 OA
ATOM     12  H   UNL     1      51.150  21.659  16.515  0.00  0.00    +0.405 HD
ENDBRANCH  10  11
ENDBRANCH   9  10
ENDBRANCH   8   9
BRANCH  13  14
ATOM     14  O   UNL     1      49.194  20.273  18.769  0.00  0.00    -0.297 OA
BRANCH  14  15
ATOM     15  C   UNL     1      49.667  20.592  20.080  0.00  0.00    +0.387 C 
BRANCH  15  16
ATOM     16  O   UNL     1      50.962  21.186  19.986  0.00  0.00    -0.580 OA
ATOM     17  H   UNL     1      50.958  22.084  19.628  0.00  0.00    +0.398 HD
ENDBRANCH  15  16
ENDBRANCH  14  15
ENDBRANCH  13  14
TORSDOF 8
ENDMDL
MODEL 4
REMARK VINA RESULT:      -5.4      3.169      6.881
REMARK  Name = ZINC95486345
REMARK  11 active torsions:
REMARK  status: ('A' for Active; 'I' for Inactive)
REMARK    1  A    between atoms: C1_1  and  N1_2
REMARK    2  A    between atoms: C6_7  and  O5_27
REMARK    3  A    between atoms: C7_8  and  O3_24
REMARK    4  A    between atoms: C15_17  and  O2_22
REMARK    5  A    between atoms: C16_18  and  O1_20
REMARK    6  A    between atoms: O1_20  and  C18_21
REMARK    7  A    between atoms: O2_22  and  C19_23
REMARK    8  A    between atoms: O3_24  and  C20_25
REMARK    9  A    between atoms: C20_25  and  O4_26
REMARK   10  A    between atoms: O5_27  and  C21_28
REMARK   11  A    between atoms: C21_28  and  O6_29
REMARK                            x       y       z     vdW  Elec       q    Type
REMARK                         _______ _______ _______ _____ _____    ______ ____
ROOT
ATOM      1  C   UNL     1      51.415  21.110  18.717  0.00  0.00    +0.329 C 
ATOM      2  N   UNL     1      50.869  19.799  18.340  0.00  0.00    -0.382 N 
ATOM      3  H   UNL     1      50.667  19.791  17.352  0.00  0.00    +0.425 HD
ATOM      4  C   UNL     1      51.851  18.758  18.645  0.00  0.00    +0.268 C 
ATOM      5  C   UNL     1      51.401  17.414  18.094  0.00  0.00    +0.126 C 
ATOM      6  C   UNL     1      49.923  17.201  18.256  0.00  0.00    -0.040 A 
ATOM      7  C   UNL     1      49.401  15.956  17.931  0.00  0.00    -0.043 A 
ATOM      8  C   UNL     1      48.051  15.691  18.082  0.00  0.00    +0.164 A 
ATOM     13  C   UNL     1      47.204  16.684  18.563  0.00  0.00    +0.076 A 
ATOM     18  C   UNL     1      47.722  17.939  18.869  0.00  0.00    +0.023 A 
ATOM     19  C   UNL     1      46.835  19.011  19.380  0.00  0.00    -0.059 A 
ATOM     20  C   UNL     1      45.575  18.708  19.887  0.00  0.00    +0.017 A 
ATOM     21  C   UNL     1      44.769  19.722  20.375  0.00  0.00    +0.109 A 
ATOM     24  C   UNL     1      45.222  21.038  20.359  0.00  0.00    +0.124 A 
ATOM     27  C   UNL     1      46.474  21.338  19.845  0.00  0.00    -0.023 A 
ATOM     28  C   UNL     1      47.277  20.332  19.349  0.00  0.00    -0.074 A 
ATOM     29  C   UNL     1      48.628  20.651  18.770  0.00  0.00    +0.113 C 
ATOM     30  C   UNL     1      49.089  18.194  18.722  0.00  0.00    -0.159 A 
ATOM     31  C   UNL     1      49.633  19.548  19.095  0.00  0.00    +0.244 C 
ENDROOT
BRANCH  21  22
ATOM     22  O   UNL     1      43.536  19.432  20.870  0.00  0.00    -0.299 OA
ATOM     23  C   UNL     1      42.485  19.236  19.922  0.00  0.00    +0.248 C 
ENDBRANCH  21  22
BRANCH  24  25
ATOM     25  O   UNL     1      44.433  22.032  20.848  0.00  0.00    -0.297 OA
ATOM     26  C   UNL     1      43.816  22.898  19.893  0.00  0.00    +0.246 C 
ENDBRANCH  24  25
BRANCH   8   9
ATOM      9  O   UNL     1      47.555  14.466  17.763  0.00  0.00    -0.260 OA
BRANCH   9  10
ATOM     10  C   UNL     1      47.680  14.051  16.401  0.00  0.00    +0.401 C 
BRANCH  10  11
ATOM     11  O   UNL     1      46.692  14.714  15.609  0.00  0.00    -0.590 OA
ATOM     12  H   UNL     1      46.493  14.268  14.774  0.00  0.00    +0.405 HD
ENDBRANCH  10  11
ENDBRANCH   9  10
ENDBRANCH   8   9
BRANCH  13  14
ATOM     14  O   UNL     1      45.878  16.430  18.730  0.00  0.00    -0.297 OA
BRANCH  14  15
ATOM     15  C   UNL     1      45.521  15.497  19.753  0.00  0.00    +0.387 C 
BRANCH  15  16
ATOM     16  O   UNL     1      45.013  14.305  19.154  0.00  0.00    -0.580 OA
ATOM     17  H   UNL     1      45.680  13.618  19.016  0.00  0.00    +0.398 HD
ENDBRANCH  15  16
ENDBRANCH  14  15
ENDBRANCH  13  14
TORSDOF 8
ENDMDL
MODEL 5
REMARK VINA RESULT:      -5.2      3.171      5.208
REMARK  Name = ZINC95486345
REMARK  11 active torsions:
REMARK  status: ('A' for Active; 'I' for Inactive)
REMARK    1  A    between atoms: C1_1  and  N1_2
REMARK    2  A    between atoms: C6_7  and  O5_27
REMARK    3  A    between atoms: C7_8  and  O3_24
REMARK    4  A    between atoms: C15_17  and  O2_22
REMARK    5  A    between atoms: C16_18  and  O1_20
REMARK    6  A    between atoms: O1_20  and  C18_21
REMARK    7  A    between atoms: O2_22  and  C19_23
REMARK    8  A    between atoms: O3_24  and  C20_25
REMARK    9  A    between atoms: C20_25  and  O4_26
REMARK   10  A    between atoms: O5_27  and  C21_28
REMARK   11  A    between atoms: C21_28  and  O6_29
REMARK                            x       y       z     vdW  Elec       q    Type
REMARK                         _______ _______ _______ _____ _____    ______ ____
ROOT
ATOM      1  C   UNL     1      52.462  19.678  18.106  0.00  0.00    +0.329 C 
ATOM      2  N   UNL     1      51.077  19.479  18.556  0.00  0.00    -0.382 N 
ATOM      3  H   UNL     1      51.075  19.217  19.531  0.00  0.00    +0.425 HD
ATOM      4  C   UNL     1      50.327  20.724  18.386  0.00  0.00    +0.268 C 
ATOM      5  C   UNL     1      48.949  20.615  19.018  0.00  0.00    +0.126 C 
ATOM      6  C   UNL     1      48.330  19.263  18.797  0.00  0.00    -0.040 A 
ATOM      7  C   UNL     1      47.012  19.073  19.193  0.00  0.00    -0.043 A 
ATOM      8  C   UNL     1      46.380  17.859  18.993  0.00  0.00    +0.164 A 
ATOM     13  C   UNL     1      47.071  16.812  18.393  0.00  0.00    +0.076 A 
ATOM     18  C   UNL     1      48.399  16.994  18.015  0.00  0.00    +0.023 A 
ATOM     19  C   UNL     1      49.154  15.890  17.376  0.00  0.00    -0.059 A 
ATOM     20  C   UNL     1      48.487  14.797  16.830  0.00  0.00    +0.017 A 
ATOM     21  C   UNL     1      49.210  13.785  16.223  0.00  0.00    +0.109 A 
ATOM     24  C   UNL     1      50.598  13.865  16.158  0.00  0.00    +0.124 A 
ATOM     27  C   UNL     1      51.260  14.951  16.710  0.00  0.00    -0.023 A 
ATOM     28  C   UNL     1      50.544  15.958  17.325  0.00  0.00    -0.074 A 
ATOM     29  C   UNL     1      51.256  17.129  17.946  0.00  0.00    +0.113 C 
ATOM     30  C   UNL     1      49.026  18.228  18.211  0.00  0.00    -0.159 A 
ATOM     31  C   UNL     1      50.451  18.414  17.761  0.00  0.00    +0.244 C 
ENDROOT
BRANCH  21  22
ATOM     22  O   UNL     1      48.564  12.714  15.689  0.00  0.00    -0.299 OA
ATOM     23  C   UNL     1      48.056  12.859  14.361  0.00  0.00    +0.248 C 
ENDBRANCH  21  22
BRANCH  24  25
ATOM     25  O   UNL     1      51.306  12.875  15.552  0.00  0.00    -0.297 OA
ATOM     26  C   UNL     1      51.839  13.158  14.256  0.00  0.00    +0.246 C 
ENDBRANCH  24  25
BRANCH   8   9
ATOM      9  O   UNL     1      45.088  17.689  19.382  0.00  0.00    -0.260 OA
BRANCH   9  10
ATOM     10  C   UNL     1      44.768  18.029  20.733  0.00  0.00    +0.401 C 
BRANCH  10  11
ATOM     11  O   UNL     1      44.055  16.949  21.340  0.00  0.00    -0.590 OA
ATOM     12  H   UNL     1      43.184  16.787  20.954  0.00  0.00    +0.405 HD
ENDBRANCH  10  11
ENDBRANCH   9  10
ENDBRANCH   8   9
BRANCH  13  14
ATOM     14  O   UNL     1      46.455  15.619  18.177  0.00  0.00    -0.297 OA
BRANCH  14  15
ATOM     15  C   UNL     1      46.255  14.777  19.315  0.00  0.00    +0.387 C 
BRANCH  15  16
ATOM     16  O   UNL     1      44.857  14.675  19.592  0.00  0.00    -0.580 OA
ATOM     17  H   UNL     1      44.291  14.837  18.824  0.00  0.00    +0.398 HD
ENDBRANCH  15  16
ENDBRANCH  14  15
ENDBRANCH  13  14
TORSDOF 8
ENDMDL
MODEL 6
REMARK VINA RESULT:      -5.2      3.120      5.137
REMARK  Name = ZINC95486345
REMARK  11 active torsions:
REMARK  status: ('A' for Active; 'I' for Inactive)
REMARK    1  A    between atoms: C1_1  and  N1_2
REMARK    2  A    between atoms: C6_7  and  O5_27
REMARK    3  A    between atoms: C7_8  and  O3_24
REMARK    4  A    between atoms: C15_17  and  O2_22
REMARK    5  A    between atoms: C16_18  and  O1_20
REMARK    6  A    between atoms: O1_20  and  C18_21
REMARK    7  A    between atoms: O2_22  and  C19_23
REMARK    8  A    between atoms: O3_24  and  C20_25
REMARK    9  A    between atoms: C20_25  and  O4_26
REMARK   10  A    between atoms: O5_27  and  C21_28
REMARK   11  A    between atoms: C21_28  and  O6_29
REMARK                            x       y       z     vdW  Elec       q    Type
REMARK                         _______ _______ _______ _____ _____    ______ ____
ROOT
ATOM      1  C   UNL     1      52.209  19.020  17.443  0.00  0.00    +0.329 C 
ATOM      2  N   UNL     1      51.001  19.230  18.253  0.00  0.00    -0.382 N 
ATOM      3  H   UNL     1      51.199  19.004  19.216  0.00  0.00    +0.425 HD
ATOM      4  C   UNL     1      50.588  20.631  18.158  0.00  0.00    +0.268 C 
ATOM      5  C   UNL     1      49.460  20.928  19.132  0.00  0.00    +0.126 C 
ATOM      6  C   UNL     1      48.471  19.800  19.215  0.00  0.00    -0.040 A 
ATOM      7  C   UNL     1      47.312  19.997  19.955  0.00  0.00    -0.043 A 
ATOM      8  C   UNL     1      46.353  19.004  20.049  0.00  0.00    +0.164 A 
ATOM     13  C   UNL     1      46.551  17.791  19.399  0.00  0.00    +0.076 A 
ATOM     18  C   UNL     1      47.722  17.584  18.675  0.00  0.00    +0.023 A 
ATOM     19  C   UNL     1      47.953  16.296  17.977  0.00  0.00    -0.059 A 
ATOM     20  C   UNL     1      46.897  15.421  17.735  0.00  0.00    +0.017 A 
ATOM     21  C   UNL     1      47.132  14.232  17.067  0.00  0.00    +0.109 A 
ATOM     24  C   UNL     1      48.418  13.918  16.637  0.00  0.00    +0.124 A 
ATOM     27  C   UNL     1      49.468  14.787  16.887  0.00  0.00    -0.023 A 
ATOM     28  C   UNL     1      49.241  15.970  17.562  0.00  0.00    -0.074 A 
ATOM     29  C   UNL     1      50.379  16.909  17.857  0.00  0.00    +0.113 C 
ATOM     30  C   UNL     1      48.681  18.596  18.577  0.00  0.00    -0.159 A 
ATOM     31  C   UNL     1      49.922  18.363  17.758  0.00  0.00    +0.244 C 
ENDROOT
BRANCH  21  22
ATOM     22  O   UNL     1      46.106  13.372  16.828  0.00  0.00    -0.299 OA
ATOM     23  C   UNL     1      45.458  12.803  17.968  0.00  0.00    +0.248 C 
ENDBRANCH  21  22
BRANCH  24  25
ATOM     25  O   UNL     1      48.645  12.753  15.972  0.00  0.00    -0.297 OA
ATOM     26  C   UNL     1      49.577  12.796  14.890  0.00  0.00    +0.246 C 
ENDBRANCH  24  25
BRANCH   8   9
ATOM      9  O   UNL     1      45.222  19.214  20.774  0.00  0.00    -0.260 OA
BRANCH   9  10
ATOM     10  C   UNL     1      44.106  19.781  20.084  0.00  0.00    +0.401 C 
BRANCH  10  11
ATOM     11  O   UNL     1      43.133  18.765  19.836  0.00  0.00    -0.590 OA
ATOM     12  H   UNL     1      43.503  17.874  19.770  0.00  0.00    +0.405 HD
ENDBRANCH  10  11
ENDBRANCH   9  10
ENDBRANCH   8   9
BRANCH  13  14
ATOM     14  O   UNL     1      45.607  16.814  19.472  0.00  0.00    -0.297 OA
BRANCH  14  15
ATOM     15  C   UNL     1      45.488  16.118  20.715  0.00  0.00    +0.387 C 
BRANCH  15  16
ATOM     16  O   UNL     1      44.231  16.429  21.316  0.00  0.00    -0.580 OA
ATOM     17  H   UNL     1      43.610  16.875  20.722  0.00  0.00    +0.398 HD
ENDBRANCH  15  16
ENDBRANCH  14  15
ENDBRANCH  13  14
TORSDOF 8
ENDMDL
MODEL 7
REMARK VINA RESULT:      -5.1      1.988      5.594
REMARK  Name = ZINC95486345
REMARK  11 active torsions:
REMARK  status: ('A' for Active; 'I' for Inactive)
REMARK    1  A    between atoms: C1_1  and  N1_2
REMARK    2  A    between atoms: C6_7  and  O5_27
REMARK    3  A    between atoms: C7_8  and  O3_24
REMARK    4  A    between atoms: C15_17  and  O2_22
REMARK    5  A    between atoms: C16_18  and  O1_20
REMARK    6  A    between atoms: O1_20  and  C18_21
REMARK    7  A    between atoms: O2_22  and  C19_23
REMARK    8  A    between atoms: O3_24  and  C20_25
REMARK    9  A    between atoms: C20_25  and  O4_26
REMARK   10  A    between atoms: O5_27  and  C21_28
REMARK   11  A    between atoms: C21_28  and  O6_29
REMARK                            x       y       z     vdW  Elec       q    Type
REMARK                         _______ _______ _______ _____ _____    ______ ____
ROOT
ATOM      1  C   UNL     1      45.151  22.730  20.253  0.00  0.00    +0.329 C 
ATOM      2  N   UNL     1      45.005  21.270  20.338  0.00  0.00    -0.382 N 
ATOM      3  H   UNL     1      45.157  20.973  21.289  0.00  0.00    +0.425 HD
ATOM      4  C   UNL     1      43.654  20.892  19.920  0.00  0.00    +0.268 C 
ATOM      5  C   UNL     1      43.404  19.415  20.178  0.00  0.00    +0.126 C 
ATOM      6  C   UNL     1      44.609  18.573  19.868  0.00  0.00    -0.040 A 
ATOM      7  C   UNL     1      44.474  17.191  19.918  0.00  0.00    -0.043 A 
ATOM      8  C   UNL     1      45.542  16.364  19.620  0.00  0.00    +0.164 A 
ATOM     13  C   UNL     1      46.768  16.918  19.269  0.00  0.00    +0.076 A 
ATOM     18  C   UNL     1      46.911  18.304  19.240  0.00  0.00    +0.023 A 
ATOM     19  C   UNL     1      48.210  18.914  18.871  0.00  0.00    -0.059 A 
ATOM     20  C   UNL     1      49.188  18.165  18.224  0.00  0.00    +0.017 A 
ATOM     21  C   UNL     1      50.388  18.760  17.873  0.00  0.00    +0.109 A 
ATOM     24  C   UNL     1      50.610  20.102  18.166  0.00  0.00    +0.124 A 
ATOM     27  C   UNL     1      49.637  20.844  18.818  0.00  0.00    -0.023 A 
ATOM     28  C   UNL     1      48.443  20.253  19.179  0.00  0.00    -0.074 A 
ATOM     29  C   UNL     1      47.391  21.044  19.906  0.00  0.00    +0.113 C 
ATOM     30  C   UNL     1      45.824  19.132  19.533  0.00  0.00    -0.159 A 
ATOM     31  C   UNL     1      45.991  20.627  19.459  0.00  0.00    +0.244 C 
ENDROOT
BRANCH  21  22
ATOM     22  O   UNL     1      51.348  18.033  17.242  0.00  0.00    -0.299 OA
ATOM     23  C   UNL     1      51.190  16.613  17.238  0.00  0.00    +0.248 C 
ENDBRANCH  21  22
BRANCH  24  25
ATOM     25  O   UNL     1      51.785  20.688  17.812  0.00  0.00    -0.297 OA
ATOM     26  C   UNL     1      52.745  20.894  18.851  0.00  0.00    +0.246 C 
ENDBRANCH  24  25
BRANCH   8   9
ATOM      9  O   UNL     1      45.393  15.013  19.669  0.00  0.00    -0.260 OA
BRANCH   9  10
ATOM     10  C   UNL     1      45.642  14.378  20.926  0.00  0.00    +0.401 C 
BRANCH  10  11
ATOM     11  O   UNL     1      46.988  13.900  20.959  0.00  0.00    -0.590 OA
ATOM     12  H   UNL     1      47.378  13.763  20.086  0.00  0.00    +0.405 HD
ENDBRANCH  10  11
ENDBRANCH   9  10
ENDBRANCH   8   9
BRANCH  13  14
ATOM     14  O   UNL     1      47.819  16.114  18.958  0.00  0.00    -0.297 OA
BRANCH  14  15
ATOM     15  C   UNL     1      47.714  15.342  17.760  0.00  0.00    +0.387 C 
BRANCH  15  16
ATOM     16  O   UNL     1      47.720  13.952  18.088  0.00  0.00    -0.580 OA
ATOM     17  H   UNL     1      48.422  13.695  18.701  0.00  0.00    +0.398 HD
ENDBRANCH  15  16
ENDBRANCH  14  15
ENDBRANCH  13  14
TORSDOF 8
ENDMDL
MODEL 8
REMARK VINA RESULT:      -5.0      5.129      8.028
REMARK  Name = ZINC95486345
REMARK  11 active torsions:
REMARK  status: ('A' for Active; 'I' for Inactive)
REMARK    1  A    between atoms: C1_1  and  N1_2
REMARK    2  A    between atoms: C6_7  and  O5_27
REMARK    3  A    between atoms: C7_8  and  O3_24
REMARK    4  A    between atoms: C15_17  and  O2_22
REMARK    5  A    between atoms: C16_18  and  O1_20
REMARK    6  A    between atoms: O1_20  and  C18_21
REMARK    7  A    between atoms: O2_22  and  C19_23
REMARK    8  A    between atoms: O3_24  and  C20_25
REMARK    9  A    between atoms: C20_25  and  O4_26
REMARK   10  A    between atoms: O5_27  and  C21_28
REMARK   11  A    between atoms: C21_28  and  O6_29
REMARK                            x       y       z     vdW  Elec       q    Type
REMARK                         _______ _______ _______ _____ _____    ______ ____
ROOT
ATOM      1  C   UNL     1      46.361  24.783  20.908  0.00  0.00    +0.329 C 
ATOM      2  N   UNL     1      45.061  24.252  20.475  0.00  0.00    -0.382 N 
ATOM      3  H   UNL     1      44.375  24.417  21.196  0.00  0.00    +0.425 HD
ATOM      4  C   UNL     1      44.646  24.927  19.245  0.00  0.00    +0.268 C 
ATOM      5  C   UNL     1      43.223  24.545  18.873  0.00  0.00    +0.126 C 
ATOM      6  C   UNL     1      42.941  23.091  19.131  0.00  0.00    -0.040 A 
ATOM      7  C   UNL     1      41.727  22.572  18.700  0.00  0.00    -0.043 A 
ATOM      8  C   UNL     1      41.420  21.236  18.886  0.00  0.00    +0.164 A 
ATOM     13  C   UNL     1      42.336  20.400  19.516  0.00  0.00    +0.076 A 
ATOM     18  C   UNL     1      43.545  20.923  19.968  0.00  0.00    +0.023 A 
ATOM     19  C   UNL     1      44.533  20.049  20.643  0.00  0.00    -0.059 A 
ATOM     20  C   UNL     1      44.445  18.664  20.536  0.00  0.00    +0.017 A 
ATOM     21  C   UNL     1      45.388  17.866  21.161  0.00  0.00    +0.109 A 
ATOM     24  C   UNL     1      46.420  18.451  21.890  0.00  0.00    +0.124 A 
ATOM     27  C   UNL     1      46.500  19.831  22.002  0.00  0.00    -0.023 A 
ATOM     28  C   UNL     1      45.556  20.630  21.389  0.00  0.00    -0.074 A 
ATOM     29  C   UNL     1      45.623  22.127  21.523  0.00  0.00    +0.113 C 
ATOM     30  C   UNL     1      43.850  22.272  19.766  0.00  0.00    -0.159 A 
ATOM     31  C   UNL     1      45.179  22.808  20.229  0.00  0.00    +0.244 C 
ENDROOT
BRANCH  21  22
ATOM     22  O   UNL     1      45.307  16.513  21.062  0.00  0.00    -0.299 OA
ATOM     23  C   UNL     1      45.633  15.934  19.796  0.00  0.00    +0.248 C 
ENDBRANCH  21  22
BRANCH  24  25
ATOM     25  O   UNL     1      47.351  17.667  22.495  0.00  0.00    -0.297 OA
ATOM     26  C   UNL     1      48.722  17.944  22.201  0.00  0.00    +0.246 C 
ENDBRANCH  24  25
BRANCH   8   9
ATOM      9  O   UNL     1      40.229  20.742  18.455  0.00  0.00    -0.260 OA
BRANCH   9  10
ATOM     10  C   UNL     1      39.067  21.533  18.714  0.00  0.00    +0.401 C 
BRANCH  10  11
ATOM     11  O   UNL     1      38.022  21.151  17.817  0.00  0.00    -0.590 OA
ATOM     12  H   UNL     1      37.469  20.429  18.143  0.00  0.00    +0.405 HD
ENDBRANCH  10  11
ENDBRANCH   9  10
ENDBRANCH   8   9
BRANCH  13  14
ATOM     14  O   UNL     1      42.052  19.082  19.690  0.00  0.00    -0.297 OA
BRANCH  14  15
ATOM     15  C   UNL     1      41.004  18.759  20.606  0.00  0.00    +0.387 C 
BRANCH  15  16
ATOM     16  O   UNL     1      41.264  19.382  21.865  0.00  0.00    -0.580 OA
ATOM     17  H   UNL     1      41.569  20.298  21.795  0.00  0.00    +0.398 HD
ENDBRANCH  15  16
ENDBRANCH  14  15
ENDBRANCH  13  14
TORSDOF 8
ENDMDL
MODEL 9
REMARK VINA RESULT:      -4.8      2.909      4.746
REMARK  Name = ZINC95486345
REMARK  11 active torsions:
REMARK  status: ('A' for Active; 'I' for Inactive)
REMARK    1  A    between atoms: C1_1  and  N1_2
REMARK    2  A    between atoms: C6_7  and  O5_27
REMARK    3  A    between atoms: C7_8  and  O3_24
REMARK    4  A    between atoms: C15_17  and  O2_22
REMARK    5  A    between atoms: C16_18  and  O1_20
REMARK    6  A    between atoms: O1_20  and  C18_21
REMARK    7  A    between atoms: O2_22  and  C19_23
REMARK    8  A    between atoms: O3_24  and  C20_25
REMARK    9  A    between atoms: C20_25  and  O4_26
REMARK   10  A    between atoms: O5_27  and  C21_28
REMARK   11  A    between atoms: C21_28  and  O6_29
REMARK                            x       y       z     vdW  Elec       q    Type
REMARK                         _______ _______ _______ _____ _____    ______ ____
ROOT
ATOM      1  C   UNL     1      52.209  18.569  15.750  0.00  0.00    +0.329 C 
ATOM      2  N   UNL     1      51.572  19.096  16.965  0.00  0.00    -0.382 N 
ATOM      3  H   UNL     1      52.140  18.870  17.767  0.00  0.00    +0.425 HD
ATOM      4  C   UNL     1      51.444  20.550  16.855  0.00  0.00    +0.268 C 
ATOM      5  C   UNL     1      50.968  21.151  18.168  0.00  0.00    +0.126 C 
ATOM      6  C   UNL     1      49.928  20.297  18.837  0.00  0.00    -0.040 A 
ATOM      7  C   UNL     1      49.300  20.798  19.970  0.00  0.00    -0.043 A 
ATOM      8  C   UNL     1      48.317  20.070  20.616  0.00  0.00    +0.164 A 
ATOM     13  C   UNL     1      47.954  18.818  20.130  0.00  0.00    +0.076 A 
ATOM     18  C   UNL     1      48.599  18.306  19.007  0.00  0.00    +0.023 A 
ATOM     19  C   UNL     1      48.228  16.973  18.475  0.00  0.00    -0.059 A 
ATOM     20  C   UNL     1      47.031  16.368  18.847  0.00  0.00    +0.017 A 
ATOM     21  C   UNL     1      46.696  15.130  18.325  0.00  0.00    +0.109 A 
ATOM     24  C   UNL     1      47.555  14.498  17.430  0.00  0.00    +0.124 A 
ATOM     27  C   UNL     1      48.751  15.099  17.068  0.00  0.00    -0.023 A 
ATOM     28  C   UNL     1      49.093  16.329  17.593  0.00  0.00    -0.074 A 
ATOM     29  C   UNL     1      50.398  16.978  17.222  0.00  0.00    +0.113 C 
ATOM     30  C   UNL     1      49.584  19.053  18.355  0.00  0.00    -0.159 A 
ATOM     31  C   UNL     1      50.241  18.495  17.121  0.00  0.00    +0.244 C 
ENDROOT
BRANCH  21  22
ATOM     22  O   UNL     1      45.529  14.533  18.685  0.00  0.00    -0.299 OA
ATOM     23  C   UNL     1      45.416  14.095  20.041  0.00  0.00    +0.248 C 
ENDBRANCH  21  22
BRANCH  24  25
ATOM     25  O   UNL     1      47.220  13.287  16.910  0.00  0.00    -0.297 OA
ATOM     26  C   UNL     1      47.610  13.031  15.559  0.00  0.00    +0.246 C 
ENDBRANCH  24  25
BRANCH   8   9
ATOM      9  O   UNL     1      47.707  20.575  21.722  0.00  0.00    -0.260 OA
BRANCH   9  10
ATOM     10  C   UNL     1      47.271  21.935  21.657  0.00  0.00    +0.401 C 
BRANCH  10  11
ATOM     11  O   UNL     1      45.987  21.993  21.033  0.00  0.00    -0.590 OA
ATOM     12  H   UNL     1      46.019  22.002  20.067  0.00  0.00    +0.405 HD
ENDBRANCH  10  11
ENDBRANCH   9  10
ENDBRANCH   8   9
BRANCH  13  14
ATOM     14  O   UNL     1      46.978  18.101  20.748  0.00  0.00    -0.297 OA
BRANCH  14  15
ATOM     15  C   UNL     1      45.634  18.561  20.587  0.00  0.00    +0.387 C 
BRANCH  15  16
ATOM     16  O   UNL     1      45.170  19.114  21.819  0.00  0.00    -0.580 OA
ATOM     17  H   UNL     1      44.656  19.927  21.717  0.00  0.00    +0.398 HD
ENDBRANCH  15  16
ENDBRANCH  14  15
ENDBRANCH  13  14
TORSDOF 8
ENDMDL
