MODEL 1
REMARK VINA RESULT:      -6.4      0.000      0.000
REMARK  Name = ZINC95485987
REMARK  10 active torsions:
REMARK  status: ('A' for Active; 'I' for Inactive)
REMARK    1  A    between atoms: C1_1  and  C2_2
REMARK    2  A    between atoms: C2_2  and  C21_27
REMARK    3  A    between atoms: C3_3  and  C4_4
REMARK    4  A    between atoms: C4_4  and  C5_5
REMARK    5  A    between atoms: C5_5  and  C6_6
REMARK    6  A    between atoms: C7_7  and  O6_26
REMARK    7  A    between atoms: C11_11  and  O1_12
REMARK    8  A    between atoms: C14_16  and  C15_18
REMARK    9  A    between atoms: C18_21  and  O5_25
REMARK   10  A    between atoms: C20_23  and  O4_24
REMARK                            x       y       z     vdW  Elec       q    Type
REMARK                         _______ _______ _______ _____ _____    ______ ____
ROOT
ATOM      7  C   UNL     1      49.478  19.860  20.467  0.00  0.00    -0.167 A 
ATOM      8  C   UNL     1      48.919  20.872  21.239  0.00  0.00    +0.191 A 
ATOM     11  C   UNL     1      47.586  21.225  21.085  0.00  0.00    -0.024 A 
ATOM     12  C   UNL     1      46.798  20.567  20.154  0.00  0.00    +0.176 A 
ATOM     13  C   UNL     1      47.359  19.543  19.372  0.00  0.00    -0.262 A 
ATOM     14  C   UNL     1      46.503  18.858  18.389  0.00  0.00    +0.423 A 
ATOM     15  C   UNL     1      45.157  19.277  18.295  0.00  0.00    -0.154 A 
ATOM     16  C   UNL     1      44.708  20.280  19.100  0.00  0.00    +0.215 A 
ATOM     27  O   UNL     1      46.938  17.961  17.685  0.00  0.00    -0.456 OA
ATOM     28  O   UNL     1      45.500  20.898  19.992  0.00  0.00    -0.206 OA
ATOM     29  C   UNL     1      48.707  19.196  19.529  0.00  0.00    +0.218 A 
ENDROOT
BRANCH  16  17
ATOM     17  C   UNL     1      43.302  20.704  18.986  0.00  0.00    -0.115 A 
ATOM     18  C   UNL     1      42.290  19.750  18.837  0.00  0.00    +0.100 A 
ATOM     19  C   UNL     1      40.978  20.152  18.732  0.00  0.00    -0.011 A 
ATOM     20  C   UNL     1      40.653  21.503  18.773  0.00  0.00    +0.154 A 
ATOM     23  C   UNL     1      41.649  22.458  18.921  0.00  0.00    -0.035 A 
ATOM     24  C   UNL     1      42.972  22.067  19.033  0.00  0.00    +0.169 A 
BRANCH  20  21
ATOM     21  O   UNL     1      39.356  21.891  18.668  0.00  0.00    -0.495 OA
ATOM     22  H   UNL     1      38.719  21.188  18.855  0.00  0.00    +0.401 HD
ENDBRANCH  20  21
BRANCH  24  25
ATOM     25  O   UNL     1      43.947  23.000  19.183  0.00  0.00    -0.481 OA
ATOM     26  H   UNL     1      44.824  22.699  18.911  0.00  0.00    +0.399 HD
ENDBRANCH  24  25
ENDBRANCH  16  17
BRANCH   8   9
ATOM      9  O   UNL     1      49.685  21.521  22.153  0.00  0.00    -0.484 OA
ATOM     10  H   UNL     1      50.220  22.236  21.781  0.00  0.00    +0.401 HD
ENDBRANCH   8   9
BRANCH  29  30
ATOM     30  O   UNL     1      49.253  18.211  18.771  0.00  0.00    -0.469 OA
ATOM     31  H   UNL     1      48.607  17.702  18.262  0.00  0.00    +0.400 HD
ENDBRANCH  29  30
BRANCH   7   6
ATOM      6  C   UNL     1      50.927  19.489  20.647  0.00  0.00    +0.096 C 
BRANCH   6   5
ATOM      5  C   UNL     1      51.805  20.464  19.860  0.00  0.00    +0.056 C 
BRANCH   5   4
ATOM      1  C   UNL     1      50.856  21.389  17.375  0.00  0.00    +0.073 C 
ATOM      2  C   UNL     1      51.825  20.237  17.430  0.00  0.00    -0.126 C 
ATOM      3  C   UNL     1      52.288  19.580  16.154  0.00  0.00    +0.072 C 
ATOM      4  C   UNL     1      52.266  19.807  18.586  0.00  0.00    -0.062 C 
ENDBRANCH   5   4
ENDBRANCH   6   5
ENDBRANCH   7   6
TORSDOF 8
ENDMDL
MODEL 2
REMARK VINA RESULT:      -6.4      1.199      2.643
REMARK  Name = ZINC95485987
REMARK  10 active torsions:
REMARK  status: ('A' for Active; 'I' for Inactive)
REMARK    1  A    between atoms: C1_1  and  C2_2
REMARK    2  A    between atoms: C2_2  and  C21_27
REMARK    3  A    between atoms: C3_3  and  C4_4
REMARK    4  A    between atoms: C4_4  and  C5_5
REMARK    5  A    between atoms: C5_5  and  C6_6
REMARK    6  A    between atoms: C7_7  and  O6_26
REMARK    7  A    between atoms: C11_11  and  O1_12
REMARK    8  A    between atoms: C14_16  and  C15_18
REMARK    9  A    between atoms: C18_21  and  O5_25
REMARK   10  A    between atoms: C20_23  and  O4_24
REMARK                            x       y       z     vdW  Elec       q    Type
REMARK                         _______ _______ _______ _____ _____    ______ ____
ROOT
ATOM      7  C   UNL     1      49.784  19.413  20.025  0.00  0.00    -0.167 A 
ATOM      8  C   UNL     1      49.100  18.641  19.093  0.00  0.00    +0.191 A 
ATOM     11  C   UNL     1      47.767  18.896  18.805  0.00  0.00    -0.024 A 
ATOM     12  C   UNL     1      47.105  19.928  19.450  0.00  0.00    +0.176 A 
ATOM     13  C   UNL     1      47.793  20.711  20.392  0.00  0.00    -0.262 A 
ATOM     14  C   UNL     1      47.069  21.802  21.066  0.00  0.00    +0.423 A 
ATOM     15  C   UNL     1      45.713  21.996  20.715  0.00  0.00    -0.154 A 
ATOM     16  C   UNL     1      45.136  21.183  19.787  0.00  0.00    +0.215 A 
ATOM     27  O   UNL     1      47.618  22.513  21.892  0.00  0.00    -0.456 OA
ATOM     28  O   UNL     1      45.808  20.191  19.181  0.00  0.00    -0.206 OA
ATOM     29  C   UNL     1      49.137  20.444  20.682  0.00  0.00    +0.218 A 
ENDROOT
BRANCH  16  17
ATOM     17  C   UNL     1      43.722  21.400  19.437  0.00  0.00    -0.115 A 
ATOM     18  C   UNL     1      43.242  22.696  19.222  0.00  0.00    +0.100 A 
ATOM     19  C   UNL     1      41.921  22.893  18.894  0.00  0.00    -0.011 A 
ATOM     20  C   UNL     1      41.058  21.808  18.774  0.00  0.00    +0.154 A 
ATOM     23  C   UNL     1      41.524  20.518  18.985  0.00  0.00    -0.035 A 
ATOM     24  C   UNL     1      42.852  20.306  19.311  0.00  0.00    +0.169 A 
BRANCH  20  21
ATOM     21  O   UNL     1      39.756  22.012  18.451  0.00  0.00    -0.495 OA
ATOM     22  H   UNL     1      39.191  22.219  19.208  0.00  0.00    +0.401 HD
ENDBRANCH  20  21
BRANCH  24  25
ATOM     25  O   UNL     1      43.311  19.044  19.512  0.00  0.00    -0.481 OA
ATOM     26  H   UNL     1      44.055  18.990  20.126  0.00  0.00    +0.399 HD
ENDBRANCH  24  25
ENDBRANCH  16  17
BRANCH   8   9
ATOM      9  O   UNL     1      49.743  17.628  18.457  0.00  0.00    -0.484 OA
ATOM     10  H   UNL     1      49.607  16.761  18.862  0.00  0.00    +0.401 HD
ENDBRANCH   8   9
BRANCH  29  30
ATOM     30  O   UNL     1      49.802  21.195  21.597  0.00  0.00    -0.469 OA
ATOM     31  H   UNL     1      49.458  22.093  21.694  0.00  0.00    +0.400 HD
ENDBRANCH  29  30
BRANCH   7   6
ATOM      6  C   UNL     1      51.232  19.121  20.325  0.00  0.00    +0.096 C 
BRANCH   6   5
ATOM      5  C   UNL     1      52.119  20.100  19.555  0.00  0.00    +0.056 C 
BRANCH   5   4
ATOM      1  C   UNL     1      51.091  21.338  17.242  0.00  0.00    +0.073 C 
ATOM      2  C   UNL     1      51.953  20.108  17.120  0.00  0.00    -0.126 C 
ATOM      3  C   UNL     1      52.266  19.539  15.758  0.00  0.00    +0.072 C 
ATOM      4  C   UNL     1      52.431  19.532  18.195  0.00  0.00    -0.062 C 
ENDBRANCH   5   4
ENDBRANCH   6   5
ENDBRANCH   7   6
TORSDOF 8
ENDMDL
MODEL 3
REMARK VINA RESULT:      -6.2      2.455      3.054
REMARK  Name = ZINC95485987
REMARK  10 active torsions:
REMARK  status: ('A' for Active; 'I' for Inactive)
REMARK    1  A    between atoms: C1_1  and  C2_2
REMARK    2  A    between atoms: C2_2  and  C21_27
REMARK    3  A    between atoms: C3_3  and  C4_4
REMARK    4  A    between atoms: C4_4  and  C5_5
REMARK    5  A    between atoms: C5_5  and  C6_6
REMARK    6  A    between atoms: C7_7  and  O6_26
REMARK    7  A    between atoms: C11_11  and  O1_12
REMARK    8  A    between atoms: C14_16  and  C15_18
REMARK    9  A    between atoms: C18_21  and  O5_25
REMARK   10  A    between atoms: C20_23  and  O4_24
REMARK                            x       y       z     vdW  Elec       q    Type
REMARK                         _______ _______ _______ _____ _____    ______ ____
ROOT
ATOM      7  C   UNL     1      50.417  17.575  19.061  0.00  0.00    -0.167 A 
ATOM      8  C   UNL     1      50.194  17.857  20.403  0.00  0.00    +0.191 A 
ATOM     11  C   UNL     1      48.910  18.091  20.874  0.00  0.00    -0.024 A 
ATOM     12  C   UNL     1      47.834  18.044  20.002  0.00  0.00    +0.176 A 
ATOM     13  C   UNL     1      48.055  17.758  18.644  0.00  0.00    -0.262 A 
ATOM     14  C   UNL     1      46.897  17.713  17.736  0.00  0.00    +0.423 A 
ATOM     15  C   UNL     1      45.622  17.962  18.294  0.00  0.00    -0.154 A 
ATOM     16  C   UNL     1      45.513  18.229  19.626  0.00  0.00    +0.215 A 
ATOM     27  O   UNL     1      47.031  17.470  16.548  0.00  0.00    -0.456 OA
ATOM     28  O   UNL     1      46.578  18.268  20.443  0.00  0.00    -0.206 OA
ATOM     29  C   UNL     1      49.355  17.529  18.175  0.00  0.00    +0.218 A 
ENDROOT
BRANCH  16  17
ATOM     17  C   UNL     1      44.177  18.487  20.189  0.00  0.00    -0.115 A 
ATOM     18  C   UNL     1      43.310  19.386  19.559  0.00  0.00    +0.100 A 
ATOM     19  C   UNL     1      42.062  19.622  20.089  0.00  0.00    -0.011 A 
ATOM     20  C   UNL     1      41.659  18.972  21.250  0.00  0.00    +0.154 A 
ATOM     23  C   UNL     1      42.511  18.078  21.883  0.00  0.00    -0.035 A 
ATOM     24  C   UNL     1      43.766  17.828  21.357  0.00  0.00    +0.169 A 
BRANCH  20  21
ATOM     21  O   UNL     1      40.427  19.212  21.766  0.00  0.00    -0.495 OA
ATOM     22  H   UNL     1      40.020  18.442  22.188  0.00  0.00    +0.401 HD
ENDBRANCH  20  21
BRANCH  24  25
ATOM     25  O   UNL     1      44.599  16.949  21.973  0.00  0.00    -0.481 OA
ATOM     26  H   UNL     1      44.992  17.286  22.789  0.00  0.00    +0.399 HD
ENDBRANCH  24  25
ENDBRANCH  16  17
BRANCH   8   9
ATOM      9  O   UNL     1      51.244  17.905  21.264  0.00  0.00    -0.484 OA
ATOM     10  H   UNL     1      50.990  17.858  22.196  0.00  0.00    +0.401 HD
ENDBRANCH   8   9
BRANCH  29  30
ATOM     30  O   UNL     1      49.572  17.259  16.863  0.00  0.00    -0.469 OA
ATOM     31  H   UNL     1      50.095  16.461  16.706  0.00  0.00    +0.400 HD
ENDBRANCH  29  30
BRANCH   7   6
ATOM      6  C   UNL     1      51.818  17.324  18.567  0.00  0.00    +0.096 C 
BRANCH   6   5
ATOM      5  C   UNL     1      52.604  18.637  18.572  0.00  0.00    +0.056 C 
BRANCH   5   4
ATOM      1  C   UNL     1      51.399  21.181  18.683  0.00  0.00    +0.073 C 
ATOM      2  C   UNL     1      51.765  20.577  17.352  0.00  0.00    -0.126 C 
ATOM      3  C   UNL     1      51.487  21.335  16.078  0.00  0.00    +0.072 C 
ATOM      4  C   UNL     1      52.325  19.394  17.300  0.00  0.00    -0.062 C 
ENDBRANCH   5   4
ENDBRANCH   6   5
ENDBRANCH   7   6
TORSDOF 8
ENDMDL
MODEL 4
REMARK VINA RESULT:      -6.2      1.585      2.590
REMARK  Name = ZINC95485987
REMARK  10 active torsions:
REMARK  status: ('A' for Active; 'I' for Inactive)
REMARK    1  A    between atoms: C1_1  and  C2_2
REMARK    2  A    between atoms: C2_2  and  C21_27
REMARK    3  A    between atoms: C3_3  and  C4_4
REMARK    4  A    between atoms: C4_4  and  C5_5
REMARK    5  A    between atoms: C5_5  and  C6_6
REMARK    6  A    between atoms: C7_7  and  O6_26
REMARK    7  A    between atoms: C11_11  and  O1_12
REMARK    8  A    between atoms: C14_16  and  C15_18
REMARK    9  A    between atoms: C18_21  and  O5_25
REMARK   10  A    between atoms: C20_23  and  O4_24
REMARK                            x       y       z     vdW  Elec       q    Type
REMARK                         _______ _______ _______ _____ _____    ______ ____
ROOT
ATOM      7  C   UNL     1      48.632  17.741  19.043  0.00  0.00    -0.167 A 
ATOM      8  C   UNL     1      48.005  17.681  17.803  0.00  0.00    +0.191 A 
ATOM     11  C   UNL     1      46.732  18.202  17.628  0.00  0.00    -0.024 A 
ATOM     12  C   UNL     1      46.072  18.791  18.695  0.00  0.00    +0.176 A 
ATOM     13  C   UNL     1      46.702  18.855  19.949  0.00  0.00    -0.262 A 
ATOM     14  C   UNL     1      45.982  19.485  21.068  0.00  0.00    +0.423 A 
ATOM     15  C   UNL     1      44.689  19.992  20.806  0.00  0.00    -0.154 A 
ATOM     16  C   UNL     1      44.165  19.882  19.554  0.00  0.00    +0.215 A 
ATOM     27  O   UNL     1      46.482  19.568  22.178  0.00  0.00    -0.456 OA
ATOM     28  O   UNL     1      44.833  19.304  18.542  0.00  0.00    -0.206 OA
ATOM     29  C   UNL     1      47.986  18.321  20.119  0.00  0.00    +0.218 A 
ENDROOT
BRANCH  16  17
ATOM     17  C   UNL     1      42.816  20.415  19.300  0.00  0.00    -0.115 A 
ATOM     18  C   UNL     1      41.705  19.566  19.345  0.00  0.00    +0.100 A 
ATOM     19  C   UNL     1      40.446  20.070  19.108  0.00  0.00    -0.011 A 
ATOM     20  C   UNL     1      40.273  21.420  18.825  0.00  0.00    +0.154 A 
ATOM     23  C   UNL     1      41.368  22.271  18.779  0.00  0.00    -0.035 A 
ATOM     24  C   UNL     1      42.639  21.778  19.019  0.00  0.00    +0.169 A 
BRANCH  20  21
ATOM     21  O   UNL     1      39.028  21.908  18.592  0.00  0.00    -0.495 OA
ATOM     22  H   UNL     1      38.820  22.023  17.655  0.00  0.00    +0.401 HD
ENDBRANCH  20  21
BRANCH  24  25
ATOM     25  O   UNL     1      43.711  22.611  18.979  0.00  0.00    -0.481 OA
ATOM     26  H   UNL     1      43.482  23.541  18.853  0.00  0.00    +0.399 HD
ENDBRANCH  24  25
ENDBRANCH  16  17
BRANCH   8   9
ATOM      9  O   UNL     1      48.646  17.105  16.753  0.00  0.00    -0.484 OA
ATOM     10  H   UNL     1      48.119  16.440  16.288  0.00  0.00    +0.401 HD
ENDBRANCH   8   9
BRANCH  29  30
ATOM     30  O   UNL     1      48.595  18.377  21.332  0.00  0.00    -0.469 OA
ATOM     31  H   UNL     1      48.894  17.518  21.662  0.00  0.00    +0.400 HD
ENDBRANCH  29  30
BRANCH   7   6
ATOM      6  C   UNL     1      50.015  17.170  19.214  0.00  0.00    +0.096 C 
BRANCH   6   5
ATOM      5  C   UNL     1      51.036  18.308  19.253  0.00  0.00    +0.056 C 
BRANCH   5   4
ATOM      1  C   UNL     1      50.741  20.810  17.994  0.00  0.00    +0.073 C 
ATOM      2  C   UNL     1      51.461  19.691  17.287  0.00  0.00    -0.126 C 
ATOM      3  C   UNL     1      52.023  19.910  15.906  0.00  0.00    +0.072 C 
ATOM      4  C   UNL     1      51.598  18.527  17.873  0.00  0.00    -0.062 C 
ENDBRANCH   5   4
ENDBRANCH   6   5
ENDBRANCH   7   6
TORSDOF 8
ENDMDL
MODEL 5
REMARK VINA RESULT:      -5.9      4.707      8.860
REMARK  Name = ZINC95485987
REMARK  10 active torsions:
REMARK  status: ('A' for Active; 'I' for Inactive)
REMARK    1  A    between atoms: C1_1  and  C2_2
REMARK    2  A    between atoms: C2_2  and  C21_27
REMARK    3  A    between atoms: C3_3  and  C4_4
REMARK    4  A    between atoms: C4_4  and  C5_5
REMARK    5  A    between atoms: C5_5  and  C6_6
REMARK    6  A    between atoms: C7_7  and  O6_26
REMARK    7  A    between atoms: C11_11  and  O1_12
REMARK    8  A    between atoms: C14_16  and  C15_18
REMARK    9  A    between atoms: C18_21  and  O5_25
REMARK   10  A    between atoms: C20_23  and  O4_24
REMARK                            x       y       z     vdW  Elec       q    Type
REMARK                         _______ _______ _______ _____ _____    ______ ____
ROOT
ATOM      7  C   UNL     1      44.950  17.976  19.581  0.00  0.00    -0.167 A 
ATOM      8  C   UNL     1      45.579  18.468  18.444  0.00  0.00    +0.191 A 
ATOM     11  C   UNL     1      46.267  17.617  17.591  0.00  0.00    -0.024 A 
ATOM     12  C   UNL     1      46.331  16.261  17.870  0.00  0.00    +0.176 A 
ATOM     13  C   UNL     1      45.695  15.759  19.018  0.00  0.00    -0.262 A 
ATOM     14  C   UNL     1      45.777  14.315  19.295  0.00  0.00    +0.423 A 
ATOM     15  C   UNL     1      46.496  13.516  18.376  0.00  0.00    -0.154 A 
ATOM     16  C   UNL     1      47.076  14.100  17.290  0.00  0.00    +0.215 A 
ATOM     27  O   UNL     1      45.243  13.826  20.277  0.00  0.00    -0.456 OA
ATOM     28  O   UNL     1      46.995  15.418  17.050  0.00  0.00    -0.206 OA
ATOM     29  C   UNL     1      45.008  16.626  19.878  0.00  0.00    +0.218 A 
ENDROOT
BRANCH  16  17
ATOM     17  C   UNL     1      47.822  13.251  16.345  0.00  0.00    -0.115 A 
ATOM     18  C   UNL     1      47.203  12.144  15.755  0.00  0.00    +0.100 A 
ATOM     19  C   UNL     1      47.904  11.355  14.873  0.00  0.00    -0.011 A 
ATOM     20  C   UNL     1      49.227  11.654  14.563  0.00  0.00    +0.154 A 
ATOM     23  C   UNL     1      49.850  12.750  15.142  0.00  0.00    -0.035 A 
ATOM     24  C   UNL     1      49.155  13.554  16.028  0.00  0.00    +0.169 A 
BRANCH  20  21
ATOM     21  O   UNL     1      49.911  10.870  13.692  0.00  0.00    -0.495 OA
ATOM     22  H   UNL     1      50.839  10.736  13.928  0.00  0.00    +0.401 HD
ENDBRANCH  20  21
BRANCH  24  25
ATOM     25  O   UNL     1      49.762  14.630  16.591  0.00  0.00    -0.481 OA
ATOM     26  H   UNL     1      49.631  14.700  17.546  0.00  0.00    +0.399 HD
ENDBRANCH  24  25
ENDBRANCH  16  17
BRANCH   8   9
ATOM      9  O   UNL     1      45.521  19.796  18.164  0.00  0.00    -0.484 OA
ATOM     10  H   UNL     1      46.129  20.077  17.467  0.00  0.00    +0.401 HD
ENDBRANCH   8   9
BRANCH  29  30
ATOM     30  O   UNL     1      44.399  16.144  20.991  0.00  0.00    -0.469 OA
ATOM     31  H   UNL     1      44.256  16.808  21.680  0.00  0.00    +0.400 HD
ENDBRANCH  29  30
BRANCH   7   6
ATOM      6  C   UNL     1      44.208  18.915  20.496  0.00  0.00    +0.096 C 
BRANCH   6   5
ATOM      5  C   UNL     1      42.753  19.029  20.039  0.00  0.00    +0.056 C 
BRANCH   5   4
ATOM      1  C   UNL     1      40.862  19.676  18.054  0.00  0.00    +0.073 C 
ATOM      2  C   UNL     1      41.550  20.773  18.826  0.00  0.00    -0.126 C 
ATOM      3  C   UNL     1      41.226  22.216  18.536  0.00  0.00    +0.072 C 
ATOM      4  C   UNL     1      42.429  20.472  19.749  0.00  0.00    -0.062 C 
ENDBRANCH   5   4
ENDBRANCH   6   5
ENDBRANCH   7   6
TORSDOF 8
ENDMDL
MODEL 6
REMARK VINA RESULT:      -5.7      2.509      3.170
REMARK  Name = ZINC95485987
REMARK  10 active torsions:
REMARK  status: ('A' for Active; 'I' for Inactive)
REMARK    1  A    between atoms: C1_1  and  C2_2
REMARK    2  A    between atoms: C2_2  and  C21_27
REMARK    3  A    between atoms: C3_3  and  C4_4
REMARK    4  A    between atoms: C4_4  and  C5_5
REMARK    5  A    between atoms: C5_5  and  C6_6
REMARK    6  A    between atoms: C7_7  and  O6_26
REMARK    7  A    between atoms: C11_11  and  O1_12
REMARK    8  A    between atoms: C14_16  and  C15_18
REMARK    9  A    between atoms: C18_21  and  O5_25
REMARK   10  A    between atoms: C20_23  and  O4_24
REMARK                            x       y       z     vdW  Elec       q    Type
REMARK                         _______ _______ _______ _____ _____    ______ ____
ROOT
ATOM      7  C   UNL     1      50.082  18.949  18.020  0.00  0.00    -0.167 A 
ATOM      8  C   UNL     1      49.704  20.140  18.629  0.00  0.00    +0.191 A 
ATOM     11  C   UNL     1      48.432  20.290  19.160  0.00  0.00    -0.024 A 
ATOM     12  C   UNL     1      47.523  19.246  19.087  0.00  0.00    +0.176 A 
ATOM     13  C   UNL     1      47.902  18.041  18.473  0.00  0.00    -0.262 A 
ATOM     14  C   UNL     1      46.919  16.945  18.407  0.00  0.00    +0.423 A 
ATOM     15  C   UNL     1      45.645  17.179  18.973  0.00  0.00    -0.154 A 
ATOM     16  C   UNL     1      45.376  18.384  19.547  0.00  0.00    +0.215 A 
ATOM     27  O   UNL     1      47.195  15.877  17.886  0.00  0.00    -0.456 OA
ATOM     28  O   UNL     1      46.281  19.375  19.600  0.00  0.00    -0.206 OA
ATOM     29  C   UNL     1      49.186  17.899  17.933  0.00  0.00    +0.218 A 
ENDROOT
BRANCH  16  17
ATOM     17  C   UNL     1      44.043  18.609  20.130  0.00  0.00    -0.115 A 
ATOM     18  C   UNL     1      43.673  17.957  21.311  0.00  0.00    +0.100 A 
ATOM     19  C   UNL     1      42.426  18.171  21.852  0.00  0.00    -0.011 A 
ATOM     20  C   UNL     1      41.530  19.033  21.230  0.00  0.00    +0.154 A 
ATOM     23  C   UNL     1      41.886  19.685  20.058  0.00  0.00    -0.035 A 
ATOM     24  C   UNL     1      43.139  19.482  19.506  0.00  0.00    +0.169 A 
BRANCH  20  21
ATOM     21  O   UNL     1      40.302  19.238  21.770  0.00  0.00    -0.495 OA
ATOM     22  H   UNL     1      39.922  18.455  22.190  0.00  0.00    +0.401 HD
ENDBRANCH  20  21
BRANCH  24  25
ATOM     25  O   UNL     1      43.491  20.123  18.362  0.00  0.00    -0.481 OA
ATOM     26  H   UNL     1      43.713  21.056  18.486  0.00  0.00    +0.399 HD
ENDBRANCH  24  25
ENDBRANCH  16  17
BRANCH   8   9
ATOM      9  O   UNL     1      50.589  21.167  18.704  0.00  0.00    -0.484 OA
ATOM     10  H   UNL     1      50.305  21.889  19.282  0.00  0.00    +0.401 HD
ENDBRANCH   8   9
BRANCH  29  30
ATOM     30  O   UNL     1      49.552  16.736  17.334  0.00  0.00    -0.469 OA
ATOM     31  H   UNL     1      50.386  16.790  16.848  0.00  0.00    +0.400 HD
ENDBRANCH  29  30
BRANCH   7   6
ATOM      6  C   UNL     1      51.468  18.804  17.448  0.00  0.00    +0.096 C 
BRANCH   6   5
ATOM      5  C   UNL     1      52.451  18.468  18.570  0.00  0.00    +0.056 C 
BRANCH   5   4
ATOM      1  C   UNL     1      51.557  16.797  20.654  0.00  0.00    +0.073 C 
ATOM      2  C   UNL     1      52.348  16.218  19.510  0.00  0.00    -0.126 C 
ATOM      3  C   UNL     1      52.660  14.743  19.480  0.00  0.00    +0.072 C 
ATOM      4  C   UNL     1      52.764  16.995  18.541  0.00  0.00    -0.062 C 
ENDBRANCH   5   4
ENDBRANCH   6   5
ENDBRANCH   7   6
TORSDOF 8
ENDMDL
MODEL 7
REMARK VINA RESULT:      -5.5      4.491      7.872
REMARK  Name = ZINC95485987
REMARK  10 active torsions:
REMARK  status: ('A' for Active; 'I' for Inactive)
REMARK    1  A    between atoms: C1_1  and  C2_2
REMARK    2  A    between atoms: C2_2  and  C21_27
REMARK    3  A    between atoms: C3_3  and  C4_4
REMARK    4  A    between atoms: C4_4  and  C5_5
REMARK    5  A    between atoms: C5_5  and  C6_6
REMARK    6  A    between atoms: C7_7  and  O6_26
REMARK    7  A    between atoms: C11_11  and  O1_12
REMARK    8  A    between atoms: C14_16  and  C15_18
REMARK    9  A    between atoms: C18_21  and  O5_25
REMARK   10  A    between atoms: C20_23  and  O4_24
REMARK                            x       y       z     vdW  Elec       q    Type
REMARK                         _______ _______ _______ _____ _____    ______ ____
ROOT
ATOM      7  C   UNL     1      44.699  18.568  20.121  0.00  0.00    -0.167 A 
ATOM      8  C   UNL     1      45.218  18.949  18.890  0.00  0.00    +0.191 A 
ATOM     11  C   UNL     1      45.776  18.009  18.036  0.00  0.00    -0.024 A 
ATOM     12  C   UNL     1      45.818  16.674  18.407  0.00  0.00    +0.176 A 
ATOM     13  C   UNL     1      45.293  16.285  19.651  0.00  0.00    -0.262 A 
ATOM     14  C   UNL     1      45.349  14.862  20.025  0.00  0.00    +0.423 A 
ATOM     15  C   UNL     1      45.933  13.968  19.098  0.00  0.00    -0.154 A 
ATOM     16  C   UNL     1      46.413  14.446  17.917  0.00  0.00    +0.215 A 
ATOM     27  O   UNL     1      44.908  14.469  21.093  0.00  0.00    -0.456 OA
ATOM     28  O   UNL     1      46.356  15.746  17.588  0.00  0.00    -0.206 OA
ATOM     29  C   UNL     1      44.737  17.241  20.511  0.00  0.00    +0.218 A 
ENDROOT
BRANCH  16  17
ATOM     17  C   UNL     1      47.019  13.499  16.964  0.00  0.00    -0.115 A 
ATOM     18  C   UNL     1      46.398  12.274  16.700  0.00  0.00    +0.100 A 
ATOM     19  C   UNL     1      46.967  11.393  15.809  0.00  0.00    -0.011 A 
ATOM     20  C   UNL     1      48.159  11.716  15.169  0.00  0.00    +0.154 A 
ATOM     23  C   UNL     1      48.783  12.929  15.423  0.00  0.00    -0.035 A 
ATOM     24  C   UNL     1      48.218  13.825  16.313  0.00  0.00    +0.169 A 
BRANCH  20  21
ATOM     21  O   UNL     1      48.714  10.842  14.292  0.00  0.00    -0.495 OA
ATOM     22  H   UNL     1      48.755   9.932  14.617  0.00  0.00    +0.401 HD
ENDBRANCH  20  21
BRANCH  24  25
ATOM     25  O   UNL     1      48.825  15.015  16.560  0.00  0.00    -0.481 OA
ATOM     26  H   UNL     1      49.784  14.999  16.442  0.00  0.00    +0.399 HD
ENDBRANCH  24  25
ENDBRANCH  16  17
BRANCH   8   9
ATOM      9  O   UNL     1      45.181  20.255  18.519  0.00  0.00    -0.484 OA
ATOM     10  H   UNL     1      46.042  20.693  18.534  0.00  0.00    +0.401 HD
ENDBRANCH   8   9
BRANCH  29  30
ATOM     30  O   UNL     1      44.235  16.868  21.716  0.00  0.00    -0.469 OA
ATOM     31  H   UNL     1      43.487  17.404  22.013  0.00  0.00    +0.400 HD
ENDBRANCH  29  30
BRANCH   7   6
ATOM      6  C   UNL     1      44.097  19.603  21.036  0.00  0.00    +0.096 C 
BRANCH   6   5
ATOM      5  C   UNL     1      45.191  20.195  21.926  0.00  0.00    +0.056 C 
BRANCH   5   4
ATOM      1  C   UNL     1      47.445  21.556  20.923  0.00  0.00    +0.073 C 
ATOM      2  C   UNL     1      46.223  22.330  21.343  0.00  0.00    -0.126 C 
ATOM      3  C   UNL     1      46.205  23.833  21.227  0.00  0.00    +0.072 C 
ATOM      4  C   UNL     1      45.175  21.697  21.809  0.00  0.00    -0.062 C 
ENDBRANCH   5   4
ENDBRANCH   6   5
ENDBRANCH   7   6
TORSDOF 8
ENDMDL
MODEL 8
REMARK VINA RESULT:      -5.5      4.030      5.851
REMARK  Name = ZINC95485987
REMARK  10 active torsions:
REMARK  status: ('A' for Active; 'I' for Inactive)
REMARK    1  A    between atoms: C1_1  and  C2_2
REMARK    2  A    between atoms: C2_2  and  C21_27
REMARK    3  A    between atoms: C3_3  and  C4_4
REMARK    4  A    between atoms: C4_4  and  C5_5
REMARK    5  A    between atoms: C5_5  and  C6_6
REMARK    6  A    between atoms: C7_7  and  O6_26
REMARK    7  A    between atoms: C11_11  and  O1_12
REMARK    8  A    between atoms: C14_16  and  C15_18
REMARK    9  A    between atoms: C18_21  and  O5_25
REMARK   10  A    between atoms: C20_23  and  O4_24
REMARK                            x       y       z     vdW  Elec       q    Type
REMARK                         _______ _______ _______ _____ _____    ______ ____
ROOT
ATOM      7  C   UNL     1      46.085  14.796  18.137  0.00  0.00    -0.167 A 
ATOM      8  C   UNL     1      46.680  15.731  17.297  0.00  0.00    +0.191 A 
ATOM     11  C   UNL     1      46.648  17.082  17.607  0.00  0.00    -0.024 A 
ATOM     12  C   UNL     1      46.017  17.512  18.764  0.00  0.00    +0.176 A 
ATOM     13  C   UNL     1      45.415  16.571  19.615  0.00  0.00    -0.262 A 
ATOM     14  C   UNL     1      44.750  17.051  20.839  0.00  0.00    +0.423 A 
ATOM     15  C   UNL     1      44.762  18.443  21.082  0.00  0.00    -0.154 A 
ATOM     16  C   UNL     1      45.374  19.275  20.194  0.00  0.00    +0.215 A 
ATOM     27  O   UNL     1      44.212  16.277  21.613  0.00  0.00    -0.456 OA
ATOM     28  O   UNL     1      45.976  18.824  19.081  0.00  0.00    -0.206 OA
ATOM     29  C   UNL     1      45.447  15.208  19.292  0.00  0.00    +0.218 A 
ENDROOT
BRANCH  16  17
ATOM     17  C   UNL     1      45.375  20.722  20.464  0.00  0.00    -0.115 A 
ATOM     18  C   UNL     1      46.246  21.259  21.417  0.00  0.00    +0.100 A 
ATOM     19  C   UNL     1      46.243  22.613  21.665  0.00  0.00    -0.011 A 
ATOM     20  C   UNL     1      45.377  23.451  20.971  0.00  0.00    +0.154 A 
ATOM     23  C   UNL     1      44.509  22.929  20.023  0.00  0.00    -0.035 A 
ATOM     24  C   UNL     1      44.505  21.570  19.761  0.00  0.00    +0.169 A 
BRANCH  20  21
ATOM     21  O   UNL     1      45.380  24.785  21.223  0.00  0.00    -0.495 OA
ATOM     22  H   UNL     1      45.991  25.288  20.668  0.00  0.00    +0.401 HD
ENDBRANCH  20  21
BRANCH  24  25
ATOM     25  O   UNL     1      43.660  21.058  18.829  0.00  0.00    -0.481 OA
ATOM     26  H   UNL     1      43.061  21.710  18.442  0.00  0.00    +0.399 HD
ENDBRANCH  24  25
ENDBRANCH  16  17
BRANCH   8   9
ATOM      9  O   UNL     1      47.300  15.317  16.162  0.00  0.00    -0.484 OA
ATOM     10  H   UNL     1      47.651  14.417  16.211  0.00  0.00    +0.401 HD
ENDBRANCH   8   9
BRANCH  29  30
ATOM     30  O   UNL     1      44.861  14.297  20.111  0.00  0.00    -0.469 OA
ATOM     31  H   UNL     1      44.276  14.685  20.776  0.00  0.00    +0.400 HD
ENDBRANCH  29  30
BRANCH   7   6
ATOM      6  C   UNL     1      46.131  13.332  17.784  0.00  0.00    +0.096 C 
BRANCH   6   5
ATOM      5  C   UNL     1      47.339  12.682  18.459  0.00  0.00    +0.056 C 
BRANCH   5   4
ATOM      1  C   UNL     1      49.898  13.802  18.097  0.00  0.00    +0.073 C 
ATOM      2  C   UNL     1      49.453  12.646  17.239  0.00  0.00    -0.126 C 
ATOM      3  C   UNL     1      50.378  12.088  16.187  0.00  0.00    +0.072 C 
ATOM      4  C   UNL     1      48.263  12.125  17.407  0.00  0.00    -0.062 C 
ENDBRANCH   5   4
ENDBRANCH   6   5
ENDBRANCH   7   6
TORSDOF 8
ENDMDL
MODEL 9
REMARK VINA RESULT:      -5.5      4.289      6.260
REMARK  Name = ZINC95485987
REMARK  10 active torsions:
REMARK  status: ('A' for Active; 'I' for Inactive)
REMARK    1  A    between atoms: C1_1  and  C2_2
REMARK    2  A    between atoms: C2_2  and  C21_27
REMARK    3  A    between atoms: C3_3  and  C4_4
REMARK    4  A    between atoms: C4_4  and  C5_5
REMARK    5  A    between atoms: C5_5  and  C6_6
REMARK    6  A    between atoms: C7_7  and  O6_26
REMARK    7  A    between atoms: C11_11  and  O1_12
REMARK    8  A    between atoms: C14_16  and  C15_18
REMARK    9  A    between atoms: C18_21  and  O5_25
REMARK   10  A    between atoms: C20_23  and  O4_24
REMARK                            x       y       z     vdW  Elec       q    Type
REMARK                         _______ _______ _______ _____ _____    ______ ____
ROOT
ATOM      7  C   UNL     1      46.662  14.701  18.354  0.00  0.00    -0.167 A 
ATOM      8  C   UNL     1      46.920  15.557  17.290  0.00  0.00    +0.191 A 
ATOM     11  C   UNL     1      46.424  16.853  17.288  0.00  0.00    -0.024 A 
ATOM     12  C   UNL     1      45.664  17.305  18.355  0.00  0.00    +0.176 A 
ATOM     13  C   UNL     1      45.401  16.442  19.432  0.00  0.00    -0.262 A 
ATOM     14  C   UNL     1      44.590  16.944  20.555  0.00  0.00    +0.423 A 
ATOM     15  C   UNL     1      44.123  18.276  20.476  0.00  0.00    -0.154 A 
ATOM     16  C   UNL     1      44.434  19.032  19.387  0.00  0.00    +0.215 A 
ATOM     27  O   UNL     1      44.332  16.238  21.516  0.00  0.00    -0.456 OA
ATOM     28  O   UNL     1      45.174  18.563  18.370  0.00  0.00    -0.206 OA
ATOM     29  C   UNL     1      45.900  15.133  19.424  0.00  0.00    +0.218 A 
ENDROOT
BRANCH  16  17
ATOM     17  C   UNL     1      43.938  20.418  19.322  0.00  0.00    -0.115 A 
ATOM     18  C   UNL     1      42.581  20.668  19.094  0.00  0.00    +0.100 A 
ATOM     19  C   UNL     1      42.122  21.964  19.035  0.00  0.00    -0.011 A 
ATOM     20  C   UNL     1      43.003  23.028  19.202  0.00  0.00    +0.154 A 
ATOM     23  C   UNL     1      44.351  22.791  19.430  0.00  0.00    -0.035 A 
ATOM     24  C   UNL     1      44.824  21.492  19.495  0.00  0.00    +0.169 A 
BRANCH  20  21
ATOM     21  O   UNL     1      42.543  24.304  19.142  0.00  0.00    -0.495 OA
ATOM     22  H   UNL     1      41.678  24.429  19.556  0.00  0.00    +0.401 HD
ENDBRANCH  20  21
BRANCH  24  25
ATOM     25  O   UNL     1      46.142  21.258  19.723  0.00  0.00    -0.481 OA
ATOM     26  H   UNL     1      46.315  20.472  20.259  0.00  0.00    +0.399 HD
ENDBRANCH  24  25
ENDBRANCH  16  17
BRANCH   8   9
ATOM      9  O   UNL     1      47.665  15.122  16.241  0.00  0.00    -0.484 OA
ATOM     10  H   UNL     1      48.582  15.426  16.257  0.00  0.00    +0.401 HD
ENDBRANCH   8   9
BRANCH  29  30
ATOM     30  O   UNL     1      45.642  14.296  20.462  0.00  0.00    -0.469 OA
ATOM     31  H   UNL     1      44.872  13.727  20.326  0.00  0.00    +0.400 HD
ENDBRANCH  29  30
BRANCH   7   6
ATOM      6  C   UNL     1      47.208  13.297  18.339  0.00  0.00    +0.096 C 
BRANCH   6   5
ATOM      5  C   UNL     1      46.060  12.305  18.142  0.00  0.00    +0.056 C 
BRANCH   5   4
ATOM      1  C   UNL     1      43.901  11.665  16.450  0.00  0.00    +0.073 C 
ATOM      2  C   UNL     1      45.293  11.207  16.101  0.00  0.00    -0.126 C 
ATOM      3  C   UNL     1      45.531  10.407  14.846  0.00  0.00    +0.072 C 
ATOM      4  C   UNL     1      46.297  11.504  16.888  0.00  0.00    -0.062 C 
ENDBRANCH   5   4
ENDBRANCH   6   5
ENDBRANCH   7   6
TORSDOF 8
ENDMDL
