MODEL 1
REMARK VINA RESULT:      -6.3      0.000      0.000
REMARK  Name = ZINC95486194
REMARK  13 active torsions:
REMARK  status: ('A' for Active; 'I' for Inactive)
REMARK    1  A    between atoms: C1_1  and  C2_2
REMARK    2  A    between atoms: C4_4  and  O7_27
REMARK    3  A    between atoms: C5_5  and  C19_24
REMARK    4  A    between atoms: C6_6  and  O5_23
REMARK    5  A    between atoms: C7_7  and  C8_8
REMARK    6  A    between atoms: C8_8  and  O2_10
REMARK    7  A    between atoms: O2_10  and  C9_11
REMARK    8  A    between atoms: C11_13  and  C18_22
REMARK    9  A    between atoms: C12_14  and  C16_19
REMARK   10  A    between atoms: C13_15  and  O3_18
REMARK   11  A    between atoms: C14_16  and  C15_17
REMARK   12  A    between atoms: C16_19  and  C17_21
REMARK   13  A    between atoms: C19_24  and  C20_26
REMARK                            x       y       z     vdW  Elec       q    Type
REMARK                         _______ _______ _______ _____ _____    ______ ____
ROOT
ATOM     15  C   UNL     1      46.563  16.646  18.211  0.00  0.00    +0.525 C 
ATOM     30  O   UNL     1      46.308  16.403  17.048  0.00  0.00    -0.462 OA
ENDROOT
BRANCH  15  14
ATOM      1  C   UNL     1      45.636  15.139  20.491  0.00  0.00    +0.117 C 
ATOM      2  C   UNL     1      45.069  16.505  20.195  0.00  0.00    +0.008 A 
ATOM      3  C   UNL     1      44.107  17.040  21.021  0.00  0.00    -0.001 A 
ATOM      4  C   UNL     1      43.575  18.295  20.762  0.00  0.00    +0.189 A 
ATOM      7  C   UNL     1      44.018  19.033  19.649  0.00  0.00    -0.216 A 
ATOM     11  C   UNL     1      45.000  18.490  18.805  0.00  0.00    +0.204 A 
ATOM     14  C   UNL     1      45.529  17.223  19.085  0.00  0.00    -0.150 A 
BRANCH   7   8
ATOM      8  C   UNL     1      43.459  20.356  19.372  0.00  0.00    +0.423 C 
ATOM      9  C   UNL     1      42.112  20.483  18.707  0.00  0.00    +0.089 C 
ATOM     10  O   UNL     1      44.079  21.353  19.678  0.00  0.00    -0.446 OA
ENDBRANCH   7   8
BRANCH   4   5
ATOM      5  O   UNL     1      42.628  18.811  21.582  0.00  0.00    -0.488 OA
ATOM      6  H   UNL     1      42.082  19.494  21.170  0.00  0.00    +0.406 HD
ENDBRANCH   4   5
BRANCH  11  12
ATOM     12  O   UNL     1      45.436  19.188  17.730  0.00  0.00    -0.484 OA
ATOM     13  H   UNL     1      44.775  19.284  17.031  0.00  0.00    +0.405 HD
ENDBRANCH  11  12
ENDBRANCH  15  14
BRANCH  15  16
ATOM     16  O   UNL     1      47.792  16.388  18.701  0.00  0.00    -0.286 OA
BRANCH  16  17
ATOM     17  C   UNL     1      48.798  17.240  18.376  0.00  0.00    +0.112 A 
ATOM     18  C   UNL     1      48.758  18.560  18.816  0.00  0.00    +0.017 A 
ATOM     19  C   UNL     1      49.762  19.426  18.498  0.00  0.00    -0.029 A 
ATOM     20  C   UNL     1      49.709  20.853  18.979  0.00  0.00    +0.111 C 
ATOM     21  C   UNL     1      50.845  18.990  17.721  0.00  0.00    -0.172 A 
ATOM     25  C   UNL     1      50.889  17.657  17.276  0.00  0.00    +0.154 A 
ATOM     28  C   UNL     1      49.864  16.789  17.612  0.00  0.00    -0.111 A 
ATOM     29  C   UNL     1      49.905  15.357  17.144  0.00  0.00    +0.115 C 
BRANCH  21  22
ATOM     22  C   UNL     1      51.924  19.919  17.377  0.00  0.00    +0.411 C 
ATOM     23  C   UNL     1      51.759  20.870  16.220  0.00  0.00    +0.081 C 
ATOM     24  O   UNL     1      52.951  19.923  18.023  0.00  0.00    -0.437 OA
ENDBRANCH  21  22
BRANCH  25  26
ATOM     26  O   UNL     1      51.931  17.224  16.523  0.00  0.00    -0.483 OA
ATOM     27  H   UNL     1      52.677  16.892  17.040  0.00  0.00    +0.396 HD
ENDBRANCH  25  26
ENDBRANCH  16  17
ENDBRANCH  15  16
TORSDOF 8
ENDMDL
MODEL 2
REMARK VINA RESULT:      -6.2      3.551      5.574
REMARK  Name = ZINC95486194
REMARK  13 active torsions:
REMARK  status: ('A' for Active; 'I' for Inactive)
REMARK    1  A    between atoms: C1_1  and  C2_2
REMARK    2  A    between atoms: C4_4  and  O7_27
REMARK    3  A    between atoms: C5_5  and  C19_24
REMARK    4  A    between atoms: C6_6  and  O5_23
REMARK    5  A    between atoms: C7_7  and  C8_8
REMARK    6  A    between atoms: C8_8  and  O2_10
REMARK    7  A    between atoms: O2_10  and  C9_11
REMARK    8  A    between atoms: C11_13  and  C18_22
REMARK    9  A    between atoms: C12_14  and  C16_19
REMARK   10  A    between atoms: C13_15  and  O3_18
REMARK   11  A    between atoms: C14_16  and  C15_17
REMARK   12  A    between atoms: C16_19  and  C17_21
REMARK   13  A    between atoms: C19_24  and  C20_26
REMARK                            x       y       z     vdW  Elec       q    Type
REMARK                         _______ _______ _______ _____ _____    ______ ____
ROOT
ATOM     15  C   UNL     1      44.766  19.694  21.331  0.00  0.00    +0.525 C 
ATOM     30  O   UNL     1      44.341  19.290  22.395  0.00  0.00    -0.462 OA
ENDROOT
BRANCH  15  14
ATOM      1  C   UNL     1      45.631  22.440  21.131  0.00  0.00    +0.117 C 
ATOM      2  C   UNL     1      44.378  21.980  20.429  0.00  0.00    +0.008 A 
ATOM      3  C   UNL     1      43.645  22.874  19.682  0.00  0.00    -0.001 A 
ATOM      4  C   UNL     1      42.489  22.466  19.030  0.00  0.00    +0.189 A 
ATOM      7  C   UNL     1      42.059  21.130  19.129  0.00  0.00    -0.216 A 
ATOM     11  C   UNL     1      42.805  20.216  19.888  0.00  0.00    +0.204 A 
ATOM     14  C   UNL     1      43.972  20.645  20.535  0.00  0.00    -0.150 A 
BRANCH   7   8
ATOM      8  C   UNL     1      40.840  20.696  18.444  0.00  0.00    +0.423 C 
ATOM      9  C   UNL     1      39.531  21.388  18.723  0.00  0.00    +0.089 C 
ATOM     10  O   UNL     1      40.884  19.779  17.651  0.00  0.00    -0.446 OA
ENDBRANCH   7   8
BRANCH   4   5
ATOM      5  O   UNL     1      41.775  23.355  18.299  0.00  0.00    -0.488 OA
ATOM      6  H   UNL     1      41.658  24.213  18.729  0.00  0.00    +0.406 HD
ENDBRANCH   4   5
BRANCH  11  12
ATOM     12  O   UNL     1      42.403  18.928  19.993  0.00  0.00    -0.484 OA
ATOM     13  H   UNL     1      42.112  18.678  20.881  0.00  0.00    +0.405 HD
ENDBRANCH  11  12
ENDBRANCH  15  14
BRANCH  15  16
ATOM     16  O   UNL     1      45.963  19.273  20.877  0.00  0.00    -0.286 OA
BRANCH  16  17
ATOM     17  C   UNL     1      46.026  18.052  20.285  0.00  0.00    +0.112 A 
ATOM     18  C   UNL     1      46.097  16.904  21.069  0.00  0.00    +0.017 A 
ATOM     19  C   UNL     1      46.160  15.672  20.487  0.00  0.00    -0.029 A 
ATOM     20  C   UNL     1      46.237  14.436  21.346  0.00  0.00    +0.111 C 
ATOM     21  C   UNL     1      46.154  15.555  19.090  0.00  0.00    -0.172 A 
ATOM     25  C   UNL     1      46.082  16.713  18.295  0.00  0.00    +0.154 A 
ATOM     28  C   UNL     1      46.013  17.956  18.901  0.00  0.00    -0.111 A 
ATOM     29  C   UNL     1      45.930  19.202  18.058  0.00  0.00    +0.115 C 
BRANCH  21  22
ATOM     22  C   UNL     1      46.223  14.233  18.463  0.00  0.00    +0.411 C 
ATOM     23  C   UNL     1      45.094  13.251  18.649  0.00  0.00    +0.081 C 
ATOM     24  O   UNL     1      47.186  13.929  17.791  0.00  0.00    -0.437 OA
ENDBRANCH  21  22
BRANCH  25  26
ATOM     26  O   UNL     1      46.076  16.612  16.942  0.00  0.00    -0.483 OA
ATOM     27  H   UNL     1      45.509  17.260  16.503  0.00  0.00    +0.396 HD
ENDBRANCH  25  26
ENDBRANCH  16  17
ENDBRANCH  15  16
TORSDOF 8
ENDMDL
MODEL 3
REMARK VINA RESULT:      -6.1      1.581      2.655
REMARK  Name = ZINC95486194
REMARK  13 active torsions:
REMARK  status: ('A' for Active; 'I' for Inactive)
REMARK    1  A    between atoms: C1_1  and  C2_2
REMARK    2  A    between atoms: C4_4  and  O7_27
REMARK    3  A    between atoms: C5_5  and  C19_24
REMARK    4  A    between atoms: C6_6  and  O5_23
REMARK    5  A    between atoms: C7_7  and  C8_8
REMARK    6  A    between atoms: C8_8  and  O2_10
REMARK    7  A    between atoms: O2_10  and  C9_11
REMARK    8  A    between atoms: C11_13  and  C18_22
REMARK    9  A    between atoms: C12_14  and  C16_19
REMARK   10  A    between atoms: C13_15  and  O3_18
REMARK   11  A    between atoms: C14_16  and  C15_17
REMARK   12  A    between atoms: C16_19  and  C17_21
REMARK   13  A    between atoms: C19_24  and  C20_26
REMARK                            x       y       z     vdW  Elec       q    Type
REMARK                         _______ _______ _______ _____ _____    ______ ____
ROOT
ATOM     15  C   UNL     1      45.631  17.722  19.767  0.00  0.00    +0.525 C 
ATOM     30  O   UNL     1      45.735  17.008  18.790  0.00  0.00    -0.462 OA
ENDROOT
BRANCH  15  14
ATOM      1  C   UNL     1      44.379  16.610  22.117  0.00  0.00    +0.117 C 
ATOM      2  C   UNL     1      43.686  17.684  21.318  0.00  0.00    +0.008 A 
ATOM      3  C   UNL     1      42.450  18.143  21.715  0.00  0.00    -0.001 A 
ATOM      4  C   UNL     1      41.800  19.132  20.991  0.00  0.00    +0.189 A 
ATOM      7  C   UNL     1      42.402  19.675  19.840  0.00  0.00    -0.216 A 
ATOM     11  C   UNL     1      43.663  19.210  19.434  0.00  0.00    +0.204 A 
ATOM     14  C   UNL     1      44.307  18.215  20.181  0.00  0.00    -0.150 A 
BRANCH   7   8
ATOM      8  C   UNL     1      41.719  20.717  19.073  0.00  0.00    +0.423 C 
ATOM      9  C   UNL     1      40.579  20.354  18.157  0.00  0.00    +0.089 C 
ATOM     10  O   UNL     1      42.070  21.874  19.174  0.00  0.00    -0.446 OA
ENDBRANCH   7   8
BRANCH   4   5
ATOM      5  O   UNL     1      40.584  19.575  21.390  0.00  0.00    -0.488 OA
ATOM      6  H   UNL     1      40.161  20.179  20.765  0.00  0.00    +0.406 HD
ENDBRANCH   4   5
BRANCH  11  12
ATOM     12  O   UNL     1      44.254  19.722  18.329  0.00  0.00    -0.484 OA
ATOM     13  H   UNL     1      44.869  20.446  18.513  0.00  0.00    +0.405 HD
ENDBRANCH  11  12
ENDBRANCH  15  14
BRANCH  15  16
ATOM     16  O   UNL     1      46.727  18.066  20.473  0.00  0.00    -0.286 OA
BRANCH  16  17
ATOM     17  C   UNL     1      47.875  18.305  19.788  0.00  0.00    +0.112 A 
ATOM     18  C   UNL     1      48.686  17.241  19.403  0.00  0.00    +0.017 A 
ATOM     19  C   UNL     1      49.842  17.467  18.715  0.00  0.00    -0.029 A 
ATOM     20  C   UNL     1      50.713  16.308  18.302  0.00  0.00    +0.111 C 
ATOM     21  C   UNL     1      50.222  18.778  18.391  0.00  0.00    -0.172 A 
ATOM     25  C   UNL     1      49.404  19.854  18.779  0.00  0.00    +0.154 A 
ATOM     28  C   UNL     1      48.231  19.608  19.472  0.00  0.00    -0.111 A 
ATOM     29  C   UNL     1      47.346  20.755  19.887  0.00  0.00    +0.115 C 
BRANCH  21  22
ATOM     22  C   UNL     1      51.463  19.023  17.653  0.00  0.00    +0.411 C 
ATOM     23  C   UNL     1      51.484  18.896  16.152  0.00  0.00    +0.081 C 
ATOM     24  O   UNL     1      52.474  19.330  18.250  0.00  0.00    -0.437 OA
ENDBRANCH  21  22
BRANCH  25  26
ATOM     26  O   UNL     1      49.762  21.126  18.472  0.00  0.00    -0.483 OA
ATOM     27  H   UNL     1      50.638  21.201  18.070  0.00  0.00    +0.396 HD
ENDBRANCH  25  26
ENDBRANCH  16  17
ENDBRANCH  15  16
TORSDOF 8
ENDMDL
MODEL 4
REMARK VINA RESULT:      -5.9      2.934      4.798
REMARK  Name = ZINC95486194
REMARK  13 active torsions:
REMARK  status: ('A' for Active; 'I' for Inactive)
REMARK    1  A    between atoms: C1_1  and  C2_2
REMARK    2  A    between atoms: C4_4  and  O7_27
REMARK    3  A    between atoms: C5_5  and  C19_24
REMARK    4  A    between atoms: C6_6  and  O5_23
REMARK    5  A    between atoms: C7_7  and  C8_8
REMARK    6  A    between atoms: C8_8  and  O2_10
REMARK    7  A    between atoms: O2_10  and  C9_11
REMARK    8  A    between atoms: C11_13  and  C18_22
REMARK    9  A    between atoms: C12_14  and  C16_19
REMARK   10  A    between atoms: C13_15  and  O3_18
REMARK   11  A    between atoms: C14_16  and  C15_17
REMARK   12  A    between atoms: C16_19  and  C17_21
REMARK   13  A    between atoms: C19_24  and  C20_26
REMARK                            x       y       z     vdW  Elec       q    Type
REMARK                         _______ _______ _______ _____ _____    ______ ____
ROOT
ATOM     15  C   UNL     1      45.645  18.283  19.857  0.00  0.00    +0.525 C 
ATOM     30  O   UNL     1      46.528  18.350  20.690  0.00  0.00    -0.462 OA
ENDROOT
BRANCH  15  14
ATOM      1  C   UNL     1      44.460  17.044  22.178  0.00  0.00    +0.117 C 
ATOM      2  C   UNL     1      43.671  18.025  21.349  0.00  0.00    +0.008 A 
ATOM      3  C   UNL     1      42.378  18.338  21.704  0.00  0.00    -0.001 A 
ATOM      4  C   UNL     1      41.639  19.239  20.951  0.00  0.00    +0.189 A 
ATOM      7  C   UNL     1      42.209  19.842  19.814  0.00  0.00    -0.216 A 
ATOM     11  C   UNL     1      43.527  19.527  19.450  0.00  0.00    +0.204 A 
ATOM     14  C   UNL     1      44.260  18.618  20.226  0.00  0.00    -0.150 A 
BRANCH   7   8
ATOM      8  C   UNL     1      41.432  20.792  19.017  0.00  0.00    +0.423 C 
ATOM      9  C   UNL     1      40.368  20.293  18.074  0.00  0.00    +0.089 C 
ATOM     10  O   UNL     1      41.645  21.983  19.115  0.00  0.00    -0.446 OA
ENDBRANCH   7   8
BRANCH   4   5
ATOM      5  O   UNL     1      40.368  19.538  21.309  0.00  0.00    -0.488 OA
ATOM      6  H   UNL     1      39.704  18.938  20.942  0.00  0.00    +0.406 HD
ENDBRANCH   4   5
BRANCH  11  12
ATOM     12  O   UNL     1      44.088  20.099  18.359  0.00  0.00    -0.484 OA
ATOM     13  H   UNL     1      43.774  20.996  18.181  0.00  0.00    +0.405 HD
ENDBRANCH  11  12
ENDBRANCH  15  14
BRANCH  15  16
ATOM     16  O   UNL     1      45.933  17.901  18.597  0.00  0.00    -0.286 OA
BRANCH  16  17
ATOM     17  C   UNL     1      46.194  16.587  18.374  0.00  0.00    +0.112 A 
ATOM     18  C   UNL     1      45.495  15.612  19.080  0.00  0.00    +0.017 A 
ATOM     19  C   UNL     1      45.747  14.289  18.865  0.00  0.00    -0.029 A 
ATOM     20  C   UNL     1      44.984  13.241  19.633  0.00  0.00    +0.111 C 
ATOM     21  C   UNL     1      46.718  13.902  17.930  0.00  0.00    -0.172 A 
ATOM     25  C   UNL     1      47.426  14.885  17.216  0.00  0.00    +0.154 A 
ATOM     28  C   UNL     1      47.154  16.224  17.441  0.00  0.00    -0.111 A 
ATOM     29  C   UNL     1      47.904  17.285  16.677  0.00  0.00    +0.115 C 
BRANCH  21  22
ATOM     22  C   UNL     1      46.992  12.482  17.699  0.00  0.00    +0.411 C 
ATOM     23  C   UNL     1      46.123  11.691  16.755  0.00  0.00    +0.081 C 
ATOM     24  O   UNL     1      47.920  11.942  18.265  0.00  0.00    -0.437 OA
ENDBRANCH  21  22
BRANCH  25  26
ATOM     26  O   UNL     1      48.369  14.523  16.310  0.00  0.00    -0.483 OA
ATOM     27  H   UNL     1      48.828  15.270  15.903  0.00  0.00    +0.396 HD
ENDBRANCH  25  26
ENDBRANCH  16  17
ENDBRANCH  15  16
TORSDOF 8
ENDMDL
MODEL 5
REMARK VINA RESULT:      -5.8      2.165      4.079
REMARK  Name = ZINC95486194
REMARK  13 active torsions:
REMARK  status: ('A' for Active; 'I' for Inactive)
REMARK    1  A    between atoms: C1_1  and  C2_2
REMARK    2  A    between atoms: C4_4  and  O7_27
REMARK    3  A    between atoms: C5_5  and  C19_24
REMARK    4  A    between atoms: C6_6  and  O5_23
REMARK    5  A    between atoms: C7_7  and  C8_8
REMARK    6  A    between atoms: C8_8  and  O2_10
REMARK    7  A    between atoms: O2_10  and  C9_11
REMARK    8  A    between atoms: C11_13  and  C18_22
REMARK    9  A    between atoms: C12_14  and  C16_19
REMARK   10  A    between atoms: C13_15  and  O3_18
REMARK   11  A    between atoms: C14_16  and  C15_17
REMARK   12  A    between atoms: C16_19  and  C17_21
REMARK   13  A    between atoms: C19_24  and  C20_26
REMARK                            x       y       z     vdW  Elec       q    Type
REMARK                         _______ _______ _______ _____ _____    ______ ____
ROOT
ATOM     15  C   UNL     1      44.785  19.766  21.314  0.00  0.00    +0.525 C 
ATOM     30  O   UNL     1      44.927  19.960  22.505  0.00  0.00    -0.462 OA
ENDROOT
BRANCH  15  14
ATOM      1  C   UNL     1      45.659  22.502  21.031  0.00  0.00    +0.117 C 
ATOM      2  C   UNL     1      44.393  22.030  20.361  0.00  0.00    +0.008 A 
ATOM      3  C   UNL     1      43.652  22.909  19.603  0.00  0.00    -0.001 A 
ATOM      4  C   UNL     1      42.485  22.490  18.980  0.00  0.00    +0.189 A 
ATOM      7  C   UNL     1      42.050  21.159  19.119  0.00  0.00    -0.216 A 
ATOM     11  C   UNL     1      42.804  20.261  19.890  0.00  0.00    +0.204 A 
ATOM     14  C   UNL     1      43.983  20.700  20.508  0.00  0.00    -0.150 A 
BRANCH   7   8
ATOM      8  C   UNL     1      40.819  20.714  18.464  0.00  0.00    +0.423 C 
ATOM      9  C   UNL     1      39.514  21.405  18.762  0.00  0.00    +0.089 C 
ATOM     10  O   UNL     1      40.850  19.788  17.680  0.00  0.00    -0.446 OA
ENDBRANCH   7   8
BRANCH   4   5
ATOM      5  O   UNL     1      41.763  23.363  18.238  0.00  0.00    -0.488 OA
ATOM      6  H   UNL     1      41.302  24.035  18.759  0.00  0.00    +0.406 HD
ENDBRANCH   4   5
BRANCH  11  12
ATOM     12  O   UNL     1      42.398  18.977  20.032  0.00  0.00    -0.484 OA
ATOM     13  H   UNL     1      42.463  18.643  20.938  0.00  0.00    +0.405 HD
ENDBRANCH  11  12
ENDBRANCH  15  14
BRANCH  15  16
ATOM     16  O   UNL     1      45.360  18.695  20.731  0.00  0.00    -0.286 OA
BRANCH  16  17
ATOM     17  C   UNL     1      46.594  18.853  20.187  0.00  0.00    +0.112 A 
ATOM     18  C   UNL     1      47.532  19.664  20.821  0.00  0.00    +0.017 A 
ATOM     19  C   UNL     1      48.775  19.830  20.285  0.00  0.00    -0.029 A 
ATOM     20  C   UNL     1      49.784  20.710  20.979  0.00  0.00    +0.111 C 
ATOM     21  C   UNL     1      49.117  19.183  19.089  0.00  0.00    -0.172 A 
ATOM     25  C   UNL     1      48.172  18.364  18.447  0.00  0.00    +0.154 A 
ATOM     28  C   UNL     1      46.915  18.200  19.006  0.00  0.00    -0.111 A 
ATOM     29  C   UNL     1      45.897  17.319  18.329  0.00  0.00    +0.115 C 
BRANCH  21  22
ATOM     22  C   UNL     1      50.451  19.361  18.511  0.00  0.00    +0.411 C 
ATOM     23  C   UNL     1      51.544  18.371  18.820  0.00  0.00    +0.081 C 
ATOM     24  O   UNL     1      50.676  20.305  17.782  0.00  0.00    -0.437 OA
ENDBRANCH  21  22
BRANCH  25  26
ATOM     26  O   UNL     1      48.490  17.734  17.288  0.00  0.00    -0.483 OA
ATOM     27  H   UNL     1      47.915  17.964  16.546  0.00  0.00    +0.396 HD
ENDBRANCH  25  26
ENDBRANCH  16  17
ENDBRANCH  15  16
TORSDOF 8
ENDMDL
MODEL 6
REMARK VINA RESULT:      -5.7      2.118      3.420
REMARK  Name = ZINC95486194
REMARK  13 active torsions:
REMARK  status: ('A' for Active; 'I' for Inactive)
REMARK    1  A    between atoms: C1_1  and  C2_2
REMARK    2  A    between atoms: C4_4  and  O7_27
REMARK    3  A    between atoms: C5_5  and  C19_24
REMARK    4  A    between atoms: C6_6  and  O5_23
REMARK    5  A    between atoms: C7_7  and  C8_8
REMARK    6  A    between atoms: C8_8  and  O2_10
REMARK    7  A    between atoms: O2_10  and  C9_11
REMARK    8  A    between atoms: C11_13  and  C18_22
REMARK    9  A    between atoms: C12_14  and  C16_19
REMARK   10  A    between atoms: C13_15  and  O3_18
REMARK   11  A    between atoms: C14_16  and  C15_17
REMARK   12  A    between atoms: C16_19  and  C17_21
REMARK   13  A    between atoms: C19_24  and  C20_26
REMARK                            x       y       z     vdW  Elec       q    Type
REMARK                         _______ _______ _______ _____ _____    ______ ____
ROOT
ATOM     15  C   UNL     1      45.611  21.191  20.141  0.00  0.00    +0.525 C 
ATOM     30  O   UNL     1      46.042  21.977  20.961  0.00  0.00    -0.462 OA
ENDROOT
BRANCH  15  14
ATOM      1  C   UNL     1      45.671  19.122  22.151  0.00  0.00    +0.117 C 
ATOM      2  C   UNL     1      44.399  19.420  21.399  0.00  0.00    +0.008 A 
ATOM      3  C   UNL     1      43.255  18.706  21.678  0.00  0.00    -0.001 A 
ATOM      4  C   UNL     1      42.076  18.969  20.994  0.00  0.00    +0.189 A 
ATOM      7  C   UNL     1      42.042  19.972  20.008  0.00  0.00    -0.216 A 
ATOM     11  C   UNL     1      43.206  20.704  19.723  0.00  0.00    +0.204 A 
ATOM     14  C   UNL     1      44.386  20.427  20.427  0.00  0.00    -0.150 A 
BRANCH   7   8
ATOM      8  C   UNL     1      40.801  20.252  19.285  0.00  0.00    +0.423 C 
ATOM      9  C   UNL     1      40.613  19.735  17.882  0.00  0.00    +0.089 C 
ATOM     10  O   UNL     1      39.922  20.900  19.815  0.00  0.00    -0.446 OA
ENDBRANCH   7   8
BRANCH   4   5
ATOM      5  O   UNL     1      40.958  18.259  21.276  0.00  0.00    -0.488 OA
ATOM      6  H   UNL     1      40.235  18.400  20.650  0.00  0.00    +0.406 HD
ENDBRANCH   4   5
BRANCH  11  12
ATOM     12  O   UNL     1      43.188  21.671  18.777  0.00  0.00    -0.484 OA
ATOM     13  H   UNL     1      42.343  22.138  18.708  0.00  0.00    +0.405 HD
ENDBRANCH  11  12
ENDBRANCH  15  14
BRANCH  15  16
ATOM     16  O   UNL     1      46.255  21.015  18.970  0.00  0.00    -0.286 OA
BRANCH  16  17
ATOM     17  C   UNL     1      47.397  20.280  18.975  0.00  0.00    +0.112 A 
ATOM     18  C   UNL     1      48.594  20.864  19.381  0.00  0.00    +0.017 A 
ATOM     19  C   UNL     1      49.748  20.137  19.391  0.00  0.00    -0.029 A 
ATOM     20  C   UNL     1      51.039  20.778  19.833  0.00  0.00    +0.111 C 
ATOM     21  C   UNL     1      49.736  18.793  18.991  0.00  0.00    -0.172 A 
ATOM     25  C   UNL     1      48.528  18.201  18.582  0.00  0.00    +0.154 A 
ATOM     28  C   UNL     1      47.363  18.951  18.582  0.00  0.00    -0.111 A 
ATOM     29  C   UNL     1      46.063  18.324  18.149  0.00  0.00    +0.115 C 
BRANCH  21  22
ATOM     22  C   UNL     1      50.974  18.011  19.001  0.00  0.00    +0.411 C 
ATOM     23  C   UNL     1      51.957  18.143  17.866  0.00  0.00    +0.081 C 
ATOM     24  O   UNL     1      51.210  17.258  19.923  0.00  0.00    -0.437 OA
ENDBRANCH  21  22
BRANCH  25  26
ATOM     26  O   UNL     1      48.503  16.902  18.191  0.00  0.00    -0.483 OA
ATOM     27  H   UNL     1      48.815  16.284  18.866  0.00  0.00    +0.396 HD
ENDBRANCH  25  26
ENDBRANCH  16  17
ENDBRANCH  15  16
TORSDOF 8
ENDMDL
MODEL 7
REMARK VINA RESULT:      -5.7      2.525      6.910
REMARK  Name = ZINC95486194
REMARK  13 active torsions:
REMARK  status: ('A' for Active; 'I' for Inactive)
REMARK    1  A    between atoms: C1_1  and  C2_2
REMARK    2  A    between atoms: C4_4  and  O7_27
REMARK    3  A    between atoms: C5_5  and  C19_24
REMARK    4  A    between atoms: C6_6  and  O5_23
REMARK    5  A    between atoms: C7_7  and  C8_8
REMARK    6  A    between atoms: C8_8  and  O2_10
REMARK    7  A    between atoms: O2_10  and  C9_11
REMARK    8  A    between atoms: C11_13  and  C18_22
REMARK    9  A    between atoms: C12_14  and  C16_19
REMARK   10  A    between atoms: C13_15  and  O3_18
REMARK   11  A    between atoms: C14_16  and  C15_17
REMARK   12  A    between atoms: C16_19  and  C17_21
REMARK   13  A    between atoms: C19_24  and  C20_26
REMARK                            x       y       z     vdW  Elec       q    Type
REMARK                         _______ _______ _______ _____ _____    ______ ____
ROOT
ATOM     15  C   UNL     1      47.374  18.171  19.919  0.00  0.00    +0.525 C 
ATOM     30  O   UNL     1      47.415  17.820  21.081  0.00  0.00    -0.462 OA
ENDROOT
BRANCH  15  14
ATOM      1  C   UNL     1      47.146  21.047  19.838  0.00  0.00    +0.117 C 
ATOM      2  C   UNL     1      48.379  20.362  19.304  0.00  0.00    +0.008 A 
ATOM      3  C   UNL     1      49.407  21.114  18.780  0.00  0.00    -0.001 A 
ATOM      4  C   UNL     1      50.548  20.498  18.285  0.00  0.00    +0.189 A 
ATOM      7  C   UNL     1      50.662  19.096  18.316  0.00  0.00    -0.216 A 
ATOM     11  C   UNL     1      49.617  18.327  18.851  0.00  0.00    +0.204 A 
ATOM     14  C   UNL     1      48.474  18.966  19.351  0.00  0.00    -0.150 A 
BRANCH   7   8
ATOM      8  C   UNL     1      51.864  18.443  17.793  0.00  0.00    +0.423 C 
ATOM      9  C   UNL     1      51.845  17.811  16.425  0.00  0.00    +0.089 C 
ATOM     10  O   UNL     1      52.876  18.411  18.462  0.00  0.00    -0.446 OA
ENDBRANCH   7   8
BRANCH   4   5
ATOM      5  O   UNL     1      51.552  21.248  17.770  0.00  0.00    -0.488 OA
ATOM      6  H   UNL     1      51.314  22.173  17.620  0.00  0.00    +0.406 HD
ENDBRANCH   4   5
BRANCH  11  12
ATOM     12  O   UNL     1      49.713  16.978  18.886  0.00  0.00    -0.484 OA
ATOM     13  H   UNL     1      48.889  16.532  19.128  0.00  0.00    +0.405 HD
ENDBRANCH  11  12
ENDBRANCH  15  14
BRANCH  15  16
ATOM     16  O   UNL     1      46.320  17.834  19.149  0.00  0.00    -0.286 OA
BRANCH  16  17
ATOM     17  C   UNL     1      46.225  16.547  18.728  0.00  0.00    +0.112 A 
ATOM     18  C   UNL     1      45.754  15.566  19.597  0.00  0.00    +0.017 A 
ATOM     19  C   UNL     1      45.654  14.270  19.186  0.00  0.00    -0.029 A 
ATOM     20  C   UNL     1      45.143  13.216  20.135  0.00  0.00    +0.111 C 
ATOM     21  C   UNL     1      46.026  13.915  17.882  0.00  0.00    -0.172 A 
ATOM     25  C   UNL     1      46.501  14.903  17.002  0.00  0.00    +0.154 A 
ATOM     28  C   UNL     1      46.593  16.216  17.431  0.00  0.00    -0.111 A 
ATOM     29  C   UNL     1      47.096  17.284  16.494  0.00  0.00    +0.115 C 
BRANCH  21  22
ATOM     22  C   UNL     1      45.920  12.523  17.439  0.00  0.00    +0.411 C 
ATOM     23  C   UNL     1      47.056  11.564  17.689  0.00  0.00    +0.081 C 
ATOM     24  O   UNL     1      44.918  12.140  16.873  0.00  0.00    -0.437 OA
ENDBRANCH  21  22
BRANCH  25  26
ATOM     26  O   UNL     1      46.866  14.572  15.738  0.00  0.00    -0.483 OA
ATOM     27  H   UNL     1      47.183  13.663  15.646  0.00  0.00    +0.396 HD
ENDBRANCH  25  26
ENDBRANCH  16  17
ENDBRANCH  15  16
TORSDOF 8
ENDMDL
MODEL 8
REMARK VINA RESULT:      -5.6      1.923      2.993
REMARK  Name = ZINC95486194
REMARK  13 active torsions:
REMARK  status: ('A' for Active; 'I' for Inactive)
REMARK    1  A    between atoms: C1_1  and  C2_2
REMARK    2  A    between atoms: C4_4  and  O7_27
REMARK    3  A    between atoms: C5_5  and  C19_24
REMARK    4  A    between atoms: C6_6  and  O5_23
REMARK    5  A    between atoms: C7_7  and  C8_8
REMARK    6  A    between atoms: C8_8  and  O2_10
REMARK    7  A    between atoms: O2_10  and  C9_11
REMARK    8  A    between atoms: C11_13  and  C18_22
REMARK    9  A    between atoms: C12_14  and  C16_19
REMARK   10  A    between atoms: C13_15  and  O3_18
REMARK   11  A    between atoms: C14_16  and  C15_17
REMARK   12  A    between atoms: C16_19  and  C17_21
REMARK   13  A    between atoms: C19_24  and  C20_26
REMARK                            x       y       z     vdW  Elec       q    Type
REMARK                         _______ _______ _______ _____ _____    ______ ____
ROOT
ATOM     15  C   UNL     1      46.554  18.968  20.735  0.00  0.00    +0.525 C 
ATOM     30  O   UNL     1      47.038  18.922  21.848  0.00  0.00    -0.462 OA
ENDROOT
BRANCH  15  14
ATOM      1  C   UNL     1      47.161  21.769  21.072  0.00  0.00    +0.117 C 
ATOM      2  C   UNL     1      45.803  21.335  20.580  0.00  0.00    +0.008 A 
ATOM      3  C   UNL     1      44.849  22.281  20.283  0.00  0.00    -0.001 A 
ATOM      4  C   UNL     1      43.594  21.898  19.829  0.00  0.00    +0.189 A 
ATOM      7  C   UNL     1      43.290  20.533  19.668  0.00  0.00    -0.216 A 
ATOM     11  C   UNL     1      44.261  19.566  19.969  0.00  0.00    +0.204 A 
ATOM     14  C   UNL     1      45.524  19.972  20.421  0.00  0.00    -0.150 A 
BRANCH   7   8
ATOM      8  C   UNL     1      41.968  20.125  19.191  0.00  0.00    +0.423 C 
ATOM      9  C   UNL     1      40.957  19.563  20.157  0.00  0.00    +0.089 C 
ATOM     10  O   UNL     1      41.685  20.240  18.016  0.00  0.00    -0.446 OA
ENDBRANCH   7   8
BRANCH   4   5
ATOM      5  O   UNL     1      42.663  22.837  19.541  0.00  0.00    -0.488 OA
ATOM      6  H   UNL     1      43.022  23.633  19.127  0.00  0.00    +0.406 HD
ENDBRANCH   4   5
BRANCH  11  12
ATOM     12  O   UNL     1      43.982  18.250  19.820  0.00  0.00    -0.484 OA
ATOM     13  H   UNL     1      43.498  18.041  19.009  0.00  0.00    +0.405 HD
ENDBRANCH  11  12
ENDBRANCH  15  14
BRANCH  15  16
ATOM     16  O   UNL     1      46.957  18.099  19.787  0.00  0.00    -0.286 OA
BRANCH  16  17
ATOM     17  C   UNL     1      48.173  18.299  19.216  0.00  0.00    +0.112 A 
ATOM     18  C   UNL     1      48.650  19.594  19.037  0.00  0.00    +0.017 A 
ATOM     19  C   UNL     1      49.870  19.809  18.466  0.00  0.00    -0.029 A 
ATOM     20  C   UNL     1      50.377  21.216  18.277  0.00  0.00    +0.111 C 
ATOM     21  C   UNL     1      50.653  18.721  18.053  0.00  0.00    -0.172 A 
ATOM     25  C   UNL     1      50.174  17.412  18.233  0.00  0.00    +0.154 A 
ATOM     28  C   UNL     1      48.936  17.210  18.820  0.00  0.00    -0.111 A 
ATOM     29  C   UNL     1      48.416  15.810  19.022  0.00  0.00    +0.115 C 
BRANCH  21  22
ATOM     22  C   UNL     1      51.962  18.949  17.438  0.00  0.00    +0.411 C 
ATOM     23  C   UNL     1      52.065  19.203  15.956  0.00  0.00    +0.081 C 
ATOM     24  O   UNL     1      52.965  18.936  18.121  0.00  0.00    -0.437 OA
ENDBRANCH  21  22
BRANCH  25  26
ATOM     26  O   UNL     1      50.922  16.352  17.836  0.00  0.00    -0.483 OA
ATOM     27  H   UNL     1      50.944  15.627  18.476  0.00  0.00    +0.396 HD
ENDBRANCH  25  26
ENDBRANCH  16  17
ENDBRANCH  15  16
TORSDOF 8
ENDMDL
MODEL 9
REMARK VINA RESULT:      -5.5      2.659      7.159
REMARK  Name = ZINC95486194
REMARK  13 active torsions:
REMARK  status: ('A' for Active; 'I' for Inactive)
REMARK    1  A    between atoms: C1_1  and  C2_2
REMARK    2  A    between atoms: C4_4  and  O7_27
REMARK    3  A    between atoms: C5_5  and  C19_24
REMARK    4  A    between atoms: C6_6  and  O5_23
REMARK    5  A    between atoms: C7_7  and  C8_8
REMARK    6  A    between atoms: C8_8  and  O2_10
REMARK    7  A    between atoms: O2_10  and  C9_11
REMARK    8  A    between atoms: C11_13  and  C18_22
REMARK    9  A    between atoms: C12_14  and  C16_19
REMARK   10  A    between atoms: C13_15  and  O3_18
REMARK   11  A    between atoms: C14_16  and  C15_17
REMARK   12  A    between atoms: C16_19  and  C17_21
REMARK   13  A    between atoms: C19_24  and  C20_26
REMARK                            x       y       z     vdW  Elec       q    Type
REMARK                         _______ _______ _______ _____ _____    ______ ____
ROOT
ATOM     15  C   UNL     1      47.332  17.601  18.282  0.00  0.00    +0.525 C 
ATOM     30  O   UNL     1      46.452  17.750  17.457  0.00  0.00    -0.462 OA
ENDROOT
BRANCH  15  14
ATOM      1  C   UNL     1      46.747  19.997  19.779  0.00  0.00    +0.117 C 
ATOM      2  C   UNL     1      48.107  19.795  19.160  0.00  0.00    +0.008 A 
ATOM      3  C   UNL     1      49.080  20.758  19.316  0.00  0.00    -0.001 A 
ATOM      4  C   UNL     1      50.336  20.586  18.752  0.00  0.00    +0.189 A 
ATOM      7  C   UNL     1      50.626  19.423  18.015  0.00  0.00    -0.216 A 
ATOM     11  C   UNL     1      49.637  18.440  17.856  0.00  0.00    +0.204 A 
ATOM     14  C   UNL     1      48.376  18.627  18.437  0.00  0.00    -0.150 A 
BRANCH   7   8
ATOM      8  C   UNL     1      51.949  19.240  17.418  0.00  0.00    +0.423 C 
ATOM      9  C   UNL     1      52.157  19.499  15.948  0.00  0.00    +0.089 C 
ATOM     10  O   UNL     1      52.881  18.879  18.107  0.00  0.00    -0.446 OA
ENDBRANCH   7   8
BRANCH   4   5
ATOM      5  O   UNL     1      51.284  21.540  18.910  0.00  0.00    -0.488 OA
ATOM      6  H   UNL     1      51.419  21.813  19.828  0.00  0.00    +0.406 HD
ENDBRANCH   4   5
BRANCH  11  12
ATOM     12  O   UNL     1      49.902  17.316  17.150  0.00  0.00    -0.484 OA
ATOM     13  H   UNL     1      49.199  17.065  16.534  0.00  0.00    +0.405 HD
ENDBRANCH  11  12
ENDBRANCH  15  14
BRANCH  15  16
ATOM     16  O   UNL     1      47.355  16.496  19.053  0.00  0.00    -0.286 OA
BRANCH  16  17
ATOM     17  C   UNL     1      46.950  15.324  18.499  0.00  0.00    +0.112 A 
ATOM     18  C   UNL     1      47.628  14.807  17.400  0.00  0.00    +0.017 A 
ATOM     19  C   UNL     1      47.232  13.631  16.834  0.00  0.00    -0.029 A 
ATOM     20  C   UNL     1      47.974  13.079  15.644  0.00  0.00    +0.111 C 
ATOM     21  C   UNL     1      46.134  12.934  17.358  0.00  0.00    -0.172 A 
ATOM     25  C   UNL     1      45.447  13.454  18.469  0.00  0.00    +0.154 A 
ATOM     28  C   UNL     1      45.865  14.646  19.036  0.00  0.00    -0.111 A 
ATOM     29  C   UNL     1      45.138  15.209  20.230  0.00  0.00    +0.115 C 
BRANCH  21  22
ATOM     22  C   UNL     1      45.706  11.671  16.752  0.00  0.00    +0.411 C 
ATOM     23  C   UNL     1      46.578  10.447  16.866  0.00  0.00    +0.081 C 
ATOM     24  O   UNL     1      44.649  11.610  16.159  0.00  0.00    -0.437 OA
ENDBRANCH  21  22
BRANCH  25  26
ATOM     26  O   UNL     1      44.382  12.790  18.985  0.00  0.00    -0.483 OA
ATOM     27  H   UNL     1      43.573  12.882  18.464  0.00  0.00    +0.396 HD
ENDBRANCH  25  26
ENDBRANCH  16  17
ENDBRANCH  15  16
TORSDOF 8
ENDMDL
