MODEL 1
REMARK VINA RESULT:      -5.7      0.000      0.000
REMARK  Name = ZINC95486225
REMARK  4 active torsions:
REMARK  status: ('A' for Active; 'I' for Inactive)
REMARK    1  A    between atoms: C1_1  and  C2_2
REMARK    2  A    between atoms: C6_8  and  C15_22
REMARK    3  A    between atoms: C6_8  and  O4_23
REMARK    4  A    between atoms: C10_14  and  C14_21
REMARK                            x       y       z     vdW  Elec       q    Type
REMARK                         _______ _______ _______ _____ _____    ______ ____
ROOT
ATOM      1  C   UNL     1      45.822  16.998  18.506  0.00  0.00    +0.075 C 
ATOM      2  C   UNL     1      45.591  17.920  19.706  0.00  0.00    -0.019 C 
ATOM      3  C   UNL     1      45.101  19.299  19.244  0.00  0.00    -0.008 C 
ATOM      4  C   UNL     1      46.091  20.393  19.170  0.00  0.00    +0.038 C 
ATOM      5  C   UNL     1      45.543  21.731  18.710  0.00  0.00    +0.008 C 
ATOM      6  C   UNL     1      45.032  22.573  19.873  0.00  0.00    +0.144 C 
ATOM      9  C   UNL     1      45.847  22.258  21.129  0.00  0.00    +0.022 C 
ATOM     10  C   UNL     1      43.552  22.234  20.119  0.00  0.00    +0.060 C 
ATOM     11  C   UNL     1      42.582  22.979  19.219  0.00  0.00    +0.079 C 
ATOM     12  C   UNL     1      41.573  21.899  18.863  0.00  0.00    +0.385 C 
ATOM     13  C   UNL     1      42.103  20.636  19.358  0.00  0.00    -0.184 C 
ATOM     14  C   UNL     1      41.421  19.309  19.148  0.00  0.00    +0.118 C 
ATOM     15  O   UNL     1      40.523  22.059  18.277  0.00  0.00    -0.434 OA
ATOM     16  C   UNL     1      43.270  20.781  20.011  0.00  0.00    -0.057 C 
ATOM     17  C   UNL     1      44.084  19.607  20.366  0.00  0.00    +0.214 C 
ATOM     18  O   UNL     1      43.449  18.352  20.570  0.00  0.00    -0.326 OA
ATOM     19  C   UNL     1      44.435  17.409  20.563  0.00  0.00    +0.484 C 
ATOM     20  O   UNL     1      44.401  16.347  21.137  0.00  0.00    -0.429 OA
ENDROOT
BRANCH   6   7
ATOM      7  O   UNL     1      45.160  23.959  19.552  0.00  0.00    -0.552 OA
ATOM      8  H   UNL     1      45.364  24.132  18.623  0.00  0.00    +0.383 HD
ENDBRANCH   6   7
TORSDOF 1
ENDMDL
MODEL 2
REMARK VINA RESULT:      -5.4      1.627      4.981
REMARK  Name = ZINC95486225
REMARK  4 active torsions:
REMARK  status: ('A' for Active; 'I' for Inactive)
REMARK    1  A    between atoms: C1_1  and  C2_2
REMARK    2  A    between atoms: C6_8  and  C15_22
REMARK    3  A    between atoms: C6_8  and  O4_23
REMARK    4  A    between atoms: C10_14  and  C14_21
REMARK                            x       y       z     vdW  Elec       q    Type
REMARK                         _______ _______ _______ _____ _____    ______ ____
ROOT
ATOM      1  C   UNL     1      44.904  23.136  20.777  0.00  0.00    +0.075 C 
ATOM      2  C   UNL     1      44.644  22.111  19.671  0.00  0.00    -0.019 C 
ATOM      3  C   UNL     1      45.154  20.724  20.086  0.00  0.00    -0.008 C 
ATOM      4  C   UNL     1      46.463  20.285  19.560  0.00  0.00    +0.038 C 
ATOM      5  C   UNL     1      46.908  18.904  20.005  0.00  0.00    +0.008 C 
ATOM      6  C   UNL     1      46.416  17.812  19.064  0.00  0.00    +0.144 C 
ATOM      9  C   UNL     1      46.314  18.368  17.643  0.00  0.00    +0.022 C 
ATOM     10  C   UNL     1      45.029  17.339  19.535  0.00  0.00    +0.060 C 
ATOM     11  C   UNL     1      45.065  16.300  20.642  0.00  0.00    +0.079 C 
ATOM     12  C   UNL     1      43.940  16.759  21.555  0.00  0.00    +0.385 C 
ATOM     13  C   UNL     1      43.502  18.063  21.076  0.00  0.00    -0.184 C 
ATOM     14  C   UNL     1      42.438  18.884  21.756  0.00  0.00    +0.118 C 
ATOM     15  O   UNL     1      43.491  16.153  22.505  0.00  0.00    -0.434 OA
ATOM     16  C   UNL     1      44.158  18.458  19.970  0.00  0.00    -0.057 C 
ATOM     17  C   UNL     1      44.039  19.841  19.480  0.00  0.00    +0.214 C 
ATOM     18  O   UNL     1      42.861  20.583  19.761  0.00  0.00    -0.326 OA
ATOM     19  C   UNL     1      43.145  21.889  19.484  0.00  0.00    +0.484 C 
ATOM     20  O   UNL     1      42.347  22.730  19.146  0.00  0.00    -0.429 OA
ENDROOT
BRANCH   6   7
ATOM      7  O   UNL     1      47.330  16.714  19.087  0.00  0.00    -0.552 OA
ATOM      8  H   UNL     1      48.230  16.944  18.817  0.00  0.00    +0.383 HD
ENDBRANCH   6   7
TORSDOF 1
ENDMDL
MODEL 3
REMARK VINA RESULT:      -5.4      2.271      4.555
REMARK  Name = ZINC95486225
REMARK  4 active torsions:
REMARK  status: ('A' for Active; 'I' for Inactive)
REMARK    1  A    between atoms: C1_1  and  C2_2
REMARK    2  A    between atoms: C6_8  and  C15_22
REMARK    3  A    between atoms: C6_8  and  O4_23
REMARK    4  A    between atoms: C10_14  and  C14_21
REMARK                            x       y       z     vdW  Elec       q    Type
REMARK                         _______ _______ _______ _____ _____    ______ ____
ROOT
ATOM      1  C   UNL     1      41.897  18.862  20.837  0.00  0.00    +0.075 C 
ATOM      2  C   UNL     1      42.637  20.100  20.327  0.00  0.00    -0.019 C 
ATOM      3  C   UNL     1      44.129  20.024  20.677  0.00  0.00    -0.008 C 
ATOM      4  C   UNL     1      44.602  20.784  21.852  0.00  0.00    +0.038 C 
ATOM      5  C   UNL     1      46.087  20.669  22.142  0.00  0.00    +0.008 C 
ATOM      6  C   UNL     1      46.898  21.730  21.409  0.00  0.00    +0.144 C 
ATOM      9  C   UNL     1      46.055  22.996  21.244  0.00  0.00    +0.022 C 
ATOM     10  C   UNL     1      47.291  21.187  20.024  0.00  0.00    +0.060 C 
ATOM     11  C   UNL     1      48.532  20.310  20.025  0.00  0.00    +0.079 C 
ATOM     12  C   UNL     1      48.140  19.192  19.073  0.00  0.00    +0.385 C 
ATOM     13  C   UNL     1      46.724  19.356  18.776  0.00  0.00    -0.184 C 
ATOM     14  C   UNL     1      45.940  18.405  17.911  0.00  0.00    +0.118 C 
ATOM     15  O   UNL     1      48.871  18.326  18.641  0.00  0.00    -0.434 OA
ATOM     16  C   UNL     1      46.190  20.441  19.367  0.00  0.00    -0.057 C 
ATOM     17  C   UNL     1      44.733  20.641  19.394  0.00  0.00    +0.214 C 
ATOM     18  O   UNL     1      43.930  20.078  18.366  0.00  0.00    -0.326 OA
ATOM     19  C   UNL     1      42.638  20.136  18.801  0.00  0.00    +0.484 C 
ATOM     20  O   UNL     1      41.658  20.204  18.098  0.00  0.00    -0.429 OA
ENDROOT
BRANCH   6   7
ATOM      7  O   UNL     1      48.077  22.032  22.158  0.00  0.00    -0.552 OA
ATOM      8  H   UNL     1      47.905  22.346  23.057  0.00  0.00    +0.383 HD
ENDBRANCH   6   7
TORSDOF 1
ENDMDL
MODEL 4
REMARK VINA RESULT:      -5.4     20.314     22.720
REMARK  Name = ZINC95486225
REMARK  4 active torsions:
REMARK  status: ('A' for Active; 'I' for Inactive)
REMARK    1  A    between atoms: C1_1  and  C2_2
REMARK    2  A    between atoms: C6_8  and  C15_22
REMARK    3  A    between atoms: C6_8  and  O4_23
REMARK    4  A    between atoms: C10_14  and  C14_21
REMARK                            x       y       z     vdW  Elec       q    Type
REMARK                         _______ _______ _______ _____ _____    ______ ____
ROOT
ATOM      1  C   UNL     1      50.564  32.200   6.074  0.00  0.00    +0.075 C 
ATOM      2  C   UNL     1      51.404  33.371   5.559  0.00  0.00    -0.019 C 
ATOM      3  C   UNL     1      52.882  32.974   5.453  0.00  0.00    -0.008 C 
ATOM      4  C   UNL     1      53.789  33.393   6.542  0.00  0.00    +0.038 C 
ATOM      5  C   UNL     1      55.237  32.972   6.375  0.00  0.00    +0.008 C 
ATOM      6  C   UNL     1      56.050  34.003   5.604  0.00  0.00    +0.144 C 
ATOM      9  C   UNL     1      55.489  35.401   5.873  0.00  0.00    +0.022 C 
ATOM     10  C   UNL     1      55.954  33.689   4.101  0.00  0.00    +0.060 C 
ATOM     11  C   UNL     1      56.933  32.632   3.620  0.00  0.00    +0.079 C 
ATOM     12  C   UNL     1      56.081  31.809   2.667  0.00  0.00    +0.385 C 
ATOM     13  C   UNL     1      54.707  32.268   2.815  0.00  0.00    -0.184 C 
ATOM     14  C   UNL     1      53.542  31.655   2.080  0.00  0.00    +0.118 C 
ATOM     15  O   UNL     1      56.473  30.935   1.923  0.00  0.00    -0.434 OA
ATOM     16  C   UNL     1      54.588  33.287   3.684  0.00  0.00    -0.057 C 
ATOM     17  C   UNL     1      53.264  33.723   4.156  0.00  0.00    +0.214 C 
ATOM     18  O   UNL     1      52.126  33.521   3.329  0.00  0.00    -0.326 OA
ATOM     19  C   UNL     1      51.030  33.710   4.119  0.00  0.00    +0.484 C 
ATOM     20  O   UNL     1      49.943  34.082   3.743  0.00  0.00    -0.429 OA
ENDROOT
BRANCH   6   7
ATOM      7  O   UNL     1      57.415  33.945   6.021  0.00  0.00    -0.552 OA
ATOM      8  H   UNL     1      57.781  33.050   6.050  0.00  0.00    +0.383 HD
ENDBRANCH   6   7
TORSDOF 1
ENDMDL
MODEL 5
REMARK VINA RESULT:      -5.3      1.880      4.051
REMARK  Name = ZINC95486225
REMARK  4 active torsions:
REMARK  status: ('A' for Active; 'I' for Inactive)
REMARK    1  A    between atoms: C1_1  and  C2_2
REMARK    2  A    between atoms: C6_8  and  C15_22
REMARK    3  A    between atoms: C6_8  and  O4_23
REMARK    4  A    between atoms: C10_14  and  C14_21
REMARK                            x       y       z     vdW  Elec       q    Type
REMARK                         _______ _______ _______ _____ _____    ______ ____
ROOT
ATOM      1  C   UNL     1      44.912  15.599  22.505  0.00  0.00    +0.075 C 
ATOM      2  C   UNL     1      44.349  16.122  21.182  0.00  0.00    -0.019 C 
ATOM      3  C   UNL     1      44.626  17.624  21.030  0.00  0.00    -0.008 C 
ATOM      4  C   UNL     1      43.530  18.563  21.345  0.00  0.00    +0.038 C 
ATOM      5  C   UNL     1      43.868  20.032  21.172  0.00  0.00    +0.008 C 
ATOM      6  C   UNL     1      43.582  20.524  19.759  0.00  0.00    +0.144 C 
ATOM      9  C   UNL     1      42.405  19.741  19.173  0.00  0.00    +0.022 C 
ATOM     10  C   UNL     1      44.833  20.300  18.892  0.00  0.00    +0.060 C 
ATOM     11  C   UNL     1      45.878  21.397  19.008  0.00  0.00    +0.079 C 
ATOM     12  C   UNL     1      47.176  20.606  19.041  0.00  0.00    +0.385 C 
ATOM     13  C   UNL     1      46.820  19.200  19.160  0.00  0.00    -0.184 C 
ATOM     14  C   UNL     1      47.834  18.092  19.286  0.00  0.00    +0.118 C 
ATOM     15  O   UNL     1      48.298  21.063  18.980  0.00  0.00    -0.434 OA
ATOM     16  C   UNL     1      45.490  18.997  19.157  0.00  0.00    -0.057 C 
ATOM     17  C   UNL     1      44.929  17.684  19.515  0.00  0.00    +0.214 C 
ATOM     18  O   UNL     1      45.702  16.511  19.301  0.00  0.00    -0.326 OA
ATOM     19  C   UNL     1      45.094  15.509  20.000  0.00  0.00    +0.484 C 
ATOM     20  O   UNL     1      45.137  14.332  19.730  0.00  0.00    -0.429 OA
ENDROOT
BRANCH   6   7
ATOM      7  O   UNL     1      43.264  21.917  19.792  0.00  0.00    -0.552 OA
ATOM      8  H   UNL     1      43.113  22.308  18.921  0.00  0.00    +0.383 HD
ENDBRANCH   6   7
TORSDOF 1
ENDMDL
MODEL 6
REMARK VINA RESULT:      -5.3      4.638      7.656
REMARK  Name = ZINC95486225
REMARK  4 active torsions:
REMARK  status: ('A' for Active; 'I' for Inactive)
REMARK    1  A    between atoms: C1_1  and  C2_2
REMARK    2  A    between atoms: C6_8  and  C15_22
REMARK    3  A    between atoms: C6_8  and  O4_23
REMARK    4  A    between atoms: C10_14  and  C14_21
REMARK                            x       y       z     vdW  Elec       q    Type
REMARK                         _______ _______ _______ _____ _____    ______ ____
ROOT
ATOM      1  C   UNL     1      46.003  21.086  18.824  0.00  0.00    +0.075 C 
ATOM      2  C   UNL     1      46.985  20.142  19.522  0.00  0.00    -0.019 C 
ATOM      3  C   UNL     1      47.815  19.365  18.492  0.00  0.00    -0.008 C 
ATOM      4  C   UNL     1      47.408  17.978  18.183  0.00  0.00    +0.038 C 
ATOM      5  C   UNL     1      48.271  17.263  17.161  0.00  0.00    +0.008 C 
ATOM      6  C   UNL     1      49.444  16.537  17.806  0.00  0.00    +0.144 C 
ATOM      9  C   UNL     1      49.049  16.074  19.210  0.00  0.00    +0.022 C 
ATOM     10  C   UNL     1      50.637  17.504  17.898  0.00  0.00    +0.060 C 
ATOM     11  C   UNL     1      51.463  17.601  16.627  0.00  0.00    +0.079 C 
ATOM     12  C   UNL     1      51.747  19.091  16.538  0.00  0.00    +0.385 C 
ATOM     13  C   UNL     1      50.942  19.745  17.561  0.00  0.00    -0.184 C 
ATOM     14  C   UNL     1      50.897  21.238  17.755  0.00  0.00    +0.118 C 
ATOM     15  O   UNL     1      52.503  19.635  15.760  0.00  0.00    -0.434 OA
ATOM     16  C   UNL     1      50.236  18.874  18.303  0.00  0.00    -0.057 C 
ATOM     17  C   UNL     1      49.181  19.345  19.215  0.00  0.00    +0.214 C 
ATOM     18  O   UNL     1      49.266  20.652  19.766  0.00  0.00    -0.326 OA
ATOM     19  C   UNL     1      48.039  20.935  20.292  0.00  0.00    +0.484 C 
ATOM     20  O   UNL     1      47.820  21.687  21.211  0.00  0.00    -0.429 OA
ENDROOT
BRANCH   6   7
ATOM      7  O   UNL     1      49.803  15.406  17.010  0.00  0.00    -0.552 OA
ATOM      8  H   UNL     1      50.492  15.586  16.357  0.00  0.00    +0.383 HD
ENDBRANCH   6   7
TORSDOF 1
ENDMDL
MODEL 7
REMARK VINA RESULT:      -5.1      2.585      4.320
REMARK  Name = ZINC95486225
REMARK  4 active torsions:
REMARK  status: ('A' for Active; 'I' for Inactive)
REMARK    1  A    between atoms: C1_1  and  C2_2
REMARK    2  A    between atoms: C6_8  and  C15_22
REMARK    3  A    between atoms: C6_8  and  O4_23
REMARK    4  A    between atoms: C10_14  and  C14_21
REMARK                            x       y       z     vdW  Elec       q    Type
REMARK                         _______ _______ _______ _____ _____    ______ ____
ROOT
ATOM      1  C   UNL     1      49.395  19.942  18.763  0.00  0.00    +0.075 C 
ATOM      2  C   UNL     1      48.521  20.773  19.705  0.00  0.00    -0.019 C 
ATOM      3  C   UNL     1      47.064  20.291  19.658  0.00  0.00    -0.008 C 
ATOM      4  C   UNL     1      46.111  21.058  18.830  0.00  0.00    +0.038 C 
ATOM      5  C   UNL     1      44.687  20.533  18.829  0.00  0.00    +0.008 C 
ATOM      6  C   UNL     1      43.852  21.135  19.952  0.00  0.00    +0.144 C 
ATOM      9  C   UNL     1      44.344  22.552  20.252  0.00  0.00    +0.022 C 
ATOM     10  C   UNL     1      44.003  20.259  21.208  0.00  0.00    +0.060 C 
ATOM     11  C   UNL     1      43.084  19.050  21.241  0.00  0.00    +0.079 C 
ATOM     12  C   UNL     1      43.997  17.963  21.785  0.00  0.00    +0.385 C 
ATOM     13  C   UNL     1      45.345  18.512  21.819  0.00  0.00    -0.184 C 
ATOM     14  C   UNL     1      46.555  17.719  22.242  0.00  0.00    +0.118 C 
ATOM     15  O   UNL     1      43.664  16.848  22.126  0.00  0.00    -0.434 OA
ATOM     16  C   UNL     1      45.396  19.795  21.421  0.00  0.00    -0.057 C 
ATOM     17  C   UNL     1      46.686  20.448  21.149  0.00  0.00    +0.214 C 
ATOM     18  O   UNL     1      47.854  19.995  21.819  0.00  0.00    -0.326 OA
ATOM     19  C   UNL     1      48.919  20.535  21.159  0.00  0.00    +0.484 C 
ATOM     20  O   UNL     1      49.998  20.784  21.642  0.00  0.00    -0.429 OA
ENDROOT
BRANCH   6   7
ATOM      7  O   UNL     1      42.479  21.176  19.557  0.00  0.00    -0.552 OA
ATOM      8  H   UNL     1      42.203  20.427  19.012  0.00  0.00    +0.383 HD
ENDBRANCH   6   7
TORSDOF 1
ENDMDL
MODEL 8
REMARK VINA RESULT:      -5.1     20.550     22.805
REMARK  Name = ZINC95486225
REMARK  4 active torsions:
REMARK  status: ('A' for Active; 'I' for Inactive)
REMARK    1  A    between atoms: C1_1  and  C2_2
REMARK    2  A    between atoms: C6_8  and  C15_22
REMARK    3  A    between atoms: C6_8  and  O4_23
REMARK    4  A    between atoms: C10_14  and  C14_21
REMARK                            x       y       z     vdW  Elec       q    Type
REMARK                         _______ _______ _______ _____ _____    ______ ____
ROOT
ATOM      1  C   UNL     1      56.872  35.401   4.580  0.00  0.00    +0.075 C 
ATOM      2  C   UNL     1      55.967  34.323   5.179  0.00  0.00    -0.019 C 
ATOM      3  C   UNL     1      54.590  34.332   4.501  0.00  0.00    -0.008 C 
ATOM      4  C   UNL     1      53.481  35.012   5.200  0.00  0.00    +0.038 C 
ATOM      5  C   UNL     1      52.146  34.982   4.479  0.00  0.00    +0.008 C 
ATOM      6  C   UNL     1      51.325  33.752   4.842  0.00  0.00    +0.144 C 
ATOM      9  C   UNL     1      51.640  33.331   6.279  0.00  0.00    +0.022 C 
ATOM     10  C   UNL     1      51.688  32.609   3.878  0.00  0.00    +0.060 C 
ATOM     11  C   UNL     1      50.948  32.650   2.552  0.00  0.00    +0.079 C 
ATOM     12  C   UNL     1      52.040  32.284   1.560  0.00  0.00    +0.385 C 
ATOM     13  C   UNL     1      53.299  32.274   2.290  0.00  0.00    -0.184 C 
ATOM     14  C   UNL     1      54.634  32.014   1.642  0.00  0.00    +0.118 C 
ATOM     15  O   UNL     1      51.889  32.045   0.380  0.00  0.00    -0.434 OA
ATOM     16  C   UNL     1      53.144  32.533   3.600  0.00  0.00    -0.057 C 
ATOM     17  C   UNL     1      54.309  32.813   4.455  0.00  0.00    +0.214 C 
ATOM     18  O   UNL     1      55.575  32.268   4.111  0.00  0.00    -0.326 OA
ATOM     19  C   UNL     1      56.504  32.930   4.860  0.00  0.00    +0.484 C 
ATOM     20  O   UNL     1      57.572  32.491   5.213  0.00  0.00    -0.429 OA
ENDROOT
BRANCH   6   7
ATOM      7  O   UNL     1      49.933  34.054   4.724  0.00  0.00    -0.552 OA
ATOM      8  H   UNL     1      49.558  34.493   5.500  0.00  0.00    +0.383 HD
ENDBRANCH   6   7
TORSDOF 1
ENDMDL
MODEL 9
REMARK VINA RESULT:      -5.0     20.581     22.806
REMARK  Name = ZINC95486225
REMARK  4 active torsions:
REMARK  status: ('A' for Active; 'I' for Inactive)
REMARK    1  A    between atoms: C1_1  and  C2_2
REMARK    2  A    between atoms: C6_8  and  C15_22
REMARK    3  A    between atoms: C6_8  and  O4_23
REMARK    4  A    between atoms: C10_14  and  C14_21
REMARK                            x       y       z     vdW  Elec       q    Type
REMARK                         _______ _______ _______ _____ _____    ______ ____
ROOT
ATOM      1  C   UNL     1      53.365  34.781   0.120  0.00  0.00    +0.075 C 
ATOM      2  C   UNL     1      53.964  33.688   1.008  0.00  0.00    -0.019 C 
ATOM      3  C   UNL     1      53.857  34.075   2.490  0.00  0.00    -0.008 C 
ATOM      4  C   UNL     1      55.058  34.633   3.145  0.00  0.00    +0.038 C 
ATOM      5  C   UNL     1      54.888  34.991   4.610  0.00  0.00    +0.008 C 
ATOM      6  C   UNL     1      55.206  33.818   5.528  0.00  0.00    +0.144 C 
ATOM      9  C   UNL     1      56.276  32.937   4.882  0.00  0.00    +0.022 C 
ATOM     10  C   UNL     1      53.923  32.997   5.747  0.00  0.00    +0.060 C 
ATOM     11  C   UNL     1      53.012  33.537   6.836  0.00  0.00    +0.079 C 
ATOM     12  C   UNL     1      51.634  33.368   6.219  0.00  0.00    +0.385 C 
ATOM     13  C   UNL     1      51.829  32.979   4.830  0.00  0.00    -0.184 C 
ATOM     14  C   UNL     1      50.697  32.773   3.856  0.00  0.00    +0.118 C 
ATOM     15  O   UNL     1      50.570  33.527   6.780  0.00  0.00    -0.434 OA
ATOM     16  C   UNL     1      53.127  32.835   4.506  0.00  0.00    -0.057 C 
ATOM     17  C   UNL     1      53.540  32.691   3.101  0.00  0.00    +0.214 C 
ATOM     18  O   UNL     1      52.635  32.130   2.160  0.00  0.00    -0.326 OA
ATOM     19  C   UNL     1      53.135  32.409   0.921  0.00  0.00    +0.484 C 
ATOM     20  O   UNL     1      52.954  31.755  -0.078  0.00  0.00    -0.429 OA
ENDROOT
BRANCH   6   7
ATOM      7  O   UNL     1      55.681  34.309   6.783  0.00  0.00    -0.552 OA
ATOM      8  H   UNL     1      55.373  35.200   7.001  0.00  0.00    +0.383 HD
ENDBRANCH   6   7
TORSDOF 1
ENDMDL
