MODEL 1
REMARK VINA RESULT:      -4.5      0.000      0.000
REMARK  Name = ZINC34268676
REMARK  9 active torsions:
REMARK  status: ('A' for Active; 'I' for Inactive)
REMARK    1  A    between atoms: C1_1  and  C2_2
REMARK    2  A    between atoms: C2_2  and  C11_12
REMARK    3  A    between atoms: C3_3  and  C4_4
REMARK    4  A    between atoms: C4_4  and  C5_5
REMARK    5  A    between atoms: C5_5  and  C6_6
REMARK    6  A    between atoms: C6_6  and  C10_11
REMARK    7  A    between atoms: C7_7  and  C8_8
REMARK    8  A    between atoms: C8_8  and  C9_9
REMARK    9  A    between atoms: C9_9  and  O1_10
REMARK                            x       y       z     vdW  Elec       q    Type
REMARK                         _______ _______ _______ _____ _____    ______ ____
ROOT
ATOM      7  C   UNL     1      47.233  20.907  19.866  0.00  0.00    -0.118 C 
ATOM      8  C   UNL     1      46.275  20.958  18.704  0.00  0.00    +0.074 C 
ATOM      9  C   UNL     1      47.051  21.690  20.900  0.00  0.00    -0.056 C 
ENDROOT
BRANCH   7   6
ATOM      6  C   UNL     1      48.401  19.955  19.840  0.00  0.00    +0.061 C 
BRANCH   6   5
ATOM      5  C   UNL     1      49.701  20.747  19.684  0.00  0.00    +0.053 C 
BRANCH   5   4
ATOM      1  C   UNL     1      52.357  20.647  18.743  0.00  0.00    +0.072 C 
ATOM      2  C   UNL     1      51.230  20.961  17.793  0.00  0.00    -0.133 C 
ATOM      3  C   UNL     1      51.527  21.283  16.351  0.00  0.00    +0.072 C 
ATOM      4  C   UNL     1      49.991  20.954  18.220  0.00  0.00    -0.061 C 
ENDBRANCH   5   4
ENDBRANCH   6   5
ENDBRANCH   7   6
BRANCH   9  10
ATOM     10  C   UNL     1      45.939  22.708  20.887  0.00  0.00    +0.061 C 
BRANCH  10  11
ATOM     11  C   UNL     1      44.908  22.351  21.961  0.00  0.00    +0.170 C 
BRANCH  11  12
ATOM     12  O   UNL     1      44.017  23.452  22.150  0.00  0.00    -0.577 OA
ATOM     13  H   UNL     1      43.233  23.425  21.585  0.00  0.00    +0.381 HD
ENDBRANCH  11  12
ENDBRANCH  10  11
ENDBRANCH   9  10
TORSDOF 6
ENDMDL
MODEL 2
REMARK VINA RESULT:      -4.4      3.918      5.521
REMARK  Name = ZINC34268676
REMARK  9 active torsions:
REMARK  status: ('A' for Active; 'I' for Inactive)
REMARK    1  A    between atoms: C1_1  and  C2_2
REMARK    2  A    between atoms: C2_2  and  C11_12
REMARK    3  A    between atoms: C3_3  and  C4_4
REMARK    4  A    between atoms: C4_4  and  C5_5
REMARK    5  A    between atoms: C5_5  and  C6_6
REMARK    6  A    between atoms: C6_6  and  C10_11
REMARK    7  A    between atoms: C7_7  and  C8_8
REMARK    8  A    between atoms: C8_8  and  C9_9
REMARK    9  A    between atoms: C9_9  and  O1_10
REMARK                            x       y       z     vdW  Elec       q    Type
REMARK                         _______ _______ _______ _____ _____    ______ ____
ROOT
ATOM      7  C   UNL     1      43.335  19.635  19.417  0.00  0.00    -0.118 C 
ATOM      8  C   UNL     1      42.982  19.146  20.798  0.00  0.00    +0.074 C 
ATOM      9  C   UNL     1      42.449  20.288  18.706  0.00  0.00    -0.056 C 
ENDROOT
BRANCH   7   6
ATOM      6  C   UNL     1      44.708  19.372  18.852  0.00  0.00    +0.061 C 
BRANCH   6   5
ATOM      5  C   UNL     1      45.438  20.701  18.647  0.00  0.00    +0.053 C 
BRANCH   5   4
ATOM      1  C   UNL     1      44.660  23.137  19.836  0.00  0.00    +0.072 C 
ATOM      2  C   UNL     1      45.737  22.296  20.472  0.00  0.00    -0.133 C 
ATOM      3  C   UNL     1      46.442  22.786  21.710  0.00  0.00    +0.072 C 
ATOM      4  C   UNL     1      46.059  21.138  19.949  0.00  0.00    -0.061 C 
ENDBRANCH   5   4
ENDBRANCH   6   5
ENDBRANCH   7   6
BRANCH   9  10
ATOM     10  C   UNL     1      41.048  20.469  19.231  0.00  0.00    +0.061 C 
BRANCH  10  11
ATOM     11  C   UNL     1      40.386  21.651  18.520  0.00  0.00    +0.170 C 
BRANCH  11  12
ATOM     12  O   UNL     1      41.354  22.680  18.302  0.00  0.00    -0.577 OA
ATOM     13  H   UNL     1      42.256  22.352  18.184  0.00  0.00    +0.381 HD
ENDBRANCH  11  12
ENDBRANCH  10  11
ENDBRANCH   9  10
TORSDOF 6
ENDMDL
MODEL 3
REMARK VINA RESULT:      -4.2      3.865      5.215
REMARK  Name = ZINC34268676
REMARK  9 active torsions:
REMARK  status: ('A' for Active; 'I' for Inactive)
REMARK    1  A    between atoms: C1_1  and  C2_2
REMARK    2  A    between atoms: C2_2  and  C11_12
REMARK    3  A    between atoms: C3_3  and  C4_4
REMARK    4  A    between atoms: C4_4  and  C5_5
REMARK    5  A    between atoms: C5_5  and  C6_6
REMARK    6  A    between atoms: C6_6  and  C10_11
REMARK    7  A    between atoms: C7_7  and  C8_8
REMARK    8  A    between atoms: C8_8  and  C9_9
REMARK    9  A    between atoms: C9_9  and  O1_10
REMARK                            x       y       z     vdW  Elec       q    Type
REMARK                         _______ _______ _______ _____ _____    ______ ____
ROOT
ATOM      7  C   UNL     1      42.521  19.928  19.678  0.00  0.00    -0.118 C 
ATOM      8  C   UNL     1      41.658  19.118  20.611  0.00  0.00    +0.074 C 
ATOM      9  C   UNL     1      42.012  20.424  18.578  0.00  0.00    -0.056 C 
ENDROOT
BRANCH   7   6
ATOM      6  C   UNL     1      43.972  20.168  20.010  0.00  0.00    +0.061 C 
BRANCH   6   5
ATOM      5  C   UNL     1      44.783  20.258  18.716  0.00  0.00    +0.053 C 
BRANCH   5   4
ATOM      1  C   UNL     1      47.135  18.706  18.598  0.00  0.00    +0.072 C 
ATOM      2  C   UNL     1      47.206  20.156  19.003  0.00  0.00    -0.133 C 
ATOM      3  C   UNL     1      48.525  20.762  19.405  0.00  0.00    +0.072 C 
ATOM      4  C   UNL     1      46.120  20.890  19.004  0.00  0.00    -0.061 C 
ENDBRANCH   5   4
ENDBRANCH   6   5
ENDBRANCH   7   6
BRANCH   9  10
ATOM     10  C   UNL     1      40.589  20.106  18.197  0.00  0.00    +0.061 C 
BRANCH  10  11
ATOM     11  C   UNL     1      39.706  21.329  18.459  0.00  0.00    +0.170 C 
BRANCH  11  12
ATOM     12  O   UNL     1      40.396  22.511  18.050  0.00  0.00    -0.577 OA
ATOM     13  H   UNL     1      41.118  22.768  18.640  0.00  0.00    +0.381 HD
ENDBRANCH  11  12
ENDBRANCH  10  11
ENDBRANCH   9  10
TORSDOF 6
ENDMDL
MODEL 4
REMARK VINA RESULT:      -4.2      3.174      3.943
REMARK  Name = ZINC34268676
REMARK  9 active torsions:
REMARK  status: ('A' for Active; 'I' for Inactive)
REMARK    1  A    between atoms: C1_1  and  C2_2
REMARK    2  A    between atoms: C2_2  and  C11_12
REMARK    3  A    between atoms: C3_3  and  C4_4
REMARK    4  A    between atoms: C4_4  and  C5_5
REMARK    5  A    between atoms: C5_5  and  C6_6
REMARK    6  A    between atoms: C6_6  and  C10_11
REMARK    7  A    between atoms: C7_7  and  C8_8
REMARK    8  A    between atoms: C8_8  and  C9_9
REMARK    9  A    between atoms: C9_9  and  O1_10
REMARK                            x       y       z     vdW  Elec       q    Type
REMARK                         _______ _______ _______ _____ _____    ______ ____
ROOT
ATOM      7  C   UNL     1      47.297  20.261  19.080  0.00  0.00    -0.118 C 
ATOM      8  C   UNL     1      46.143  21.139  18.668  0.00  0.00    +0.074 C 
ATOM      9  C   UNL     1      47.324  19.002  18.719  0.00  0.00    -0.056 C 
ENDROOT
BRANCH   7   6
ATOM      6  C   UNL     1      48.420  20.830  19.908  0.00  0.00    +0.061 C 
BRANCH   6   5
ATOM      5  C   UNL     1      49.742  20.182  19.489  0.00  0.00    +0.053 C 
BRANCH   5   4
ATOM      1  C   UNL     1      50.861  18.899  17.242  0.00  0.00    +0.072 C 
ATOM      2  C   UNL     1      50.944  20.398  17.376  0.00  0.00    -0.133 C 
ATOM      3  C   UNL     1      51.679  21.207  16.339  0.00  0.00    +0.072 C 
ATOM      4  C   UNL     1      50.376  20.998  18.393  0.00  0.00    -0.061 C 
ENDBRANCH   5   4
ENDBRANCH   6   5
ENDBRANCH   7   6
BRANCH   9  10
ATOM     10  C   UNL     1      46.157  18.407  17.972  0.00  0.00    +0.061 C 
BRANCH  10  11
ATOM     11  C   UNL     1      46.526  17.005  17.483  0.00  0.00    +0.170 C 
BRANCH  11  12
ATOM     12  O   UNL     1      46.821  17.049  16.085  0.00  0.00    -0.577 OA
ATOM     13  H   UNL     1      46.611  16.232  15.613  0.00  0.00    +0.381 HD
ENDBRANCH  11  12
ENDBRANCH  10  11
ENDBRANCH   9  10
TORSDOF 6
ENDMDL
MODEL 5
REMARK VINA RESULT:      -4.2     21.904     23.427
REMARK  Name = ZINC34268676
REMARK  9 active torsions:
REMARK  status: ('A' for Active; 'I' for Inactive)
REMARK    1  A    between atoms: C1_1  and  C2_2
REMARK    2  A    between atoms: C2_2  and  C11_12
REMARK    3  A    between atoms: C3_3  and  C4_4
REMARK    4  A    between atoms: C4_4  and  C5_5
REMARK    5  A    between atoms: C5_5  and  C6_6
REMARK    6  A    between atoms: C6_6  and  C10_11
REMARK    7  A    between atoms: C7_7  and  C8_8
REMARK    8  A    between atoms: C8_8  and  C9_9
REMARK    9  A    between atoms: C9_9  and  O1_10
REMARK                            x       y       z     vdW  Elec       q    Type
REMARK                         _______ _______ _______ _____ _____    ______ ____
ROOT
ATOM      7  C   UNL     1      42.538  32.620   2.244  0.00  0.00    -0.118 C 
ATOM      8  C   UNL     1      44.028  32.660   2.462  0.00  0.00    +0.074 C 
ATOM      9  C   UNL     1      41.983  31.567   1.695  0.00  0.00    -0.056 C 
ENDROOT
BRANCH   7   6
ATOM      6  C   UNL     1      41.683  33.791   2.657  0.00  0.00    +0.061 C 
BRANCH   6   5
ATOM      5  C   UNL     1      40.224  33.511   2.292  0.00  0.00    +0.053 C 
BRANCH   5   4
ATOM      1  C   UNL     1      37.582  33.455   1.309  0.00  0.00    +0.072 C 
ATOM      2  C   UNL     1      38.661  34.166   0.535  0.00  0.00    -0.133 C 
ATOM      3  C   UNL     1      38.343  34.795  -0.797  0.00  0.00    +0.072 C 
ATOM      4  C   UNL     1      39.877  34.239   1.019  0.00  0.00    -0.061 C 
ENDBRANCH   5   4
ENDBRANCH   6   5
ENDBRANCH   7   6
BRANCH   9  10
ATOM     10  C   UNL     1      42.846  30.437   1.195  0.00  0.00    +0.061 C 
BRANCH  10  11
ATOM     11  C   UNL     1      42.823  30.416  -0.335  0.00  0.00    +0.170 C 
BRANCH  11  12
ATOM     12  O   UNL     1      41.901  29.421  -0.784  0.00  0.00    -0.577 OA
ATOM     13  H   UNL     1      41.113  29.336  -0.231  0.00  0.00    +0.381 HD
ENDBRANCH  11  12
ENDBRANCH  10  11
ENDBRANCH   9  10
TORSDOF 6
ENDMDL
MODEL 6
REMARK VINA RESULT:      -4.2      1.401      1.755
REMARK  Name = ZINC34268676
REMARK  9 active torsions:
REMARK  status: ('A' for Active; 'I' for Inactive)
REMARK    1  A    between atoms: C1_1  and  C2_2
REMARK    2  A    between atoms: C2_2  and  C11_12
REMARK    3  A    between atoms: C3_3  and  C4_4
REMARK    4  A    between atoms: C4_4  and  C5_5
REMARK    5  A    between atoms: C5_5  and  C6_6
REMARK    6  A    between atoms: C6_6  and  C10_11
REMARK    7  A    between atoms: C7_7  and  C8_8
REMARK    8  A    between atoms: C8_8  and  C9_9
REMARK    9  A    between atoms: C9_9  and  O1_10
REMARK                            x       y       z     vdW  Elec       q    Type
REMARK                         _______ _______ _______ _____ _____    ______ ____
ROOT
ATOM      7  C   UNL     1      47.458  20.808  19.705  0.00  0.00    -0.118 C 
ATOM      8  C   UNL     1      47.459  21.596  20.990  0.00  0.00    +0.074 C 
ATOM      9  C   UNL     1      46.474  20.947  18.852  0.00  0.00    -0.056 C 
ENDROOT
BRANCH   7   6
ATOM      6  C   UNL     1      48.590  19.860  19.401  0.00  0.00    +0.061 C 
BRANCH   6   5
ATOM      5  C   UNL     1      49.915  20.624  19.423  0.00  0.00    +0.053 C 
BRANCH   5   4
ATOM      1  C   UNL     1      52.178  19.607  18.083  0.00  0.00    +0.072 C 
ATOM      2  C   UNL     1      51.326  20.666  17.431  0.00  0.00    -0.133 C 
ATOM      3  C   UNL     1      51.717  21.227  16.089  0.00  0.00    +0.072 C 
ATOM      4  C   UNL     1      50.244  21.098  18.031  0.00  0.00    -0.061 C 
ENDBRANCH   5   4
ENDBRANCH   6   5
ENDBRANCH   7   6
BRANCH   9  10
ATOM     10  C   UNL     1      45.297  21.822  19.197  0.00  0.00    +0.061 C 
BRANCH  10  11
ATOM     11  C   UNL     1      44.065  20.947  19.440  0.00  0.00    +0.170 C 
BRANCH  11  12
ATOM     12  O   UNL     1      42.966  21.770  19.839  0.00  0.00    -0.577 OA
ATOM     13  H   UNL     1      42.792  22.510  19.242  0.00  0.00    +0.381 HD
ENDBRANCH  11  12
ENDBRANCH  10  11
ENDBRANCH   9  10
TORSDOF 6
ENDMDL
MODEL 7
REMARK VINA RESULT:      -4.2      5.495      6.553
REMARK  Name = ZINC34268676
REMARK  9 active torsions:
REMARK  status: ('A' for Active; 'I' for Inactive)
REMARK    1  A    between atoms: C1_1  and  C2_2
REMARK    2  A    between atoms: C2_2  and  C11_12
REMARK    3  A    between atoms: C3_3  and  C4_4
REMARK    4  A    between atoms: C4_4  and  C5_5
REMARK    5  A    between atoms: C5_5  and  C6_6
REMARK    6  A    between atoms: C6_6  and  C10_11
REMARK    7  A    between atoms: C7_7  and  C8_8
REMARK    8  A    between atoms: C8_8  and  C9_9
REMARK    9  A    between atoms: C9_9  and  O1_10
REMARK                            x       y       z     vdW  Elec       q    Type
REMARK                         _______ _______ _______ _____ _____    ______ ____
ROOT
ATOM      7  C   UNL     1      42.373  19.251  20.421  0.00  0.00    -0.118 C 
ATOM      8  C   UNL     1      41.060  18.913  21.079  0.00  0.00    +0.074 C 
ATOM      9  C   UNL     1      42.388  19.879  19.271  0.00  0.00    -0.056 C 
ENDROOT
BRANCH   7   6
ATOM      6  C   UNL     1      43.670  18.866  21.085  0.00  0.00    +0.061 C 
BRANCH   6   5
ATOM      5  C   UNL     1      44.597  18.217  20.055  0.00  0.00    +0.053 C 
BRANCH   5   4
ATOM      1  C   UNL     1      46.082  16.550  18.332  0.00  0.00    +0.072 C 
ATOM      2  C   UNL     1      45.397  15.968  19.542  0.00  0.00    -0.133 C 
ATOM      3  C   UNL     1      45.452  14.484  19.798  0.00  0.00    +0.072 C 
ATOM      4  C   UNL     1      44.753  16.752  20.371  0.00  0.00    -0.061 C 
ENDBRANCH   5   4
ENDBRANCH   6   5
ENDBRANCH   7   6
BRANCH   9  10
ATOM     10  C   UNL     1      41.093  20.179  18.561  0.00  0.00    +0.061 C 
BRANCH  10  11
ATOM     11  C   UNL     1      40.822  21.685  18.610  0.00  0.00    +0.170 C 
BRANCH  11  12
ATOM     12  O   UNL     1      39.593  21.971  17.939  0.00  0.00    -0.577 OA
ATOM     13  H   UNL     1      39.706  22.363  17.062  0.00  0.00    +0.381 HD
ENDBRANCH  11  12
ENDBRANCH  10  11
ENDBRANCH   9  10
TORSDOF 6
ENDMDL
MODEL 8
REMARK VINA RESULT:      -4.2      3.325      6.432
REMARK  Name = ZINC34268676
REMARK  9 active torsions:
REMARK  status: ('A' for Active; 'I' for Inactive)
REMARK    1  A    between atoms: C1_1  and  C2_2
REMARK    2  A    between atoms: C2_2  and  C11_12
REMARK    3  A    between atoms: C3_3  and  C4_4
REMARK    4  A    between atoms: C4_4  and  C5_5
REMARK    5  A    between atoms: C5_5  and  C6_6
REMARK    6  A    between atoms: C6_6  and  C10_11
REMARK    7  A    between atoms: C7_7  and  C8_8
REMARK    8  A    between atoms: C8_8  and  C9_9
REMARK    9  A    between atoms: C9_9  and  O1_10
REMARK                            x       y       z     vdW  Elec       q    Type
REMARK                         _______ _______ _______ _____ _____    ______ ____
ROOT
ATOM      7  C   UNL     1      51.177  20.903  18.938  0.00  0.00    -0.118 C 
ATOM      8  C   UNL     1      52.628  21.151  19.262  0.00  0.00    +0.074 C 
ATOM      9  C   UNL     1      50.786  20.840  17.689  0.00  0.00    -0.056 C 
ENDROOT
BRANCH   7   6
ATOM      6  C   UNL     1      50.175  20.729  20.050  0.00  0.00    +0.061 C 
BRANCH   6   5
ATOM      5  C   UNL     1      48.764  20.668  19.460  0.00  0.00    +0.053 C 
BRANCH   5   4
ATOM      1  C   UNL     1      46.071  21.068  18.727  0.00  0.00    +0.072 C 
ATOM      2  C   UNL     1      46.535  21.416  20.118  0.00  0.00    -0.133 C 
ATOM      3  C   UNL     1      45.575  22.036  21.099  0.00  0.00    +0.072 C 
ATOM      4  C   UNL     1      47.774  21.179  20.474  0.00  0.00    -0.061 C 
ENDBRANCH   5   4
ENDBRANCH   6   5
ENDBRANCH   7   6
BRANCH   9  10
ATOM     10  C   UNL     1      51.769  21.108  16.578  0.00  0.00    +0.061 C 
BRANCH  10  11
ATOM     11  C   UNL     1      51.885  19.868  15.690  0.00  0.00    +0.170 C 
BRANCH  11  12
ATOM     12  O   UNL     1      52.395  18.776  16.459  0.00  0.00    -0.577 OA
ATOM     13  H   UNL     1      53.099  19.024  17.074  0.00  0.00    +0.381 HD
ENDBRANCH  11  12
ENDBRANCH  10  11
ENDBRANCH   9  10
TORSDOF 6
ENDMDL
MODEL 9
REMARK VINA RESULT:      -4.1     18.707     19.703
REMARK  Name = ZINC34268676
REMARK  9 active torsions:
REMARK  status: ('A' for Active; 'I' for Inactive)
REMARK    1  A    between atoms: C1_1  and  C2_2
REMARK    2  A    between atoms: C2_2  and  C11_12
REMARK    3  A    between atoms: C3_3  and  C4_4
REMARK    4  A    between atoms: C4_4  and  C5_5
REMARK    5  A    between atoms: C5_5  and  C6_6
REMARK    6  A    between atoms: C6_6  and  C10_11
REMARK    7  A    between atoms: C7_7  and  C8_8
REMARK    8  A    between atoms: C8_8  and  C9_9
REMARK    9  A    between atoms: C9_9  and  O1_10
REMARK                            x       y       z     vdW  Elec       q    Type
REMARK                         _______ _______ _______ _____ _____    ______ ____
ROOT
ATOM      7  C   UNL     1      53.247  33.495   6.500  0.00  0.00    -0.118 C 
ATOM      8  C   UNL     1      52.644  34.684   7.203  0.00  0.00    +0.074 C 
ATOM      9  C   UNL     1      52.505  32.752   5.717  0.00  0.00    -0.056 C 
ENDROOT
BRANCH   7   6
ATOM      6  C   UNL     1      54.703  33.160   6.698  0.00  0.00    +0.061 C 
BRANCH   6   5
ATOM      5  C   UNL     1      55.445  33.307   5.368  0.00  0.00    +0.053 C 
BRANCH   5   4
ATOM      1  C   UNL     1      57.971  32.277   4.653  0.00  0.00    +0.072 C 
ATOM      2  C   UNL     1      57.863  33.638   5.292  0.00  0.00    -0.133 C 
ATOM      3  C   UNL     1      59.109  34.423   5.606  0.00  0.00    +0.072 C 
ATOM      4  C   UNL     1      56.685  34.138   5.574  0.00  0.00    -0.061 C 
ENDBRANCH   5   4
ENDBRANCH   6   5
ENDBRANCH   7   6
BRANCH   9  10
ATOM     10  C   UNL     1      51.029  33.029   5.592  0.00  0.00    +0.061 C 
BRANCH  10  11
ATOM     11  C   UNL     1      50.751  33.720   4.255  0.00  0.00    +0.170 C 
BRANCH  11  12
ATOM     12  O   UNL     1      49.390  34.156   4.218  0.00  0.00    -0.577 OA
ATOM     13  H   UNL     1      48.787  33.528   3.798  0.00  0.00    +0.381 HD
ENDBRANCH  11  12
ENDBRANCH  10  11
ENDBRANCH   9  10
TORSDOF 6
ENDMDL
