MODEL 1
REMARK VINA RESULT:      -6.3      0.000      0.000
REMARK  Name = ZINC38347584
REMARK  11 active torsions:
REMARK  status: ('A' for Active; 'I' for Inactive)
REMARK    1  A    between atoms: C1_1  and  C2_2
REMARK    2  A    between atoms: C4_4  and  O8_33
REMARK    3  A    between atoms: C7_7  and  C8_8
REMARK    4  A    between atoms: C9_9  and  O4_20
REMARK    5  A    between atoms: C11_11  and  O3_18
REMARK    6  A    between atoms: C12_12  and  C14_15
REMARK    7  A    between atoms: C13_13  and  O1_14
REMARK    8  A    between atoms: C14_15  and  C15_17
REMARK    9  A    between atoms: O3_18  and  C16_19
REMARK   10  A    between atoms: O4_20  and  C17_21
REMARK   11  A    between atoms: C23_28  and  O7_32
REMARK                            x       y       z     vdW  Elec       q    Type
REMARK                         _______ _______ _______ _____ _____    ______ ____
ROOT
ATOM      1  C   UNL     1      45.461  14.757  19.049  0.00  0.00    +0.111 C 
ATOM      2  C   UNL     1      46.719  15.427  18.559  0.00  0.00    -0.023 A 
ATOM      3  C   UNL     1      47.598  14.732  17.762  0.00  0.00    +0.018 A 
ATOM      4  C   UNL     1      48.766  15.337  17.300  0.00  0.00    +0.171 A 
ATOM      7  C   UNL     1      49.053  16.660  17.645  0.00  0.00    -0.157 A 
ATOM      8  C   UNL     1      48.157  17.378  18.460  0.00  0.00    -0.093 A 
ATOM      9  C   UNL     1      48.450  18.772  18.828  0.00  0.00    +0.434 C 
ATOM     10  C   UNL     1      49.686  19.418  18.341  0.00  0.00    -0.105 A 
ATOM     11  C   UNL     1      49.973  20.735  18.685  0.00  0.00    +0.067 A 
ATOM     12  C   UNL     1      51.133  21.335  18.225  0.00  0.00    +0.060 A 
ATOM     13  C   UNL     1      52.016  20.636  17.426  0.00  0.00    +0.018 A 
ATOM     14  C   UNL     1      51.750  19.318  17.070  0.00  0.00    +0.161 A 
ATOM     17  C   UNL     1      50.581  18.699  17.527  0.00  0.00    -0.149 A 
ATOM     18  O   UNL     1      47.675  19.392  19.532  0.00  0.00    -0.417 OA
ATOM     19  C   UNL     1      50.288  17.303  17.159  0.00  0.00    +0.431 C 
ATOM     20  O   UNL     1      51.061  16.682  16.455  0.00  0.00    -0.402 OA
ATOM     21  C   UNL     1      46.983  16.757  18.913  0.00  0.00    +0.022 A 
ENDROOT
BRANCH  21  22
ATOM     22  C   UNL     1      46.031  17.501  19.764  0.00  0.00    -0.148 A 
ATOM     23  C   UNL     1      46.046  17.323  21.156  0.00  0.00    +0.238 A 
ATOM     26  C   UNL     1      45.156  18.018  21.959  0.00  0.00    -0.175 A 
ATOM     27  C   UNL     1      44.243  18.893  21.397  0.00  0.00    +0.235 A 
ATOM     30  C   UNL     1      44.214  19.084  20.002  0.00  0.00    -0.266 A 
ATOM     34  C   UNL     1      45.119  18.386  19.185  0.00  0.00    +0.264 A 
BRANCH  30  31
ATOM     31  C   UNL     1      43.251  20.009  19.408  0.00  0.00    +0.401 C 
ATOM     32  C   UNL     1      43.474  21.496  19.510  0.00  0.00    +0.079 C 
ATOM     33  O   UNL     1      42.271  19.581  18.834  0.00  0.00    -0.456 OA
ENDBRANCH  30  31
BRANCH  23  24
ATOM     24  O   UNL     1      46.936  16.467  21.718  0.00  0.00    -0.301 OA
ATOM     25  C   UNL     1      46.401  15.399  22.504  0.00  0.00    +0.250 C 
ENDBRANCH  23  24
BRANCH  27  28
ATOM     28  O   UNL     1      43.376  19.568  22.191  0.00  0.00    -0.296 OA
ATOM     29  C   UNL     1      42.139  18.921  22.498  0.00  0.00    +0.246 C 
ENDBRANCH  27  28
BRANCH  34  35
ATOM     35  O   UNL     1      45.104  18.568  17.842  0.00  0.00    -0.467 OA
ATOM     36  H   UNL     1      44.249  18.856  17.495  0.00  0.00    +0.401 HD
ENDBRANCH  34  35
ENDBRANCH  21  22
BRANCH   4   5
ATOM      5  O   UNL     1      49.625  14.639  16.515  0.00  0.00    -0.475 OA
ATOM      6  H   UNL     1      50.441  14.376  16.964  0.00  0.00    +0.400 HD
ENDBRANCH   4   5
BRANCH  14  15
ATOM     15  O   UNL     1      52.619  18.636  16.286  0.00  0.00    -0.476 OA
ATOM     16  H   UNL     1      53.223  19.200  15.784  0.00  0.00    +0.400 HD
ENDBRANCH  14  15
TORSDOF 7
ENDMDL
MODEL 2
REMARK VINA RESULT:      -6.2      2.702      6.719
REMARK  Name = ZINC38347584
REMARK  11 active torsions:
REMARK  status: ('A' for Active; 'I' for Inactive)
REMARK    1  A    between atoms: C1_1  and  C2_2
REMARK    2  A    between atoms: C4_4  and  O8_33
REMARK    3  A    between atoms: C7_7  and  C8_8
REMARK    4  A    between atoms: C9_9  and  O4_20
REMARK    5  A    between atoms: C11_11  and  O3_18
REMARK    6  A    between atoms: C12_12  and  C14_15
REMARK    7  A    between atoms: C13_13  and  O1_14
REMARK    8  A    between atoms: C14_15  and  C15_17
REMARK    9  A    between atoms: O3_18  and  C16_19
REMARK   10  A    between atoms: O4_20  and  C17_21
REMARK   11  A    between atoms: C23_28  and  O7_32
REMARK                            x       y       z     vdW  Elec       q    Type
REMARK                         _______ _______ _______ _____ _____    ______ ____
ROOT
ATOM      1  C   UNL     1      49.059  18.317  21.243  0.00  0.00    +0.111 C 
ATOM      2  C   UNL     1      47.932  19.277  20.963  0.00  0.00    -0.023 A 
ATOM      3  C   UNL     1      48.068  20.606  21.291  0.00  0.00    +0.018 A 
ATOM      4  C   UNL     1      47.036  21.508  21.038  0.00  0.00    +0.171 A 
ATOM      7  C   UNL     1      45.849  21.066  20.449  0.00  0.00    -0.157 A 
ATOM      8  C   UNL     1      45.703  19.707  20.110  0.00  0.00    -0.093 A 
ATOM      9  C   UNL     1      44.456  19.232  19.488  0.00  0.00    +0.434 C 
ATOM     10  C   UNL     1      43.359  20.184  19.219  0.00  0.00    -0.105 A 
ATOM     11  C   UNL     1      42.176  19.744  18.633  0.00  0.00    +0.067 A 
ATOM     12  C   UNL     1      41.151  20.641  18.383  0.00  0.00    +0.060 A 
ATOM     13  C   UNL     1      41.289  21.974  18.713  0.00  0.00    +0.018 A 
ATOM     14  C   UNL     1      42.462  22.435  19.300  0.00  0.00    +0.161 A 
ATOM     17  C   UNL     1      43.506  21.541  19.558  0.00  0.00    -0.149 A 
ATOM     18  O   UNL     1      44.330  18.058  19.196  0.00  0.00    -0.417 OA
ATOM     19  C   UNL     1      44.754  22.016  20.181  0.00  0.00    +0.431 C 
ATOM     20  O   UNL     1      44.882  23.189  20.474  0.00  0.00    -0.402 OA
ATOM     21  C   UNL     1      46.753  18.812  20.365  0.00  0.00    +0.022 A 
ENDROOT
BRANCH  21  22
ATOM     22  C   UNL     1      46.615  17.385  20.010  0.00  0.00    -0.148 A 
ATOM     23  C   UNL     1      46.061  16.482  20.932  0.00  0.00    +0.238 A 
ATOM     26  C   UNL     1      45.929  15.142  20.604  0.00  0.00    -0.175 A 
ATOM     27  C   UNL     1      46.341  14.681  19.366  0.00  0.00    +0.235 A 
ATOM     30  C   UNL     1      46.899  15.572  18.430  0.00  0.00    -0.266 A 
ATOM     34  C   UNL     1      47.028  16.933  18.755  0.00  0.00    +0.264 A 
BRANCH  30  31
ATOM     31  C   UNL     1      47.333  15.086  17.122  0.00  0.00    +0.401 C 
ATOM     32  C   UNL     1      48.700  14.472  16.963  0.00  0.00    +0.079 C 
ATOM     33  O   UNL     1      46.594  15.177  16.163  0.00  0.00    -0.456 OA
ENDBRANCH  30  31
BRANCH  23  24
ATOM     24  O   UNL     1      45.655  16.923  22.148  0.00  0.00    -0.301 OA
ATOM     25  C   UNL     1      44.286  16.700  22.495  0.00  0.00    +0.250 C 
ENDBRANCH  23  24
BRANCH  27  28
ATOM     28  O   UNL     1      46.208  13.367  19.055  0.00  0.00    -0.296 OA
ATOM     29  C   UNL     1      44.894  12.907  18.733  0.00  0.00    +0.246 C 
ENDBRANCH  27  28
BRANCH  34  35
ATOM     35  O   UNL     1      47.557  17.801  17.859  0.00  0.00    -0.467 OA
ATOM     36  H   UNL     1      46.999  18.569  17.680  0.00  0.00    +0.401 HD
ENDBRANCH  34  35
ENDBRANCH  21  22
BRANCH   4   5
ATOM      5  O   UNL     1      47.184  22.816  21.367  0.00  0.00    -0.475 OA
ATOM      6  H   UNL     1      47.593  22.959  22.232  0.00  0.00    +0.400 HD
ENDBRANCH   4   5
BRANCH  14  15
ATOM     15  O   UNL     1      42.592  23.746  19.622  0.00  0.00    -0.476 OA
ATOM     16  H   UNL     1      41.768  24.166  19.902  0.00  0.00    +0.400 HD
ENDBRANCH  14  15
TORSDOF 7
ENDMDL
MODEL 3
REMARK VINA RESULT:      -6.0      3.220      6.842
REMARK  Name = ZINC38347584
REMARK  11 active torsions:
REMARK  status: ('A' for Active; 'I' for Inactive)
REMARK    1  A    between atoms: C1_1  and  C2_2
REMARK    2  A    between atoms: C4_4  and  O8_33
REMARK    3  A    between atoms: C7_7  and  C8_8
REMARK    4  A    between atoms: C9_9  and  O4_20
REMARK    5  A    between atoms: C11_11  and  O3_18
REMARK    6  A    between atoms: C12_12  and  C14_15
REMARK    7  A    between atoms: C13_13  and  O1_14
REMARK    8  A    between atoms: C14_15  and  C15_17
REMARK    9  A    between atoms: O3_18  and  C16_19
REMARK   10  A    between atoms: O4_20  and  C17_21
REMARK   11  A    between atoms: C23_28  and  O7_32
REMARK                            x       y       z     vdW  Elec       q    Type
REMARK                         _______ _______ _______ _____ _____    ______ ____
ROOT
ATOM      1  C   UNL     1      47.966  13.347  19.890  0.00  0.00    +0.111 C 
ATOM      2  C   UNL     1      48.387  14.776  19.659  0.00  0.00    -0.023 A 
ATOM      3  C   UNL     1      47.910  15.770  20.482  0.00  0.00    +0.018 A 
ATOM      4  C   UNL     1      48.289  17.097  20.283  0.00  0.00    +0.171 A 
ATOM      7  C   UNL     1      49.160  17.427  19.241  0.00  0.00    -0.157 A 
ATOM      8  C   UNL     1      49.652  16.414  18.396  0.00  0.00    -0.093 A 
ATOM      9  C   UNL     1      50.570  16.753  17.296  0.00  0.00    +0.434 C 
ATOM     10  C   UNL     1      50.974  18.157  17.081  0.00  0.00    -0.105 A 
ATOM     11  C   UNL     1      51.841  18.487  16.043  0.00  0.00    +0.067 A 
ATOM     12  C   UNL     1      52.216  19.805  15.846  0.00  0.00    +0.060 A 
ATOM     13  C   UNL     1      51.737  20.803  16.672  0.00  0.00    +0.018 A 
ATOM     14  C   UNL     1      50.870  20.496  17.715  0.00  0.00    +0.161 A 
ATOM     17  C   UNL     1      50.481  19.168  17.926  0.00  0.00    -0.149 A 
ATOM     18  O   UNL     1      50.995  15.877  16.566  0.00  0.00    -0.417 OA
ATOM     19  C   UNL     1      49.562  18.829  19.026  0.00  0.00    +0.431 C 
ATOM     20  O   UNL     1      49.137  19.703  19.757  0.00  0.00    -0.402 OA
ATOM     21  C   UNL     1      49.266  15.083  18.612  0.00  0.00    +0.022 A 
ENDROOT
BRANCH  21  22
ATOM     22  C   UNL     1      49.779  14.010  17.736  0.00  0.00    -0.148 A 
ATOM     23  C   UNL     1      50.898  13.258  18.127  0.00  0.00    +0.238 A 
ATOM     26  C   UNL     1      51.384  12.250  17.310  0.00  0.00    -0.175 A 
ATOM     27  C   UNL     1      50.771  11.975  16.100  0.00  0.00    +0.235 A 
ATOM     30  C   UNL     1      49.647  12.718  15.691  0.00  0.00    -0.266 A 
ATOM     34  C   UNL     1      49.147  13.737  16.520  0.00  0.00    +0.264 A 
BRANCH  30  31
ATOM     31  C   UNL     1      48.999  12.427  14.414  0.00  0.00    +0.401 C 
ATOM     32  C   UNL     1      49.639  12.874  13.126  0.00  0.00    +0.079 C 
ATOM     33  O   UNL     1      47.944  11.827  14.391  0.00  0.00    -0.456 OA
ENDBRANCH  30  31
BRANCH  23  24
ATOM     24  O   UNL     1      51.507  13.520  19.310  0.00  0.00    -0.301 OA
ATOM     25  C   UNL     1      52.823  14.076  19.254  0.00  0.00    +0.250 C 
ENDBRANCH  23  24
BRANCH  27  28
ATOM     28  O   UNL     1      51.254  10.987  15.307  0.00  0.00    -0.296 OA
ATOM     29  C   UNL     1      52.670  10.942  15.114  0.00  0.00    +0.246 C 
ENDBRANCH  27  28
BRANCH  34  35
ATOM     35  O   UNL     1      48.063  14.454  16.140  0.00  0.00    -0.467 OA
ATOM     36  H   UNL     1      48.240  15.395  16.008  0.00  0.00    +0.401 HD
ENDBRANCH  34  35
ENDBRANCH  21  22
BRANCH   4   5
ATOM      5  O   UNL     1      47.811  18.068  21.101  0.00  0.00    -0.475 OA
ATOM      6  H   UNL     1      48.231  18.088  21.972  0.00  0.00    +0.400 HD
ENDBRANCH   4   5
BRANCH  14  15
ATOM     15  O   UNL     1      50.402  21.479  18.523  0.00  0.00    -0.476 OA
ATOM     16  H   UNL     1      49.583  21.253  18.983  0.00  0.00    +0.400 HD
ENDBRANCH  14  15
TORSDOF 7
ENDMDL
MODEL 4
REMARK VINA RESULT:      -5.9      2.445      6.943
REMARK  Name = ZINC38347584
REMARK  11 active torsions:
REMARK  status: ('A' for Active; 'I' for Inactive)
REMARK    1  A    between atoms: C1_1  and  C2_2
REMARK    2  A    between atoms: C4_4  and  O8_33
REMARK    3  A    between atoms: C7_7  and  C8_8
REMARK    4  A    between atoms: C9_9  and  O4_20
REMARK    5  A    between atoms: C11_11  and  O3_18
REMARK    6  A    between atoms: C12_12  and  C14_15
REMARK    7  A    between atoms: C13_13  and  O1_14
REMARK    8  A    between atoms: C14_15  and  C15_17
REMARK    9  A    between atoms: O3_18  and  C16_19
REMARK   10  A    between atoms: O4_20  and  C17_21
REMARK   11  A    between atoms: C23_28  and  O7_32
REMARK                            x       y       z     vdW  Elec       q    Type
REMARK                         _______ _______ _______ _____ _____    ______ ____
ROOT
ATOM      1  C   UNL     1      49.155  18.639  21.413  0.00  0.00    +0.111 C 
ATOM      2  C   UNL     1      47.993  19.543  21.093  0.00  0.00    -0.023 A 
ATOM      3  C   UNL     1      48.075  20.887  21.375  0.00  0.00    +0.018 A 
ATOM      4  C   UNL     1      47.010  21.739  21.085  0.00  0.00    +0.171 A 
ATOM      7  C   UNL     1      45.846  21.230  20.503  0.00  0.00    -0.157 A 
ATOM      8  C   UNL     1      45.755  19.856  20.211  0.00  0.00    -0.093 A 
ATOM      9  C   UNL     1      44.533  19.311  19.598  0.00  0.00    +0.434 C 
ATOM     10  C   UNL     1      43.402  20.209  19.289  0.00  0.00    -0.105 A 
ATOM     11  C   UNL     1      42.241  19.703  18.711  0.00  0.00    +0.067 A 
ATOM     12  C   UNL     1      41.184  20.549  18.423  0.00  0.00    +0.060 A 
ATOM     13  C   UNL     1      41.267  21.898  18.707  0.00  0.00    +0.018 A 
ATOM     14  C   UNL     1      42.417  22.425  19.285  0.00  0.00    +0.161 A 
ATOM     17  C   UNL     1      43.493  21.582  19.581  0.00  0.00    -0.149 A 
ATOM     18  O   UNL     1      44.455  18.123  19.347  0.00  0.00    -0.417 OA
ATOM     19  C   UNL     1      44.717  22.127  20.196  0.00  0.00    +0.431 C 
ATOM     20  O   UNL     1      44.796  23.314  20.448  0.00  0.00    -0.402 OA
ATOM     21  C   UNL     1      46.838  19.012  20.504  0.00  0.00    +0.022 A 
ENDROOT
BRANCH  21  22
ATOM     22  C   UNL     1      46.758  17.570  20.199  0.00  0.00    -0.148 A 
ATOM     23  C   UNL     1      47.160  17.094  18.940  0.00  0.00    +0.238 A 
ATOM     26  C   UNL     1      47.088  15.742  18.648  0.00  0.00    -0.175 A 
ATOM     27  C   UNL     1      46.618  14.846  19.592  0.00  0.00    +0.235 A 
ATOM     30  C   UNL     1      46.210  15.304  20.860  0.00  0.00    -0.266 A 
ATOM     34  C   UNL     1      46.288  16.674  21.163  0.00  0.00    +0.264 A 
BRANCH  30  31
ATOM     31  C   UNL     1      45.715  14.359  21.858  0.00  0.00    +0.401 C 
ATOM     32  C   UNL     1      46.662  13.379  22.501  0.00  0.00    +0.079 C 
ATOM     33  O   UNL     1      44.542  14.362  22.169  0.00  0.00    -0.456 OA
ENDBRANCH  30  31
BRANCH  23  24
ATOM     24  O   UNL     1      47.621  17.963  18.006  0.00  0.00    -0.301 OA
ATOM     25  C   UNL     1      48.933  17.726  17.491  0.00  0.00    +0.250 C 
ENDBRANCH  23  24
BRANCH  27  28
ATOM     28  O   UNL     1      46.551  13.524  19.297  0.00  0.00    -0.296 OA
ATOM     29  C   UNL     1      45.427  13.088  18.528  0.00  0.00    +0.246 C 
ENDBRANCH  27  28
BRANCH  34  35
ATOM     35  O   UNL     1      45.905  17.125  22.382  0.00  0.00    -0.467 OA
ATOM     36  H   UNL     1      45.533  18.018  22.371  0.00  0.00    +0.401 HD
ENDBRANCH  34  35
ENDBRANCH  21  22
BRANCH   4   5
ATOM      5  O   UNL     1      47.104  23.062  21.368  0.00  0.00    -0.475 OA
ATOM      6  H   UNL     1      47.854  23.502  20.944  0.00  0.00    +0.400 HD
ENDBRANCH   4   5
BRANCH  14  15
ATOM     15  O   UNL     1      42.494  23.750  19.562  0.00  0.00    -0.476 OA
ATOM     16  H   UNL     1      43.396  24.097  19.576  0.00  0.00    +0.400 HD
ENDBRANCH  14  15
TORSDOF 7
ENDMDL
MODEL 5
REMARK VINA RESULT:      -5.9      2.456      6.392
REMARK  Name = ZINC38347584
REMARK  11 active torsions:
REMARK  status: ('A' for Active; 'I' for Inactive)
REMARK    1  A    between atoms: C1_1  and  C2_2
REMARK    2  A    between atoms: C4_4  and  O8_33
REMARK    3  A    between atoms: C7_7  and  C8_8
REMARK    4  A    between atoms: C9_9  and  O4_20
REMARK    5  A    between atoms: C11_11  and  O3_18
REMARK    6  A    between atoms: C12_12  and  C14_15
REMARK    7  A    between atoms: C13_13  and  O1_14
REMARK    8  A    between atoms: C14_15  and  C15_17
REMARK    9  A    between atoms: O3_18  and  C16_19
REMARK   10  A    between atoms: O4_20  and  C17_21
REMARK   11  A    between atoms: C23_28  and  O7_32
REMARK                            x       y       z     vdW  Elec       q    Type
REMARK                         _______ _______ _______ _____ _____    ______ ____
ROOT
ATOM      1  C   UNL     1      45.401  13.191  18.997  0.00  0.00    +0.111 C 
ATOM      2  C   UNL     1      45.895  14.608  19.129  0.00  0.00    -0.023 A 
ATOM      3  C   UNL     1      45.133  15.538  19.797  0.00  0.00    +0.018 A 
ATOM      4  C   UNL     1      45.575  16.854  19.929  0.00  0.00    +0.171 A 
ATOM      7  C   UNL     1      46.802  17.238  19.381  0.00  0.00    -0.157 A 
ATOM      8  C   UNL     1      47.587  16.291  18.698  0.00  0.00    -0.093 A 
ATOM      9  C   UNL     1      48.881  16.686  18.117  0.00  0.00    +0.434 C 
ATOM     10  C   UNL     1      49.354  18.079  18.254  0.00  0.00    -0.105 A 
ATOM     11  C   UNL     1      50.575  18.463  17.708  0.00  0.00    +0.067 A 
ATOM     12  C   UNL     1      51.013  19.769  17.840  0.00  0.00    +0.060 A 
ATOM     13  C   UNL     1      50.248  20.703  18.509  0.00  0.00    +0.018 A 
ATOM     14  C   UNL     1      49.024  20.341  19.063  0.00  0.00    +0.161 A 
ATOM     17  C   UNL     1      48.568  19.025  18.938  0.00  0.00    -0.149 A 
ATOM     18  O   UNL     1      49.559  15.867  17.526  0.00  0.00    -0.417 OA
ATOM     19  C   UNL     1      47.273  18.629  19.518  0.00  0.00    +0.431 C 
ATOM     20  O   UNL     1      46.594  19.446  20.109  0.00  0.00    -0.402 OA
ATOM     21  C   UNL     1      47.131  14.969  18.577  0.00  0.00    +0.022 A 
ENDROOT
BRANCH  21  22
ATOM     22  C   UNL     1      47.948  13.964  17.867  0.00  0.00    -0.148 A 
ATOM     23  C   UNL     1      48.881  13.189  18.575  0.00  0.00    +0.238 A 
ATOM     26  C   UNL     1      49.649  12.244  17.913  0.00  0.00    -0.175 A 
ATOM     27  C   UNL     1      49.506  12.056  16.550  0.00  0.00    +0.235 A 
ATOM     30  C   UNL     1      48.576  12.824  15.824  0.00  0.00    -0.266 A 
ATOM     34  C   UNL     1      47.789  13.779  16.491  0.00  0.00    +0.264 A 
BRANCH  30  31
ATOM     31  C   UNL     1      48.423  12.625  14.384  0.00  0.00    +0.401 C 
ATOM     32  C   UNL     1      49.570  12.929  13.456  0.00  0.00    +0.079 C 
ATOM     33  O   UNL     1      47.372  12.215  13.936  0.00  0.00    -0.456 OA
ENDBRANCH  30  31
BRANCH  23  24
ATOM     24  O   UNL     1      49.030  13.366  19.911  0.00  0.00    -0.301 OA
ATOM     25  C   UNL     1      48.643  12.281  20.757  0.00  0.00    +0.250 C 
ENDBRANCH  23  24
BRANCH  27  28
ATOM     28  O   UNL     1      50.263  11.129  15.912  0.00  0.00    -0.296 OA
ATOM     29  C   UNL     1      51.681  11.234  16.062  0.00  0.00    +0.246 C 
ENDBRANCH  27  28
BRANCH  34  35
ATOM     35  O   UNL     1      46.886  14.519  15.804  0.00  0.00    -0.467 OA
ATOM     36  H   UNL     1      46.398  15.150  16.350  0.00  0.00    +0.401 HD
ENDBRANCH  34  35
ENDBRANCH  21  22
BRANCH   4   5
ATOM      5  O   UNL     1      44.813  17.761  20.589  0.00  0.00    -0.475 OA
ATOM      6  H   UNL     1      43.863  17.588  20.536  0.00  0.00    +0.400 HD
ENDBRANCH   4   5
BRANCH  14  15
ATOM     15  O   UNL     1      48.275  21.261  19.719  0.00  0.00    -0.476 OA
ATOM     16  H   UNL     1      48.481  21.337  20.661  0.00  0.00    +0.400 HD
ENDBRANCH  14  15
TORSDOF 7
ENDMDL
MODEL 6
REMARK VINA RESULT:      -5.8      1.273      4.257
REMARK  Name = ZINC38347584
REMARK  11 active torsions:
REMARK  status: ('A' for Active; 'I' for Inactive)
REMARK    1  A    between atoms: C1_1  and  C2_2
REMARK    2  A    between atoms: C4_4  and  O8_33
REMARK    3  A    between atoms: C7_7  and  C8_8
REMARK    4  A    between atoms: C9_9  and  O4_20
REMARK    5  A    between atoms: C11_11  and  O3_18
REMARK    6  A    between atoms: C12_12  and  C14_15
REMARK    7  A    between atoms: C13_13  and  O1_14
REMARK    8  A    between atoms: C14_15  and  C15_17
REMARK    9  A    between atoms: O3_18  and  C16_19
REMARK   10  A    between atoms: O4_20  and  C17_21
REMARK   11  A    between atoms: C23_28  and  O7_32
REMARK                            x       y       z     vdW  Elec       q    Type
REMARK                         _______ _______ _______ _____ _____    ______ ____
ROOT
ATOM      1  C   UNL     1      48.954  20.378  19.377  0.00  0.00    +0.111 C 
ATOM      2  C   UNL     1      48.944  18.985  18.801  0.00  0.00    -0.023 A 
ATOM      3  C   UNL     1      50.012  18.547  18.053  0.00  0.00    +0.018 A 
ATOM      4  C   UNL     1      50.019  17.261  17.514  0.00  0.00    +0.171 A 
ATOM      7  C   UNL     1      48.937  16.405  17.730  0.00  0.00    -0.157 A 
ATOM      8  C   UNL     1      47.841  16.847  18.495  0.00  0.00    -0.093 A 
ATOM      9  C   UNL     1      46.696  15.952  18.728  0.00  0.00    +0.434 C 
ATOM     10  C   UNL     1      46.699  14.589  18.159  0.00  0.00    -0.105 A 
ATOM     11  C   UNL     1      45.621  13.736  18.373  0.00  0.00    +0.067 A 
ATOM     12  C   UNL     1      45.630  12.459  17.836  0.00  0.00    +0.060 A 
ATOM     13  C   UNL     1      46.701  12.021  17.085  0.00  0.00    +0.018 A 
ATOM     14  C   UNL     1      47.790  12.856  16.858  0.00  0.00    +0.161 A 
ATOM     17  C   UNL     1      47.795  14.149  17.394  0.00  0.00    -0.149 A 
ATOM     18  O   UNL     1      45.749  16.334  19.390  0.00  0.00    -0.417 OA
ATOM     19  C   UNL     1      48.941  15.045  17.160  0.00  0.00    +0.431 C 
ATOM     20  O   UNL     1      49.888  14.665  16.499  0.00  0.00    -0.402 OA
ATOM     21  C   UNL     1      47.850  18.141  19.036  0.00  0.00    +0.022 A 
ENDROOT
BRANCH  21  22
ATOM     22  C   UNL     1      46.709  18.616  19.845  0.00  0.00    -0.148 A 
ATOM     23  C   UNL     1      46.692  18.398  21.232  0.00  0.00    +0.238 A 
ATOM     26  C   UNL     1      45.624  18.840  21.997  0.00  0.00    -0.175 A 
ATOM     27  C   UNL     1      44.564  19.501  21.401  0.00  0.00    +0.235 A 
ATOM     30  C   UNL     1      44.564  19.728  20.011  0.00  0.00    -0.266 A 
ATOM     34  C   UNL     1      45.647  19.287  19.233  0.00  0.00    +0.264 A 
BRANCH  30  31
ATOM     31  C   UNL     1      43.445  20.427  19.381  0.00  0.00    +0.401 C 
ATOM     32  C   UNL     1      43.327  21.924  19.503  0.00  0.00    +0.079 C 
ATOM     33  O   UNL     1      42.610  19.801  18.761  0.00  0.00    -0.456 OA
ENDBRANCH  30  31
BRANCH  23  24
ATOM     24  O   UNL     1      47.725  17.751  21.826  0.00  0.00    -0.301 OA
ATOM     25  C   UNL     1      47.424  16.524  22.494  0.00  0.00    +0.250 C 
ENDBRANCH  23  24
BRANCH  27  28
ATOM     28  O   UNL     1      43.523  19.930  22.157  0.00  0.00    -0.296 OA
ATOM     29  C   UNL     1      42.524  18.964  22.495  0.00  0.00    +0.246 C 
ENDBRANCH  27  28
BRANCH  34  35
ATOM     35  O   UNL     1      45.661  19.506  17.896  0.00  0.00    -0.467 OA
ATOM     36  H   UNL     1      45.923  18.736  17.374  0.00  0.00    +0.401 HD
ENDBRANCH  34  35
ENDBRANCH  21  22
BRANCH   4   5
ATOM      5  O   UNL     1      51.079  16.843  16.777  0.00  0.00    -0.475 OA
ATOM      6  H   UNL     1      51.098  17.200  15.879  0.00  0.00    +0.400 HD
ENDBRANCH   4   5
BRANCH  14  15
ATOM     15  O   UNL     1      48.840  12.421  16.120  0.00  0.00    -0.476 OA
ATOM     16  H   UNL     1      48.742  12.572  15.170  0.00  0.00    +0.400 HD
ENDBRANCH  14  15
TORSDOF 7
ENDMDL
MODEL 7
REMARK VINA RESULT:      -5.7      3.208      6.389
REMARK  Name = ZINC38347584
REMARK  11 active torsions:
REMARK  status: ('A' for Active; 'I' for Inactive)
REMARK    1  A    between atoms: C1_1  and  C2_2
REMARK    2  A    between atoms: C4_4  and  O8_33
REMARK    3  A    between atoms: C7_7  and  C8_8
REMARK    4  A    between atoms: C9_9  and  O4_20
REMARK    5  A    between atoms: C11_11  and  O3_18
REMARK    6  A    between atoms: C12_12  and  C14_15
REMARK    7  A    between atoms: C13_13  and  O1_14
REMARK    8  A    between atoms: C14_15  and  C15_17
REMARK    9  A    between atoms: O3_18  and  C16_19
REMARK   10  A    between atoms: O4_20  and  C17_21
REMARK   11  A    between atoms: C23_28  and  O7_32
REMARK                            x       y       z     vdW  Elec       q    Type
REMARK                         _______ _______ _______ _____ _____    ______ ____
ROOT
ATOM      1  C   UNL     1      47.388  14.586  20.974  0.00  0.00    +0.111 C 
ATOM      2  C   UNL     1      48.132  15.840  20.589  0.00  0.00    -0.023 A 
ATOM      3  C   UNL     1      48.202  16.890  21.473  0.00  0.00    +0.018 A 
ATOM      4  C   UNL     1      48.886  18.057  21.134  0.00  0.00    +0.171 A 
ATOM      7  C   UNL     1      49.508  18.167  19.888  0.00  0.00    -0.157 A 
ATOM      8  C   UNL     1      49.440  17.094  18.978  0.00  0.00    -0.093 A 
ATOM      9  C   UNL     1      50.092  17.201  17.663  0.00  0.00    +0.434 C 
ATOM     10  C   UNL     1      50.818  18.435  17.299  0.00  0.00    -0.105 A 
ATOM     11  C   UNL     1      51.436  18.546  16.057  0.00  0.00    +0.067 A 
ATOM     12  C   UNL     1      52.115  19.705  15.722  0.00  0.00    +0.060 A 
ATOM     13  C   UNL     1      52.185  20.760  16.609  0.00  0.00    +0.018 A 
ATOM     14  C   UNL     1      51.574  20.671  17.856  0.00  0.00    +0.161 A 
ATOM     17  C   UNL     1      50.884  19.506  18.209  0.00  0.00    -0.149 A 
ATOM     18  O   UNL     1      50.033  16.274  16.877  0.00  0.00    -0.417 OA
ATOM     19  C   UNL     1      50.231  19.400  19.525  0.00  0.00    +0.431 C 
ATOM     20  O   UNL     1      50.289  20.325  20.312  0.00  0.00    -0.402 OA
ATOM     21  C   UNL     1      48.752  15.925  19.336  0.00  0.00    +0.022 A 
ENDROOT
BRANCH  21  22
ATOM     22  C   UNL     1      48.678  14.790  18.393  0.00  0.00    -0.148 A 
ATOM     23  C   UNL     1      47.564  14.648  17.551  0.00  0.00    +0.238 A 
ATOM     26  C   UNL     1      47.489  13.585  16.664  0.00  0.00    -0.175 A 
ATOM     27  C   UNL     1      48.511  12.654  16.601  0.00  0.00    +0.235 A 
ATOM     30  C   UNL     1      49.636  12.781  17.438  0.00  0.00    -0.266 A 
ATOM     34  C   UNL     1      49.719  13.860  18.334  0.00  0.00    +0.264 A 
BRANCH  30  31
ATOM     31  C   UNL     1      50.716  11.798  17.371  0.00  0.00    +0.401 C 
ATOM     32  C   UNL     1      51.788  11.928  16.319  0.00  0.00    +0.079 C 
ATOM     33  O   UNL     1      50.750  10.878  18.161  0.00  0.00    -0.456 OA
ENDBRANCH  30  31
BRANCH  23  24
ATOM     24  O   UNL     1      46.557  15.554  17.605  0.00  0.00    -0.301 OA
ATOM     25  C   UNL     1      46.521  16.547  16.578  0.00  0.00    +0.250 C 
ENDBRANCH  23  24
BRANCH  27  28
ATOM     28  O   UNL     1      48.429  11.617  15.731  0.00  0.00    -0.296 OA
ATOM     29  C   UNL     1      47.192  11.453  15.032  0.00  0.00    +0.246 C 
ENDBRANCH  27  28
BRANCH  34  35
ATOM     35  O   UNL     1      50.800  13.996  19.140  0.00  0.00    -0.467 OA
ATOM     36  H   UNL     1      50.885  13.298  19.803  0.00  0.00    +0.401 HD
ENDBRANCH  34  35
ENDBRANCH  21  22
BRANCH   4   5
ATOM      5  O   UNL     1      48.947  19.087  22.016  0.00  0.00    -0.475 OA
ATOM      6  H   UNL     1      48.085  19.364  22.355  0.00  0.00    +0.400 HD
ENDBRANCH   4   5
BRANCH  14  15
ATOM     15  O   UNL     1      51.645  21.710  18.724  0.00  0.00    -0.476 OA
ATOM     16  H   UNL     1      52.065  22.500  18.359  0.00  0.00    +0.400 HD
ENDBRANCH  14  15
TORSDOF 7
ENDMDL
MODEL 8
REMARK VINA RESULT:      -5.6      3.236      6.564
REMARK  Name = ZINC38347584
REMARK  11 active torsions:
REMARK  status: ('A' for Active; 'I' for Inactive)
REMARK    1  A    between atoms: C1_1  and  C2_2
REMARK    2  A    between atoms: C4_4  and  O8_33
REMARK    3  A    between atoms: C7_7  and  C8_8
REMARK    4  A    between atoms: C9_9  and  O4_20
REMARK    5  A    between atoms: C11_11  and  O3_18
REMARK    6  A    between atoms: C12_12  and  C14_15
REMARK    7  A    between atoms: C13_13  and  O1_14
REMARK    8  A    between atoms: C14_15  and  C15_17
REMARK    9  A    between atoms: O3_18  and  C16_19
REMARK   10  A    between atoms: O4_20  and  C17_21
REMARK   11  A    between atoms: C23_28  and  O7_32
REMARK                            x       y       z     vdW  Elec       q    Type
REMARK                         _______ _______ _______ _____ _____    ______ ____
ROOT
ATOM      1  C   UNL     1      46.849  16.918  19.414  0.00  0.00    +0.111 C 
ATOM      2  C   UNL     1      47.200  15.755  18.521  0.00  0.00    -0.023 A 
ATOM      3  C   UNL     1      46.215  14.888  18.109  0.00  0.00    +0.018 A 
ATOM      4  C   UNL     1      46.522  13.808  17.283  0.00  0.00    +0.171 A 
ATOM      7  C   UNL     1      47.838  13.597  16.867  0.00  0.00    -0.157 A 
ATOM      8  C   UNL     1      48.851  14.481  17.284  0.00  0.00    -0.093 A 
ATOM      9  C   UNL     1      50.241  14.267  16.850  0.00  0.00    +0.434 C 
ATOM     10  C   UNL     1      50.572  13.124  15.975  0.00  0.00    -0.105 A 
ATOM     11  C   UNL     1      51.883  12.913  15.560  0.00  0.00    +0.067 A 
ATOM     12  C   UNL     1      52.186  11.840  14.740  0.00  0.00    +0.060 A 
ATOM     13  C   UNL     1      51.197  10.969  14.327  0.00  0.00    +0.018 A 
ATOM     14  C   UNL     1      49.880  11.161  14.730  0.00  0.00    +0.161 A 
ATOM     17  C   UNL     1      49.558  12.241  15.558  0.00  0.00    -0.149 A 
ATOM     18  O   UNL     1      51.117  15.031  17.211  0.00  0.00    -0.417 OA
ATOM     19  C   UNL     1      48.167  12.455  15.994  0.00  0.00    +0.431 C 
ATOM     20  O   UNL     1      47.291  11.692  15.634  0.00  0.00    -0.402 OA
ATOM     21  C   UNL     1      48.526  15.567  18.111  0.00  0.00    +0.022 A 
ENDROOT
BRANCH  21  22
ATOM     22  C   UNL     1      49.579  16.505  18.552  0.00  0.00    -0.148 A 
ATOM     23  C   UNL     1      50.211  16.320  19.791  0.00  0.00    +0.238 A 
ATOM     26  C   UNL     1      51.199  17.197  20.210  0.00  0.00    -0.175 A 
ATOM     27  C   UNL     1      51.572  18.264  19.411  0.00  0.00    +0.235 A 
ATOM     30  C   UNL     1      50.948  18.465  18.165  0.00  0.00    -0.266 A 
ATOM     34  C   UNL     1      49.950  17.574  17.733  0.00  0.00    +0.264 A 
BRANCH  30  31
ATOM     31  C   UNL     1      51.342  19.591  17.320  0.00  0.00    +0.401 C 
ATOM     32  C   UNL     1      50.901  20.988  17.674  0.00  0.00    +0.079 C 
ATOM     33  O   UNL     1      52.023  19.401  16.334  0.00  0.00    -0.456 OA
ENDBRANCH  30  31
BRANCH  23  24
ATOM     24  O   UNL     1      49.854  15.278  20.583  0.00  0.00    -0.301 OA
ATOM     25  C   UNL     1      50.803  14.220  20.732  0.00  0.00    +0.250 C 
ENDBRANCH  23  24
BRANCH  27  28
ATOM     28  O   UNL     1      52.539  19.117  19.830  0.00  0.00    -0.296 OA
ATOM     29  C   UNL     1      52.249  19.914  20.980  0.00  0.00    +0.246 C 
ENDBRANCH  27  28
BRANCH  34  35
ATOM     35  O   UNL     1      49.349  17.755  16.533  0.00  0.00    -0.467 OA
ATOM     36  H   UNL     1      48.804  17.008  16.251  0.00  0.00    +0.401 HD
ENDBRANCH  34  35
ENDBRANCH  21  22
BRANCH   4   5
ATOM      5  O   UNL     1      45.540  12.960  16.885  0.00  0.00    -0.475 OA
ATOM      6  H   UNL     1      45.451  12.887  15.925  0.00  0.00    +0.400 HD
ENDBRANCH   4   5
BRANCH  14  15
ATOM     15  O   UNL     1      48.912  10.304  14.322  0.00  0.00    -0.476 OA
ATOM     16  H   UNL     1      49.198   9.684  13.638  0.00  0.00    +0.400 HD
ENDBRANCH  14  15
TORSDOF 7
ENDMDL
MODEL 9
REMARK VINA RESULT:      -5.4      2.384      5.148
REMARK  Name = ZINC38347584
REMARK  11 active torsions:
REMARK  status: ('A' for Active; 'I' for Inactive)
REMARK    1  A    between atoms: C1_1  and  C2_2
REMARK    2  A    between atoms: C4_4  and  O8_33
REMARK    3  A    between atoms: C7_7  and  C8_8
REMARK    4  A    between atoms: C9_9  and  O4_20
REMARK    5  A    between atoms: C11_11  and  O3_18
REMARK    6  A    between atoms: C12_12  and  C14_15
REMARK    7  A    between atoms: C13_13  and  O1_14
REMARK    8  A    between atoms: C14_15  and  C15_17
REMARK    9  A    between atoms: O3_18  and  C16_19
REMARK   10  A    between atoms: O4_20  and  C17_21
REMARK   11  A    between atoms: C23_28  and  O7_32
REMARK                            x       y       z     vdW  Elec       q    Type
REMARK                         _______ _______ _______ _____ _____    ______ ____
ROOT
ATOM      1  C   UNL     1      51.056  21.425  17.337  0.00  0.00    +0.111 C 
ATOM      2  C   UNL     1      51.066  19.920  17.248  0.00  0.00    -0.023 A 
ATOM      3  C   UNL     1      51.746  19.301  16.226  0.00  0.00    +0.018 A 
ATOM      4  C   UNL     1      51.767  17.910  16.129  0.00  0.00    +0.171 A 
ATOM      7  C   UNL     1      51.094  17.132  17.074  0.00  0.00    -0.157 A 
ATOM      8  C   UNL     1      50.397  17.760  18.124  0.00  0.00    -0.093 A 
ATOM      9  C   UNL     1      49.685  16.950  19.125  0.00  0.00    +0.434 C 
ATOM     10  C   UNL     1      49.704  15.476  19.027  0.00  0.00    -0.105 A 
ATOM     11  C   UNL     1      49.033  14.701  19.969  0.00  0.00    +0.067 A 
ATOM     12  C   UNL     1      49.054  13.320  19.871  0.00  0.00    +0.060 A 
ATOM     13  C   UNL     1      49.736  12.698  18.844  0.00  0.00    +0.018 A 
ATOM     14  C   UNL     1      50.413  13.453  17.893  0.00  0.00    +0.161 A 
ATOM     17  C   UNL     1      50.401  14.850  17.978  0.00  0.00    -0.149 A 
ATOM     18  O   UNL     1      49.082  17.493  20.033  0.00  0.00    -0.417 OA
ATOM     19  C   UNL     1      51.112  15.661  16.975  0.00  0.00    +0.431 C 
ATOM     20  O   UNL     1      51.715  15.120  16.068  0.00  0.00    -0.402 OA
ATOM     21  C   UNL     1      50.389  19.161  18.212  0.00  0.00    +0.022 A 
ENDROOT
BRANCH  21  22
ATOM     22  C   UNL     1      49.667  19.832  19.311  0.00  0.00    -0.148 A 
ATOM     23  C   UNL     1      50.366  20.279  20.443  0.00  0.00    +0.238 A 
ATOM     26  C   UNL     1      49.694  20.909  21.477  0.00  0.00    -0.175 A 
ATOM     27  C   UNL     1      48.325  21.105  21.405  0.00  0.00    +0.235 A 
ATOM     30  C   UNL     1      47.607  20.663  20.277  0.00  0.00    -0.266 A 
ATOM     34  C   UNL     1      48.286  20.029  19.223  0.00  0.00    +0.264 A 
BRANCH  30  31
ATOM     31  C   UNL     1      46.162  20.870  20.200  0.00  0.00    +0.401 C 
ATOM     32  C   UNL     1      45.229  19.950  20.943  0.00  0.00    +0.079 C 
ATOM     33  O   UNL     1      45.714  21.782  19.537  0.00  0.00    -0.456 OA
ENDBRANCH  30  31
BRANCH  23  24
ATOM     24  O   UNL     1      51.707  20.091  20.525  0.00  0.00    -0.301 OA
ATOM     25  C   UNL     1      52.507  21.242  20.805  0.00  0.00    +0.250 C 
ENDBRANCH  23  24
BRANCH  27  28
ATOM     28  O   UNL     1      47.676  21.722  22.422  0.00  0.00    -0.296 OA
ATOM     29  C   UNL     1      47.798  23.145  22.502  0.00  0.00    +0.246 C 
ENDBRANCH  27  28
BRANCH  34  35
ATOM     35  O   UNL     1      47.606  19.607  18.130  0.00  0.00    -0.467 OA
ATOM     36  H   UNL     1      46.645  19.613  18.239  0.00  0.00    +0.401 HD
ENDBRANCH  34  35
ENDBRANCH  21  22
BRANCH   4   5
ATOM      5  O   UNL     1      52.440  17.312  15.114  0.00  0.00    -0.475 OA
ATOM      6  H   UNL     1      52.438  17.818  14.290  0.00  0.00    +0.400 HD
ENDBRANCH   4   5
BRANCH  14  15
ATOM     15  O   UNL     1      51.081  12.839  16.886  0.00  0.00    -0.476 OA
ATOM     16  H   UNL     1      52.035  12.772  17.029  0.00  0.00    +0.400 HD
ENDBRANCH  14  15
TORSDOF 7
ENDMDL
