MODEL 1
REMARK VINA RESULT:      -6.7      0.000      0.000
REMARK  Name = ZINC95486293
REMARK  6 active torsions:
REMARK  status: ('A' for Active; 'I' for Inactive)
REMARK    1  A    between atoms: C1_1  and  O1_2
REMARK    2  A    between atoms: O1_2  and  C2_3
REMARK    3  A    between atoms: C5_6  and  O2_9
REMARK    4  A    between atoms: O2_9  and  C8_10
REMARK    5  A    between atoms: C12_15  and  O6_22
REMARK    6  A    between atoms: C14_17  and  O5_21
REMARK                            x       y       z     vdW  Elec       q    Type
REMARK                         _______ _______ _______ _____ _____    ______ ____
ROOT
ATOM      8  C   UNL     1      44.105  18.869  20.497  0.00  0.00    -0.018 A 
ATOM      9  C   UNL     1      44.842  20.001  20.648  0.00  0.00    +0.120 A 
ATOM     10  O   UNL     1      46.073  19.945  21.232  0.00  0.00    -0.679 OA
ATOM     11  C   UNL     1      44.324  21.237  20.196  0.00  0.00    +0.397 A 
ATOM     12  C   UNL     1      42.990  21.224  19.575  0.00  0.00    -0.281 A 
ATOM     13  C   UNL     1      42.398  22.401  19.098  0.00  0.00    +0.217 A 
ATOM     16  C   UNL     1      41.143  22.348  18.522  0.00  0.00    -0.101 A 
ATOM     17  C   UNL     1      40.474  21.133  18.417  0.00  0.00    +0.175 A 
ATOM     20  C   UNL     1      41.052  19.965  18.886  0.00  0.00    -0.064 A 
ATOM     21  C   UNL     1      42.311  19.999  19.468  0.00  0.00    +0.210 A 
ATOM     22  O   UNL     1      44.959  22.273  20.316  0.00  0.00    -0.463 OA
ATOM     23  O   UNL     1      42.892  18.870  19.924  0.00  0.00    -0.234 OA
ENDROOT
BRANCH  13  14
ATOM     14  O   UNL     1      43.053  23.586  19.203  0.00  0.00    -0.477 OA
ATOM     15  H   UNL     1      43.666  23.761  18.477  0.00  0.00    +0.395 HD
ENDBRANCH  13  14
BRANCH  17  18
ATOM     18  O   UNL     1      39.241  21.092  17.849  0.00  0.00    -0.494 OA
ATOM     19  H   UNL     1      39.138  21.679  17.088  0.00  0.00    +0.392 HD
ENDBRANCH  17  18
BRANCH   8   7
ATOM      7  O   UNL     1      44.615  17.697  20.935  0.00  0.00    -0.202 OA
BRANCH   7   6
ATOM      3  C   UNL     1      46.179  15.096  18.137  0.00  0.00    +0.110 A 
ATOM      4  C   UNL     1      46.175  16.461  17.889  0.00  0.00    -0.066 A 
ATOM      5  C   UNL     1      45.652  17.331  18.825  0.00  0.00    +0.037 A 
ATOM      6  C   UNL     1      45.130  16.841  20.013  0.00  0.00    +0.072 A 
ATOM     24  C   UNL     1      45.134  15.476  20.260  0.00  0.00    +0.049 A 
ATOM     25  C   UNL     1      45.652  14.605  19.323  0.00  0.00    -0.005 A 
BRANCH   3   2
ATOM      1  C   UNL     1      46.141  12.923  17.170  0.00  0.00    +0.232 C 
ATOM      2  O   UNL     1      46.694  14.240  17.215  0.00  0.00    -0.320 OA
ENDBRANCH   3   2
ENDBRANCH   7   6
ENDBRANCH   8   7
TORSDOF 5
ENDMDL
MODEL 2
REMARK VINA RESULT:      -6.2      4.611      8.418
REMARK  Name = ZINC95486293
REMARK  6 active torsions:
REMARK  status: ('A' for Active; 'I' for Inactive)
REMARK    1  A    between atoms: C1_1  and  O1_2
REMARK    2  A    between atoms: O1_2  and  C2_3
REMARK    3  A    between atoms: C5_6  and  O2_9
REMARK    4  A    between atoms: O2_9  and  C8_10
REMARK    5  A    between atoms: C12_15  and  O6_22
REMARK    6  A    between atoms: C14_17  and  O5_21
REMARK                            x       y       z     vdW  Elec       q    Type
REMARK                         _______ _______ _______ _____ _____    ______ ____
ROOT
ATOM      8  C   UNL     1      48.906  19.573  19.989  0.00  0.00    -0.018 A 
ATOM      9  C   UNL     1      49.126  18.240  19.841  0.00  0.00    +0.120 A 
ATOM     10  O   UNL     1      48.475  17.344  20.637  0.00  0.00    -0.679 OA
ATOM     11  C   UNL     1      50.036  17.787  18.858  0.00  0.00    +0.397 A 
ATOM     12  C   UNL     1      50.704  18.808  18.033  0.00  0.00    -0.281 A 
ATOM     13  C   UNL     1      51.619  18.451  17.035  0.00  0.00    +0.217 A 
ATOM     16  C   UNL     1      52.226  19.440  16.282  0.00  0.00    -0.101 A 
ATOM     17  C   UNL     1      51.927  20.778  16.516  0.00  0.00    +0.175 A 
ATOM     20  C   UNL     1      51.023  21.138  17.503  0.00  0.00    -0.064 A 
ATOM     21  C   UNL     1      50.405  20.160  18.268  0.00  0.00    +0.210 A 
ATOM     22  O   UNL     1      50.258  16.596  18.697  0.00  0.00    -0.463 OA
ATOM     23  O   UNL     1      49.517  20.493  19.228  0.00  0.00    -0.234 OA
ENDROOT
BRANCH  13  14
ATOM     14  O   UNL     1      51.910  17.145  16.808  0.00  0.00    -0.477 OA
ATOM     15  H   UNL     1      51.136  16.598  16.614  0.00  0.00    +0.395 HD
ENDBRANCH  13  14
BRANCH  17  18
ATOM     18  O   UNL     1      52.529  21.741  15.773  0.00  0.00    -0.494 OA
ATOM     19  H   UNL     1      53.283  22.162  16.208  0.00  0.00    +0.392 HD
ENDBRANCH  17  18
BRANCH   8   7
ATOM      7  O   UNL     1      48.034  19.987  20.934  0.00  0.00    -0.202 OA
BRANCH   7   6
ATOM      3  C   UNL     1      45.048  22.603  19.807  0.00  0.00    +0.110 A 
ATOM      4  C   UNL     1      45.282  21.456  19.062  0.00  0.00    -0.066 A 
ATOM      5  C   UNL     1      46.281  20.581  19.440  0.00  0.00    +0.037 A 
ATOM      6  C   UNL     1      47.051  20.848  20.563  0.00  0.00    +0.072 A 
ATOM     24  C   UNL     1      46.816  21.995  21.306  0.00  0.00    +0.049 A 
ATOM     25  C   UNL     1      45.821  22.874  20.926  0.00  0.00    -0.005 A 
BRANCH   3   2
ATOM      1  C   UNL     1      44.470  24.691  18.824  0.00  0.00    +0.232 C 
ATOM      2  O   UNL     1      44.064  23.465  19.434  0.00  0.00    -0.320 OA
ENDBRANCH   3   2
ENDBRANCH   7   6
ENDBRANCH   8   7
TORSDOF 5
ENDMDL
MODEL 3
REMARK VINA RESULT:      -5.9      2.042      3.822
REMARK  Name = ZINC95486293
REMARK  6 active torsions:
REMARK  status: ('A' for Active; 'I' for Inactive)
REMARK    1  A    between atoms: C1_1  and  O1_2
REMARK    2  A    between atoms: O1_2  and  C2_3
REMARK    3  A    between atoms: C5_6  and  O2_9
REMARK    4  A    between atoms: O2_9  and  C8_10
REMARK    5  A    between atoms: C12_15  and  O6_22
REMARK    6  A    between atoms: C14_17  and  O5_21
REMARK                            x       y       z     vdW  Elec       q    Type
REMARK                         _______ _______ _______ _____ _____    ______ ____
ROOT
ATOM      8  C   UNL     1      43.170  19.245  21.006  0.00  0.00    -0.018 A 
ATOM      9  C   UNL     1      42.399  19.826  20.049  0.00  0.00    +0.120 A 
ATOM     10  O   UNL     1      41.351  19.144  19.506  0.00  0.00    -0.679 OA
ATOM     11  C   UNL     1      42.691  21.141  19.620  0.00  0.00    +0.397 A 
ATOM     12  C   UNL     1      43.837  21.819  20.249  0.00  0.00    -0.281 A 
ATOM     13  C   UNL     1      44.199  23.123  19.887  0.00  0.00    +0.217 A 
ATOM     16  C   UNL     1      45.282  23.724  20.501  0.00  0.00    -0.101 A 
ATOM     17  C   UNL     1      46.005  23.038  21.471  0.00  0.00    +0.175 A 
ATOM     20  C   UNL     1      45.652  21.748  21.834  0.00  0.00    -0.064 A 
ATOM     21  C   UNL     1      44.569  21.129  21.229  0.00  0.00    +0.210 A 
ATOM     22  O   UNL     1      42.019  21.694  18.762  0.00  0.00    -0.463 OA
ATOM     23  O   UNL     1      44.208  19.875  21.575  0.00  0.00    -0.234 OA
ENDROOT
BRANCH  13  14
ATOM     14  O   UNL     1      43.493  23.790  18.939  0.00  0.00    -0.477 OA
ATOM     15  H   UNL     1      43.879  23.740  18.054  0.00  0.00    +0.395 HD
ENDBRANCH  13  14
BRANCH  17  18
ATOM     18  O   UNL     1      47.067  23.637  22.067  0.00  0.00    -0.494 OA
ATOM     19  H   UNL     1      47.541  24.258  21.496  0.00  0.00    +0.392 HD
ENDBRANCH  17  18
BRANCH   8   7
ATOM      7  O   UNL     1      42.876  17.988  21.403  0.00  0.00    -0.202 OA
BRANCH   7   6
ATOM      3  C   UNL     1      45.854  15.138  21.184  0.00  0.00    +0.110 A 
ATOM      4  C   UNL     1      45.616  15.976  20.104  0.00  0.00    -0.066 A 
ATOM      5  C   UNL     1      44.619  16.928  20.177  0.00  0.00    +0.037 A 
ATOM      6  C   UNL     1      43.857  17.049  21.331  0.00  0.00    +0.072 A 
ATOM     24  C   UNL     1      44.097  16.212  22.410  0.00  0.00    +0.049 A 
ATOM     25  C   UNL     1      45.089  15.255  22.335  0.00  0.00    -0.005 A 
BRANCH   3   2
ATOM      1  C   UNL     1      46.922  13.264  22.188  0.00  0.00    +0.232 C 
ATOM      2  O   UNL     1      46.836  14.199  21.111  0.00  0.00    -0.320 OA
ENDBRANCH   3   2
ENDBRANCH   7   6
ENDBRANCH   8   7
TORSDOF 5
ENDMDL
MODEL 4
REMARK VINA RESULT:      -5.7      2.990      4.338
REMARK  Name = ZINC95486293
REMARK  6 active torsions:
REMARK  status: ('A' for Active; 'I' for Inactive)
REMARK    1  A    between atoms: C1_1  and  O1_2
REMARK    2  A    between atoms: O1_2  and  C2_3
REMARK    3  A    between atoms: C5_6  and  O2_9
REMARK    4  A    between atoms: O2_9  and  C8_10
REMARK    5  A    between atoms: C12_15  and  O6_22
REMARK    6  A    between atoms: C14_17  and  O5_21
REMARK                            x       y       z     vdW  Elec       q    Type
REMARK                         _______ _______ _______ _____ _____    ______ ____
ROOT
ATOM      8  C   UNL     1      45.738  19.696  21.332  0.00  0.00    -0.018 A 
ATOM      9  C   UNL     1      45.036  18.614  21.760  0.00  0.00    +0.120 A 
ATOM     10  O   UNL     1      45.650  17.647  22.500  0.00  0.00    -0.679 OA
ATOM     11  C   UNL     1      43.665  18.496  21.431  0.00  0.00    +0.397 A 
ATOM     12  C   UNL     1      43.067  19.577  20.630  0.00  0.00    -0.281 A 
ATOM     13  C   UNL     1      41.717  19.545  20.259  0.00  0.00    +0.217 A 
ATOM     16  C   UNL     1      41.192  20.578  19.506  0.00  0.00    -0.101 A 
ATOM     17  C   UNL     1      42.002  21.642  19.121  0.00  0.00    +0.175 A 
ATOM     20  C   UNL     1      43.338  21.681  19.484  0.00  0.00    -0.064 A 
ATOM     21  C   UNL     1      43.882  20.652  20.239  0.00  0.00    +0.210 A 
ATOM     22  O   UNL     1      43.004  17.537  21.799  0.00  0.00    -0.463 OA
ATOM     23  O   UNL     1      45.180  20.677  20.607  0.00  0.00    -0.234 OA
ENDROOT
BRANCH  13  14
ATOM     14  O   UNL     1      40.929  18.505  20.635  0.00  0.00    -0.477 OA
ATOM     15  H   UNL     1      40.448  18.092  19.905  0.00  0.00    +0.395 HD
ENDBRANCH  13  14
BRANCH  17  18
ATOM     18  O   UNL     1      41.477  22.652  18.381  0.00  0.00    -0.494 OA
ATOM     19  H   UNL     1      41.638  22.569  17.431  0.00  0.00    +0.392 HD
ENDBRANCH  17  18
BRANCH   8   7
ATOM      7  O   UNL     1      47.047  19.791  21.655  0.00  0.00    -0.202 OA
BRANCH   7   6
ATOM      3  C   UNL     1      49.816  19.618  18.599  0.00  0.00    +0.110 A 
ATOM      4  C   UNL     1      49.728  20.753  19.391  0.00  0.00    -0.066 A 
ATOM      5  C   UNL     1      48.801  20.812  20.413  0.00  0.00    +0.037 A 
ATOM      6  C   UNL     1      47.959  19.734  20.649  0.00  0.00    +0.072 A 
ATOM     24  C   UNL     1      48.047  18.599  19.857  0.00  0.00    +0.049 A 
ATOM     25  C   UNL     1      48.970  18.543  18.831  0.00  0.00    -0.005 A 
BRANCH   3   2
ATOM      1  C   UNL     1      51.401  20.776  17.256  0.00  0.00    +0.232 C 
ATOM      2  O   UNL     1      50.729  19.561  17.593  0.00  0.00    -0.320 OA
ENDBRANCH   3   2
ENDBRANCH   7   6
ENDBRANCH   8   7
TORSDOF 5
ENDMDL
MODEL 5
REMARK VINA RESULT:      -5.7      1.447      7.040
REMARK  Name = ZINC95486293
REMARK  6 active torsions:
REMARK  status: ('A' for Active; 'I' for Inactive)
REMARK    1  A    between atoms: C1_1  and  O1_2
REMARK    2  A    between atoms: O1_2  and  C2_3
REMARK    3  A    between atoms: C5_6  and  O2_9
REMARK    4  A    between atoms: O2_9  and  C8_10
REMARK    5  A    between atoms: C12_15  and  O6_22
REMARK    6  A    between atoms: C14_17  and  O5_21
REMARK                            x       y       z     vdW  Elec       q    Type
REMARK                         _______ _______ _______ _____ _____    ______ ____
ROOT
ATOM      8  C   UNL     1      45.491  17.960  20.087  0.00  0.00    -0.018 A 
ATOM      9  C   UNL     1      45.124  17.008  20.986  0.00  0.00    +0.120 A 
ATOM     10  O   UNL     1      44.675  17.369  22.222  0.00  0.00    -0.679 OA
ATOM     11  C   UNL     1      45.211  15.642  20.631  0.00  0.00    +0.397 A 
ATOM     12  C   UNL     1      45.703  15.324  19.281  0.00  0.00    -0.281 A 
ATOM     13  C   UNL     1      45.821  13.998  18.843  0.00  0.00    +0.217 A 
ATOM     16  C   UNL     1      46.288  13.741  17.568  0.00  0.00    -0.101 A 
ATOM     17  C   UNL     1      46.637  14.792  16.726  0.00  0.00    +0.175 A 
ATOM     20  C   UNL     1      46.523  16.106  17.153  0.00  0.00    -0.064 A 
ATOM     21  C   UNL     1      46.056  16.383  18.429  0.00  0.00    +0.210 A 
ATOM     22  O   UNL     1      44.889  14.761  21.414  0.00  0.00    -0.463 OA
ATOM     23  O   UNL     1      45.933  17.657  18.858  0.00  0.00    -0.234 OA
ENDROOT
BRANCH  13  14
ATOM     14  O   UNL     1      45.480  12.974  19.666  0.00  0.00    -0.477 OA
ATOM     15  H   UNL     1      45.021  13.252  20.470  0.00  0.00    +0.395 HD
ENDBRANCH  13  14
BRANCH  17  18
ATOM     18  O   UNL     1      47.095  14.529  15.476  0.00  0.00    -0.494 OA
ATOM     19  H   UNL     1      46.799  13.680  15.119  0.00  0.00    +0.392 HD
ENDBRANCH  17  18
BRANCH   8   7
ATOM      7  O   UNL     1      45.402  19.259  20.444  0.00  0.00    -0.202 OA
BRANCH   7   6
ATOM      3  C   UNL     1      42.143  21.417  19.118  0.00  0.00    +0.110 A 
ATOM      4  C   UNL     1      43.283  22.079  19.549  0.00  0.00    -0.066 A 
ATOM      5  C   UNL     1      44.373  21.357  19.993  0.00  0.00    +0.037 A 
ATOM      6  C   UNL     1      44.329  19.970  20.007  0.00  0.00    +0.072 A 
ATOM     24  C   UNL     1      43.188  19.309  19.576  0.00  0.00    +0.049 A 
ATOM     25  C   UNL     1      42.096  20.031  19.137  0.00  0.00    -0.005 A 
BRANCH   3   2
ATOM      1  C   UNL     1      39.827  21.431  18.574  0.00  0.00    +0.232 C 
ATOM      2  O   UNL     1      41.069  22.128  18.681  0.00  0.00    -0.320 OA
ENDBRANCH   3   2
ENDBRANCH   7   6
ENDBRANCH   8   7
TORSDOF 5
ENDMDL
MODEL 6
REMARK VINA RESULT:      -5.7      3.626      4.984
REMARK  Name = ZINC95486293
REMARK  6 active torsions:
REMARK  status: ('A' for Active; 'I' for Inactive)
REMARK    1  A    between atoms: C1_1  and  O1_2
REMARK    2  A    between atoms: O1_2  and  C2_3
REMARK    3  A    between atoms: C5_6  and  O2_9
REMARK    4  A    between atoms: O2_9  and  C8_10
REMARK    5  A    between atoms: C12_15  and  O6_22
REMARK    6  A    between atoms: C14_17  and  O5_21
REMARK                            x       y       z     vdW  Elec       q    Type
REMARK                         _______ _______ _______ _____ _____    ______ ____
ROOT
ATOM      8  C   UNL     1      47.094  19.529  20.458  0.00  0.00    -0.018 A 
ATOM      9  C   UNL     1      46.281  18.440  20.478  0.00  0.00    +0.120 A 
ATOM     10  O   UNL     1      46.795  17.205  20.744  0.00  0.00    -0.679 OA
ATOM     11  C   UNL     1      44.899  18.594  20.219  0.00  0.00    +0.397 A 
ATOM     12  C   UNL     1      44.412  19.955  19.939  0.00  0.00    -0.281 A 
ATOM     13  C   UNL     1      43.059  20.203  19.673  0.00  0.00    +0.217 A 
ATOM     16  C   UNL     1      42.641  21.495  19.414  0.00  0.00    -0.101 A 
ATOM     17  C   UNL     1      43.559  22.540  19.419  0.00  0.00    +0.175 A 
ATOM     20  C   UNL     1      44.899  22.302  19.681  0.00  0.00    -0.064 A 
ATOM     21  C   UNL     1      45.336  21.012  19.943  0.00  0.00    +0.210 A 
ATOM     22  O   UNL     1      44.140  17.637  20.229  0.00  0.00    -0.463 OA
ATOM     23  O   UNL     1      46.637  20.765  20.207  0.00  0.00    -0.234 OA
ENDROOT
BRANCH  13  14
ATOM     14  O   UNL     1      42.165  19.181  19.668  0.00  0.00    -0.477 OA
ATOM     15  H   UNL     1      41.259  19.453  19.473  0.00  0.00    +0.395 HD
ENDBRANCH  13  14
BRANCH  17  18
ATOM     18  O   UNL     1      43.138  23.805  19.164  0.00  0.00    -0.494 OA
ATOM     19  H   UNL     1      42.688  24.229  19.908  0.00  0.00    +0.392 HD
ENDBRANCH  17  18
BRANCH   8   7
ATOM      7  O   UNL     1      48.411  19.362  20.706  0.00  0.00    -0.202 OA
BRANCH   7   6
ATOM      3  C   UNL     1      51.076  20.144  17.653  0.00  0.00    +0.110 A 
ATOM      4  C   UNL     1      50.359  18.956  17.660  0.00  0.00    -0.066 A 
ATOM      5  C   UNL     1      49.467  18.695  18.682  0.00  0.00    +0.037 A 
ATOM      6  C   UNL     1      49.289  19.620  19.701  0.00  0.00    +0.072 A 
ATOM     24  C   UNL     1      50.006  20.806  19.693  0.00  0.00    +0.049 A 
ATOM     25  C   UNL     1      50.902  21.066  18.675  0.00  0.00    -0.005 A 
BRANCH   3   2
ATOM      1  C   UNL     1      52.148  19.371  15.675  0.00  0.00    +0.232 C 
ATOM      2  O   UNL     1      51.954  20.401  16.647  0.00  0.00    -0.320 OA
ENDBRANCH   3   2
ENDBRANCH   7   6
ENDBRANCH   8   7
TORSDOF 5
ENDMDL
MODEL 7
REMARK VINA RESULT:      -5.7      3.445      4.830
REMARK  Name = ZINC95486293
REMARK  6 active torsions:
REMARK  status: ('A' for Active; 'I' for Inactive)
REMARK    1  A    between atoms: C1_1  and  O1_2
REMARK    2  A    between atoms: O1_2  and  C2_3
REMARK    3  A    between atoms: C5_6  and  O2_9
REMARK    4  A    between atoms: O2_9  and  C8_10
REMARK    5  A    between atoms: C12_15  and  O6_22
REMARK    6  A    between atoms: C14_17  and  O5_21
REMARK                            x       y       z     vdW  Elec       q    Type
REMARK                         _______ _______ _______ _____ _____    ______ ____
ROOT
ATOM      8  C   UNL     1      46.743  19.256  19.735  0.00  0.00    -0.018 A 
ATOM      9  C   UNL     1      45.603  18.966  19.056  0.00  0.00    +0.120 A 
ATOM     10  O   UNL     1      45.448  17.747  18.463  0.00  0.00    -0.679 OA
ATOM     11  C   UNL     1      44.577  19.936  18.965  0.00  0.00    +0.397 A 
ATOM     12  C   UNL     1      44.811  21.230  19.628  0.00  0.00    -0.281 A 
ATOM     13  C   UNL     1      43.850  22.249  19.591  0.00  0.00    +0.217 A 
ATOM     16  C   UNL     1      44.107  23.450  20.225  0.00  0.00    -0.101 A 
ATOM     17  C   UNL     1      45.311  23.643  20.895  0.00  0.00    +0.175 A 
ATOM     20  C   UNL     1      46.266  22.639  20.935  0.00  0.00    -0.064 A 
ATOM     21  C   UNL     1      46.025  21.428  20.304  0.00  0.00    +0.210 A 
ATOM     22  O   UNL     1      43.540  19.709  18.362  0.00  0.00    -0.463 OA
ATOM     23  O   UNL     1      46.941  20.437  20.339  0.00  0.00    -0.234 OA
ENDROOT
BRANCH  13  14
ATOM     14  O   UNL     1      42.677  22.059  18.936  0.00  0.00    -0.477 OA
ATOM     15  H   UNL     1      42.748  22.127  17.974  0.00  0.00    +0.395 HD
ENDBRANCH  13  14
BRANCH  17  18
ATOM     18  O   UNL     1      45.554  24.826  21.514  0.00  0.00    -0.494 OA
ATOM     19  H   UNL     1      46.084  24.748  22.319  0.00  0.00    +0.392 HD
ENDBRANCH  17  18
BRANCH   8   7
ATOM      7  O   UNL     1      47.712  18.317  19.811  0.00  0.00    -0.202 OA
BRANCH   7   6
ATOM      3  C   UNL     1      50.797  18.490  17.074  0.00  0.00    +0.110 A 
ATOM      4  C   UNL     1      50.622  19.520  17.987  0.00  0.00    -0.066 A 
ATOM      5  C   UNL     1      49.589  19.462  18.902  0.00  0.00    +0.037 A 
ATOM      6  C   UNL     1      48.728  18.374  18.910  0.00  0.00    +0.072 A 
ATOM     24  C   UNL     1      48.904  17.345  17.997  0.00  0.00    +0.049 A 
ATOM     25  C   UNL     1      49.933  17.405  17.078  0.00  0.00    -0.005 A 
BRANCH   3   2
ATOM      1  C   UNL     1      52.229  19.846  15.744  0.00  0.00    +0.232 C 
ATOM      2  O   UNL     1      51.814  18.547  16.173  0.00  0.00    -0.320 OA
ENDBRANCH   3   2
ENDBRANCH   7   6
ENDBRANCH   8   7
TORSDOF 5
ENDMDL
MODEL 8
REMARK VINA RESULT:      -5.6      4.624      8.075
REMARK  Name = ZINC95486293
REMARK  6 active torsions:
REMARK  status: ('A' for Active; 'I' for Inactive)
REMARK    1  A    between atoms: C1_1  and  O1_2
REMARK    2  A    between atoms: O1_2  and  C2_3
REMARK    3  A    between atoms: C5_6  and  O2_9
REMARK    4  A    between atoms: O2_9  and  C8_10
REMARK    5  A    between atoms: C12_15  and  O6_22
REMARK    6  A    between atoms: C14_17  and  O5_21
REMARK                            x       y       z     vdW  Elec       q    Type
REMARK                         _______ _______ _______ _____ _____    ______ ____
ROOT
ATOM      8  C   UNL     1      49.509  17.319  18.979  0.00  0.00    -0.018 A 
ATOM      9  C   UNL     1      50.011  16.272  18.273  0.00  0.00    +0.120 A 
ATOM     10  O   UNL     1      49.695  14.993  18.624  0.00  0.00    -0.679 OA
ATOM     11  C   UNL     1      50.863  16.516  17.171  0.00  0.00    +0.397 A 
ATOM     12  C   UNL     1      51.162  17.921  16.846  0.00  0.00    -0.281 A 
ATOM     13  C   UNL     1      51.995  18.258  15.772  0.00  0.00    +0.217 A 
ATOM     16  C   UNL     1      52.253  19.588  15.500  0.00  0.00    -0.101 A 
ATOM     17  C   UNL     1      51.686  20.585  16.289  0.00  0.00    +0.175 A 
ATOM     20  C   UNL     1      50.861  20.259  17.354  0.00  0.00    -0.064 A 
ATOM     21  C   UNL     1      50.592  18.929  17.641  0.00  0.00    +0.210 A 
ATOM     22  O   UNL     1      51.331  15.599  16.514  0.00  0.00    -0.463 OA
ATOM     23  O   UNL     1      49.786  18.595  18.671  0.00  0.00    -0.234 OA
ENDROOT
BRANCH  13  14
ATOM     14  O   UNL     1      52.548  17.284  15.004  0.00  0.00    -0.477 OA
ATOM     15  H   UNL     1      51.929  16.875  14.383  0.00  0.00    +0.395 HD
ENDBRANCH  13  14
BRANCH  17  18
ATOM     18  O   UNL     1      51.946  21.888  16.014  0.00  0.00    -0.494 OA
ATOM     19  H   UNL     1      51.478  22.228  15.239  0.00  0.00    +0.392 HD
ENDBRANCH  17  18
BRANCH   8   7
ATOM      7  O   UNL     1      48.698  17.066  20.029  0.00  0.00    -0.202 OA
BRANCH   7   6
ATOM      3  C   UNL     1      44.963  18.823  20.063  0.00  0.00    +0.110 A 
ATOM      4  C   UNL     1      45.916  19.203  20.997  0.00  0.00    -0.066 A 
ATOM      5  C   UNL     1      47.166  18.614  20.986  0.00  0.00    +0.037 A 
ATOM      6  C   UNL     1      47.468  17.645  20.040  0.00  0.00    +0.072 A 
ATOM     24  C   UNL     1      46.514  17.266  19.107  0.00  0.00    +0.049 A 
ATOM     25  C   UNL     1      45.263  17.850  19.121  0.00  0.00    -0.005 A 
BRANCH   3   2
ATOM      1  C   UNL     1      43.310  20.055  18.875  0.00  0.00    +0.232 C 
ATOM      2  O   UNL     1      43.733  19.403  20.074  0.00  0.00    -0.320 OA
ENDBRANCH   3   2
ENDBRANCH   7   6
ENDBRANCH   8   7
TORSDOF 5
ENDMDL
MODEL 9
REMARK VINA RESULT:      -5.6      4.372      7.859
REMARK  Name = ZINC95486293
REMARK  6 active torsions:
REMARK  status: ('A' for Active; 'I' for Inactive)
REMARK    1  A    between atoms: C1_1  and  O1_2
REMARK    2  A    between atoms: O1_2  and  C2_3
REMARK    3  A    between atoms: C5_6  and  O2_9
REMARK    4  A    between atoms: O2_9  and  C8_10
REMARK    5  A    between atoms: C12_15  and  O6_22
REMARK    6  A    between atoms: C14_17  and  O5_21
REMARK                            x       y       z     vdW  Elec       q    Type
REMARK                         _______ _______ _______ _____ _____    ______ ____
ROOT
ATOM      8  C   UNL     1      48.133  18.604  19.536  0.00  0.00    -0.018 A 
ATOM      9  C   UNL     1      48.513  17.816  18.496  0.00  0.00    +0.120 A 
ATOM     10  O   UNL     1      47.708  16.799  18.075  0.00  0.00    -0.679 OA
ATOM     11  C   UNL     1      49.750  18.056  17.853  0.00  0.00    +0.397 A 
ATOM     12  C   UNL     1      50.569  19.170  18.358  0.00  0.00    -0.281 A 
ATOM     13  C   UNL     1      51.808  19.482  17.783  0.00  0.00    +0.217 A 
ATOM     16  C   UNL     1      52.548  20.535  18.287  0.00  0.00    -0.101 A 
ATOM     17  C   UNL     1      52.064  21.280  19.357  0.00  0.00    +0.175 A 
ATOM     20  C   UNL     1      50.840  20.977  19.932  0.00  0.00    -0.064 A 
ATOM     21  C   UNL     1      50.084  19.924  19.440  0.00  0.00    +0.210 A 
ATOM     22  O   UNL     1      50.123  17.368  16.916  0.00  0.00    -0.463 OA
ATOM     23  O   UNL     1      48.886  19.619  19.984  0.00  0.00    -0.234 OA
ENDROOT
BRANCH  13  14
ATOM     14  O   UNL     1      52.279  18.754  16.739  0.00  0.00    -0.477 OA
ATOM     15  H   UNL     1      53.212  18.910  16.539  0.00  0.00    +0.395 HD
ENDBRANCH  13  14
BRANCH  17  18
ATOM     18  O   UNL     1      52.798  22.312  19.845  0.00  0.00    -0.494 OA
ATOM     19  H   UNL     1      52.606  23.163  19.428  0.00  0.00    +0.392 HD
ENDBRANCH  17  18
BRANCH   8   7
ATOM      7  O   UNL     1      46.949  18.359  20.138  0.00  0.00    -0.202 OA
BRANCH   7   6
ATOM      3  C   UNL     1      43.879  21.056  19.551  0.00  0.00    +0.110 A 
ATOM      4  C   UNL     1      44.792  21.256  20.577  0.00  0.00    -0.066 A 
ATOM      5  C   UNL     1      45.818  20.354  20.774  0.00  0.00    +0.037 A 
ATOM      6  C   UNL     1      45.938  19.247  19.945  0.00  0.00    +0.072 A 
ATOM     24  C   UNL     1      45.025  19.048  18.919  0.00  0.00    +0.049 A 
ATOM     25  C   UNL     1      43.995  19.947  18.726  0.00  0.00    -0.005 A 
BRANCH   3   2
ATOM      1  C   UNL     1      41.630  21.425  18.871  0.00  0.00    +0.232 C 
ATOM      2  O   UNL     1      42.868  21.945  19.359  0.00  0.00    -0.320 OA
ENDBRANCH   3   2
ENDBRANCH   7   6
ENDBRANCH   8   7
TORSDOF 5
ENDMDL
