MODEL 1
REMARK VINA RESULT:      -6.1      0.000      0.000
REMARK  Name = ZINC95486297
REMARK  6 active torsions:
REMARK  status: ('A' for Active; 'I' for Inactive)
REMARK    1  A    between atoms: C1_1  and  O1_2
REMARK    2  A    between atoms: O1_2  and  C2_3
REMARK    3  A    between atoms: C5_6  and  O2_9
REMARK    4  A    between atoms: O2_9  and  C8_10
REMARK    5  A    between atoms: C9_11  and  O6_22
REMARK    6  A    between atoms: C14_17  and  O5_21
REMARK                            x       y       z     vdW  Elec       q    Type
REMARK                         _______ _______ _______ _____ _____    ______ ____
ROOT
ATOM      8  C   UNL     1      44.130  18.773  20.584  0.00  0.00    +0.290 A 
ATOM      9  C   UNL     1      44.885  19.893  20.743  0.00  0.00    -0.098 A 
ATOM     12  C   UNL     1      44.394  21.137  20.283  0.00  0.00    +0.412 A 
ATOM     13  C   UNL     1      43.065  21.146  19.645  0.00  0.00    -0.230 A 
ATOM     14  C   UNL     1      42.502  22.327  19.161  0.00  0.00    +0.144 A 
ATOM     15  C   UNL     1      41.268  22.300  18.575  0.00  0.00    -0.024 A 
ATOM     16  C   UNL     1      40.571  21.100  18.459  0.00  0.00    +0.179 A 
ATOM     19  C   UNL     1      41.116  19.919  18.935  0.00  0.00    -0.017 A 
ATOM     20  C   UNL     1      42.369  19.930  19.531  0.00  0.00    +0.176 A 
ATOM     21  O   UNL     1      45.046  22.162  20.409  0.00  0.00    -0.467 OA
ATOM     22  O   UNL     1      42.925  18.793  19.998  0.00  0.00    -0.229 OA
ENDROOT
BRANCH   9  10
ATOM     10  O   UNL     1      46.108  19.818  21.342  0.00  0.00    -0.452 OA
ATOM     11  H   UNL     1      46.469  20.674  21.608  0.00  0.00    +0.406 HD
ENDBRANCH   9  10
BRANCH  16  17
ATOM     17  O   UNL     1      39.345  21.087  17.874  0.00  0.00    -0.489 OA
ATOM     18  H   UNL     1      39.327  20.658  17.008  0.00  0.00    +0.403 HD
ENDBRANCH  16  17
BRANCH   8   7
ATOM      7  O   UNL     1      44.617  17.594  21.029  0.00  0.00    -0.189 OA
BRANCH   7   6
ATOM      3  C   UNL     1      46.132  14.946  18.248  0.00  0.00    +0.143 A 
ATOM      4  C   UNL     1      46.185  16.312  18.006  0.00  0.00    -0.057 A 
ATOM      5  C   UNL     1      45.678  17.198  18.937  0.00  0.00    +0.062 A 
ATOM      6  C   UNL     1      45.116  16.722  20.113  0.00  0.00    +0.017 A 
ATOM     23  C   UNL     1      45.062  15.357  20.354  0.00  0.00    +0.078 A 
ATOM     24  C   UNL     1      45.564  14.472  19.421  0.00  0.00    +0.006 A 
BRANCH   3   2
ATOM      1  C   UNL     1      45.965  12.816  17.203  0.00  0.00    +0.246 C 
ATOM      2  O   UNL     1      46.631  14.075  17.332  0.00  0.00    -0.312 OA
ENDBRANCH   3   2
ENDBRANCH   7   6
ENDBRANCH   8   7
TORSDOF 5
ENDMDL
MODEL 2
REMARK VINA RESULT:      -6.0      4.535      8.268
REMARK  Name = ZINC95486297
REMARK  6 active torsions:
REMARK  status: ('A' for Active; 'I' for Inactive)
REMARK    1  A    between atoms: C1_1  and  O1_2
REMARK    2  A    between atoms: O1_2  and  C2_3
REMARK    3  A    between atoms: C5_6  and  O2_9
REMARK    4  A    between atoms: O2_9  and  C8_10
REMARK    5  A    between atoms: C9_11  and  O6_22
REMARK    6  A    between atoms: C14_17  and  O5_21
REMARK                            x       y       z     vdW  Elec       q    Type
REMARK                         _______ _______ _______ _____ _____    ______ ____
ROOT
ATOM      8  C   UNL     1      48.885  19.784  20.092  0.00  0.00    +0.290 A 
ATOM      9  C   UNL     1      48.972  18.434  19.964  0.00  0.00    -0.098 A 
ATOM     12  C   UNL     1      49.807  17.879  18.967  0.00  0.00    +0.412 A 
ATOM     13  C   UNL     1      50.548  18.818  18.106  0.00  0.00    -0.230 A 
ATOM     14  C   UNL     1      51.394  18.362  17.095  0.00  0.00    +0.144 A 
ATOM     15  C   UNL     1      52.066  19.260  16.315  0.00  0.00    -0.024 A 
ATOM     16  C   UNL     1      51.911  20.628  16.524  0.00  0.00    +0.179 A 
ATOM     19  C   UNL     1      51.075  21.098  17.524  0.00  0.00    -0.017 A 
ATOM     20  C   UNL     1      50.385  20.197  18.324  0.00  0.00    +0.176 A 
ATOM     21  O   UNL     1      49.908  16.671  18.823  0.00  0.00    -0.467 OA
ATOM     22  O   UNL     1      49.561  20.629  19.300  0.00  0.00    -0.229 OA
ENDROOT
BRANCH   9  10
ATOM     10  O   UNL     1      48.260  17.618  20.793  0.00  0.00    -0.452 OA
ATOM     11  H   UNL     1      47.684  16.994  20.331  0.00  0.00    +0.406 HD
ENDBRANCH   9  10
BRANCH  16  17
ATOM     17  O   UNL     1      52.585  21.510  15.742  0.00  0.00    -0.489 OA
ATOM     18  H   UNL     1      53.542  21.375  15.733  0.00  0.00    +0.403 HD
ENDBRANCH  16  17
BRANCH   8   7
ATOM      7  O   UNL     1      48.082  20.295  21.052  0.00  0.00    -0.189 OA
BRANCH   7   6
ATOM      3  C   UNL     1      45.011  22.793  19.881  0.00  0.00    +0.143 A 
ATOM      4  C   UNL     1      45.793  23.123  20.980  0.00  0.00    -0.057 A 
ATOM      5  C   UNL     1      46.820  22.286  21.371  0.00  0.00    +0.062 A 
ATOM      6  C   UNL     1      47.071  21.118  20.666  0.00  0.00    +0.017 A 
ATOM     23  C   UNL     1      46.290  20.789  19.568  0.00  0.00    +0.078 A 
ATOM     24  C   UNL     1      45.259  21.622  19.180  0.00  0.00    +0.006 A 
BRANCH   3   2
ATOM      1  C   UNL     1      44.357  24.774  18.738  0.00  0.00    +0.246 C 
ATOM      2  O   UNL     1      44.000  23.616  19.496  0.00  0.00    -0.312 OA
ENDBRANCH   3   2
ENDBRANCH   7   6
ENDBRANCH   8   7
TORSDOF 5
ENDMDL
MODEL 3
REMARK VINA RESULT:      -5.9      1.602      7.099
REMARK  Name = ZINC95486297
REMARK  6 active torsions:
REMARK  status: ('A' for Active; 'I' for Inactive)
REMARK    1  A    between atoms: C1_1  and  O1_2
REMARK    2  A    between atoms: O1_2  and  C2_3
REMARK    3  A    between atoms: C5_6  and  O2_9
REMARK    4  A    between atoms: O2_9  and  C8_10
REMARK    5  A    between atoms: C9_11  and  O6_22
REMARK    6  A    between atoms: C14_17  and  O5_21
REMARK                            x       y       z     vdW  Elec       q    Type
REMARK                         _______ _______ _______ _____ _____    ______ ____
ROOT
ATOM      8  C   UNL     1      45.293  16.694  20.288  0.00  0.00    +0.290 A 
ATOM      9  C   UNL     1      45.029  15.600  21.052  0.00  0.00    -0.098 A 
ATOM     12  C   UNL     1      45.267  14.309  20.528  0.00  0.00    +0.412 A 
ATOM     13  C   UNL     1      45.797  14.223  19.154  0.00  0.00    -0.230 A 
ATOM     14  C   UNL     1      46.061  12.991  18.556  0.00  0.00    +0.144 A 
ATOM     15  C   UNL     1      46.551  12.947  17.281  0.00  0.00    -0.024 A 
ATOM     16  C   UNL     1      46.788  14.126  16.578  0.00  0.00    +0.179 A 
ATOM     19  C   UNL     1      46.532  15.357  17.159  0.00  0.00    -0.017 A 
ATOM     20  C   UNL     1      46.033  15.417  18.452  0.00  0.00    +0.176 A 
ATOM     21  O   UNL     1      45.041  13.306  21.185  0.00  0.00    -0.467 OA
ATOM     22  O   UNL     1      45.770  16.603  19.038  0.00  0.00    -0.229 OA
ENDROOT
BRANCH   9  10
ATOM     10  O   UNL     1      44.540  15.748  22.316  0.00  0.00    -0.452 OA
ATOM     11  H   UNL     1      43.575  15.704  22.372  0.00  0.00    +0.406 HD
ENDBRANCH   9  10
BRANCH  16  17
ATOM     17  O   UNL     1      47.276  14.068  15.312  0.00  0.00    -0.489 OA
ATOM     18  H   UNL     1      46.802  14.628  14.681  0.00  0.00    +0.403 HD
ENDBRANCH  16  17
BRANCH   8   7
ATOM      7  O   UNL     1      45.059  17.919  20.806  0.00  0.00    -0.189 OA
BRANCH   7   6
ATOM      3  C   UNL     1      41.687  19.944  19.552  0.00  0.00    +0.143 A 
ATOM      4  C   UNL     1      41.623  19.107  20.657  0.00  0.00    -0.057 A 
ATOM      5  C   UNL     1      42.751  18.430  21.077  0.00  0.00    +0.062 A 
ATOM      6  C   UNL     1      43.948  18.586  20.393  0.00  0.00    +0.017 A 
ATOM     23  C   UNL     1      44.012  19.422  19.288  0.00  0.00    +0.078 A 
ATOM     24  C   UNL     1      42.883  20.095  18.866  0.00  0.00    +0.006 A 
BRANCH   3   2
ATOM      1  C   UNL     1      40.775  21.885  18.523  0.00  0.00    +0.246 C 
ATOM      2  O   UNL     1      40.576  20.610  19.139  0.00  0.00    -0.312 OA
ENDBRANCH   3   2
ENDBRANCH   7   6
ENDBRANCH   8   7
TORSDOF 5
ENDMDL
MODEL 4
REMARK VINA RESULT:      -5.7      4.368      7.685
REMARK  Name = ZINC95486297
REMARK  6 active torsions:
REMARK  status: ('A' for Active; 'I' for Inactive)
REMARK    1  A    between atoms: C1_1  and  O1_2
REMARK    2  A    between atoms: O1_2  and  C2_3
REMARK    3  A    between atoms: C5_6  and  O2_9
REMARK    4  A    between atoms: O2_9  and  C8_10
REMARK    5  A    between atoms: C9_11  and  O6_22
REMARK    6  A    between atoms: C14_17  and  O5_21
REMARK                            x       y       z     vdW  Elec       q    Type
REMARK                         _______ _______ _______ _____ _____    ______ ____
ROOT
ATOM      8  C   UNL     1      48.729  18.717  19.261  0.00  0.00    +0.290 A 
ATOM      9  C   UNL     1      48.938  17.453  18.807  0.00  0.00    -0.098 A 
ATOM     12  C   UNL     1      49.882  17.228  17.779  0.00  0.00    +0.412 A 
ATOM     13  C   UNL     1      50.598  18.403  17.248  0.00  0.00    -0.230 A 
ATOM     14  C   UNL     1      51.546  18.276  16.233  0.00  0.00    +0.144 A 
ATOM     15  C   UNL     1      52.191  19.385  15.764  0.00  0.00    -0.024 A 
ATOM     16  C   UNL     1      51.907  20.641  16.296  0.00  0.00    +0.179 A 
ATOM     19  C   UNL     1      50.969  20.784  17.305  0.00  0.00    -0.017 A 
ATOM     20  C   UNL     1      50.304  19.666  17.790  0.00  0.00    +0.176 A 
ATOM     21  O   UNL     1      50.094  16.106  17.346  0.00  0.00    -0.467 OA
ATOM     22  O   UNL     1      49.383  19.779  18.768  0.00  0.00    -0.229 OA
ENDROOT
BRANCH   9  10
ATOM     10  O   UNL     1      48.243  16.408  19.340  0.00  0.00    -0.452 OA
ATOM     11  H   UNL     1      48.744  15.890  19.985  0.00  0.00    +0.406 HD
ENDBRANCH   9  10
BRANCH  16  17
ATOM     17  O   UNL     1      52.556  21.736  15.821  0.00  0.00    -0.489 OA
ATOM     18  H   UNL     1      51.968  22.423  15.477  0.00  0.00    +0.403 HD
ENDBRANCH  16  17
BRANCH   8   7
ATOM      7  O   UNL     1      47.823  18.912  20.245  0.00  0.00    -0.189 OA
BRANCH   7   6
ATOM      3  C   UNL     1      44.020  20.104  19.167  0.00  0.00    +0.143 A 
ATOM      4  C   UNL     1      44.220  18.854  19.738  0.00  0.00    -0.057 A 
ATOM      5  C   UNL     1      45.493  18.455  20.098  0.00  0.00    +0.062 A 
ATOM      6  C   UNL     1      46.570  19.304  19.890  0.00  0.00    +0.017 A 
ATOM     23  C   UNL     1      46.370  20.552  19.319  0.00  0.00    +0.078 A 
ATOM     24  C   UNL     1      45.099  20.949  18.954  0.00  0.00    +0.006 A 
BRANCH   3   2
ATOM      1  C   UNL     1      41.676  19.739  19.341  0.00  0.00    +0.246 C 
ATOM      2  O   UNL     1      42.768  20.495  18.812  0.00  0.00    -0.312 OA
ENDBRANCH   3   2
ENDBRANCH   7   6
ENDBRANCH   8   7
TORSDOF 5
ENDMDL
MODEL 5
REMARK VINA RESULT:      -5.5      1.966      3.129
REMARK  Name = ZINC95486297
REMARK  6 active torsions:
REMARK  status: ('A' for Active; 'I' for Inactive)
REMARK    1  A    between atoms: C1_1  and  O1_2
REMARK    2  A    between atoms: O1_2  and  C2_3
REMARK    3  A    between atoms: C5_6  and  O2_9
REMARK    4  A    between atoms: O2_9  and  C8_10
REMARK    5  A    between atoms: C9_11  and  O6_22
REMARK    6  A    between atoms: C14_17  and  O5_21
REMARK                            x       y       z     vdW  Elec       q    Type
REMARK                         _______ _______ _______ _____ _____    ______ ____
ROOT
ATOM      8  C   UNL     1      43.993  18.764  20.865  0.00  0.00    +0.290 A 
ATOM      9  C   UNL     1      42.904  18.096  21.331  0.00  0.00    -0.098 A 
ATOM     12  C   UNL     1      41.609  18.568  21.017  0.00  0.00    +0.412 A 
ATOM     13  C   UNL     1      41.513  19.782  20.186  0.00  0.00    -0.230 A 
ATOM     14  C   UNL     1      40.276  20.319  19.828  0.00  0.00    +0.144 A 
ATOM     15  C   UNL     1      40.224  21.446  19.057  0.00  0.00    -0.024 A 
ATOM     16  C   UNL     1      41.398  22.060  18.628  0.00  0.00    +0.179 A 
ATOM     19  C   UNL     1      42.634  21.538  18.974  0.00  0.00    -0.017 A 
ATOM     20  C   UNL     1      42.703  20.395  19.758  0.00  0.00    +0.176 A 
ATOM     21  O   UNL     1      40.609  17.993  21.419  0.00  0.00    -0.467 OA
ATOM     22  O   UNL     1      43.893  19.870  20.114  0.00  0.00    -0.229 OA
ENDROOT
BRANCH   9  10
ATOM     10  O   UNL     1      43.060  16.978  22.096  0.00  0.00    -0.452 OA
ATOM     11  H   UNL     1      42.307  16.372  22.064  0.00  0.00    +0.406 HD
ENDBRANCH   9  10
BRANCH  16  17
ATOM     17  O   UNL     1      41.332  23.179  17.861  0.00  0.00    -0.489 OA
ATOM     18  H   UNL     1      40.442  23.549  17.782  0.00  0.00    +0.403 HD
ENDBRANCH  16  17
BRANCH   8   7
ATOM      7  O   UNL     1      45.222  18.298  21.175  0.00  0.00    -0.189 OA
BRANCH   7   6
ATOM      3  C   UNL     1      47.795  17.398  18.075  0.00  0.00    +0.143 A 
ATOM      4  C   UNL     1      46.625  16.668  18.240  0.00  0.00    -0.057 A 
ATOM      5  C   UNL     1      45.765  16.970  19.278  0.00  0.00    +0.062 A 
ATOM      6  C   UNL     1      46.069  18.001  20.154  0.00  0.00    +0.017 A 
ATOM     23  C   UNL     1      47.238  18.730  19.989  0.00  0.00    +0.078 A 
ATOM     24  C   UNL     1      48.101  18.425  18.955  0.00  0.00    +0.006 A 
BRANCH   3   2
ATOM      1  C   UNL     1      49.983  17.582  17.162  0.00  0.00    +0.246 C 
ATOM      2  O   UNL     1      48.642  17.100  17.054  0.00  0.00    -0.312 OA
ENDBRANCH   3   2
ENDBRANCH   7   6
ENDBRANCH   8   7
TORSDOF 5
ENDMDL
MODEL 6
REMARK VINA RESULT:      -5.5      3.130      7.135
REMARK  Name = ZINC95486297
REMARK  6 active torsions:
REMARK  status: ('A' for Active; 'I' for Inactive)
REMARK    1  A    between atoms: C1_1  and  O1_2
REMARK    2  A    between atoms: O1_2  and  C2_3
REMARK    3  A    between atoms: C5_6  and  O2_9
REMARK    4  A    between atoms: O2_9  and  C8_10
REMARK    5  A    between atoms: C9_11  and  O6_22
REMARK    6  A    between atoms: C14_17  and  O5_21
REMARK                            x       y       z     vdW  Elec       q    Type
REMARK                         _______ _______ _______ _____ _____    ______ ____
ROOT
ATOM      8  C   UNL     1      46.534  18.971  20.074  0.00  0.00    +0.290 A 
ATOM      9  C   UNL     1      46.609  17.783  19.417  0.00  0.00    -0.098 A 
ATOM     12  C   UNL     1      47.726  17.508  18.595  0.00  0.00    +0.412 A 
ATOM     13  C   UNL     1      48.766  18.548  18.497  0.00  0.00    -0.230 A 
ATOM     14  C   UNL     1      49.902  18.365  17.709  0.00  0.00    +0.144 A 
ATOM     15  C   UNL     1      50.847  19.350  17.640  0.00  0.00    -0.024 A 
ATOM     16  C   UNL     1      50.680  20.535  18.352  0.00  0.00    +0.179 A 
ATOM     19  C   UNL     1      49.557  20.732  19.139  0.00  0.00    -0.017 A 
ATOM     20  C   UNL     1      48.589  19.741  19.218  0.00  0.00    +0.176 A 
ATOM     21  O   UNL     1      47.824  16.452  17.991  0.00  0.00    -0.467 OA
ATOM     22  O   UNL     1      47.484  19.912  19.973  0.00  0.00    -0.229 OA
ENDROOT
BRANCH   9  10
ATOM     10  O   UNL     1      45.612  16.861  19.550  0.00  0.00    -0.452 OA
ATOM     11  H   UNL     1      45.902  16.020  19.928  0.00  0.00    +0.406 HD
ENDBRANCH   9  10
BRANCH  16  17
ATOM     17  O   UNL     1      51.626  21.506  18.275  0.00  0.00    -0.489 OA
ATOM     18  H   UNL     1      52.104  21.656  19.102  0.00  0.00    +0.403 HD
ENDBRANCH  16  17
BRANCH   8   7
ATOM      7  O   UNL     1      45.459  19.215  20.854  0.00  0.00    -0.189 OA
BRANCH   7   6
ATOM      3  C   UNL     1      42.364  21.428  19.253  0.00  0.00    +0.143 A 
ATOM      4  C   UNL     1      42.220  20.059  19.426  0.00  0.00    -0.057 A 
ATOM      5  C   UNL     1      43.256  19.318  19.962  0.00  0.00    +0.062 A 
ATOM      6  C   UNL     1      44.439  19.944  20.327  0.00  0.00    +0.017 A 
ATOM     23  C   UNL     1      44.583  21.312  20.153  0.00  0.00    +0.078 A 
ATOM     24  C   UNL     1      43.550  22.051  19.612  0.00  0.00    +0.006 A 
BRANCH   3   2
ATOM      1  C   UNL     1      40.108  21.476  18.501  0.00  0.00    +0.246 C 
ATOM      2  O   UNL     1      41.345  22.157  18.724  0.00  0.00    -0.312 OA
ENDBRANCH   3   2
ENDBRANCH   7   6
ENDBRANCH   8   7
TORSDOF 5
ENDMDL
MODEL 7
REMARK VINA RESULT:      -5.4      2.105      3.871
REMARK  Name = ZINC95486297
REMARK  6 active torsions:
REMARK  status: ('A' for Active; 'I' for Inactive)
REMARK    1  A    between atoms: C1_1  and  O1_2
REMARK    2  A    between atoms: O1_2  and  C2_3
REMARK    3  A    between atoms: C5_6  and  O2_9
REMARK    4  A    between atoms: O2_9  and  C8_10
REMARK    5  A    between atoms: C9_11  and  O6_22
REMARK    6  A    between atoms: C14_17  and  O5_21
REMARK                            x       y       z     vdW  Elec       q    Type
REMARK                         _______ _______ _______ _____ _____    ______ ____
ROOT
ATOM      8  C   UNL     1      43.121  19.184  20.974  0.00  0.00    +0.290 A 
ATOM      9  C   UNL     1      42.368  19.731  19.983  0.00  0.00    -0.098 A 
ATOM     12  C   UNL     1      42.665  21.033  19.519  0.00  0.00    +0.412 A 
ATOM     13  C   UNL     1      43.797  21.736  20.151  0.00  0.00    -0.230 A 
ATOM     14  C   UNL     1      44.161  23.024  19.758  0.00  0.00    +0.144 A 
ATOM     15  C   UNL     1      45.216  23.645  20.365  0.00  0.00    -0.024 A 
ATOM     16  C   UNL     1      45.928  23.000  21.373  0.00  0.00    +0.179 A 
ATOM     19  C   UNL     1      45.579  21.721  21.774  0.00  0.00    -0.017 A 
ATOM     20  C   UNL     1      44.509  21.077  21.168  0.00  0.00    +0.176 A 
ATOM     21  O   UNL     1      42.009  21.556  18.632  0.00  0.00    -0.467 OA
ATOM     22  O   UNL     1      44.146  19.834  21.544  0.00  0.00    -0.229 OA
ENDROOT
BRANCH   9  10
ATOM     10  O   UNL     1      41.333  19.029  19.440  0.00  0.00    -0.452 OA
ATOM     11  H   UNL     1      41.122  19.281  18.531  0.00  0.00    +0.406 HD
ENDBRANCH   9  10
BRANCH  16  17
ATOM     17  O   UNL     1      46.974  23.630  21.968  0.00  0.00    -0.489 OA
ATOM     18  H   UNL     1      47.308  24.390  21.472  0.00  0.00    +0.403 HD
ENDBRANCH  16  17
BRANCH   8   7
ATOM      7  O   UNL     1      42.822  17.938  21.404  0.00  0.00    -0.189 OA
BRANCH   7   6
ATOM      3  C   UNL     1      45.826  15.106  21.383  0.00  0.00    +0.143 A 
ATOM      4  C   UNL     1      45.631  15.919  20.275  0.00  0.00    -0.057 A 
ATOM      5  C   UNL     1      44.626  16.867  20.282  0.00  0.00    +0.062 A 
ATOM      6  C   UNL     1      43.812  17.005  21.397  0.00  0.00    +0.017 A 
ATOM     23  C   UNL     1      44.006  16.193  22.504  0.00  0.00    +0.078 A 
ATOM     24  C   UNL     1      45.007  15.242  22.494  0.00  0.00    +0.006 A 
BRANCH   3   2
ATOM      1  C   UNL     1      46.724  13.123  22.341  0.00  0.00    +0.246 C 
ATOM      2  O   UNL     1      46.815  14.173  21.375  0.00  0.00    -0.312 OA
ENDBRANCH   3   2
ENDBRANCH   7   6
ENDBRANCH   8   7
TORSDOF 5
ENDMDL
MODEL 8
REMARK VINA RESULT:      -5.2      6.885      8.327
REMARK  Name = ZINC95486297
REMARK  6 active torsions:
REMARK  status: ('A' for Active; 'I' for Inactive)
REMARK    1  A    between atoms: C1_1  and  O1_2
REMARK    2  A    between atoms: O1_2  and  C2_3
REMARK    3  A    between atoms: C5_6  and  O2_9
REMARK    4  A    between atoms: O2_9  and  C8_10
REMARK    5  A    between atoms: C9_11  and  O6_22
REMARK    6  A    between atoms: C14_17  and  O5_21
REMARK                            x       y       z     vdW  Elec       q    Type
REMARK                         _______ _______ _______ _____ _____    ______ ____
ROOT
ATOM      8  C   UNL     1      51.700  16.098  17.064  0.00  0.00    +0.290 A 
ATOM      9  C   UNL     1      52.155  16.146  18.344  0.00  0.00    -0.098 A 
ATOM     12  C   UNL     1      52.457  17.395  18.932  0.00  0.00    +0.412 A 
ATOM     13  C   UNL     1      52.256  18.599  18.104  0.00  0.00    -0.230 A 
ATOM     14  C   UNL     1      52.529  19.874  18.600  0.00  0.00    +0.144 A 
ATOM     15  C   UNL     1      52.332  20.968  17.806  0.00  0.00    -0.024 A 
ATOM     16  C   UNL     1      51.861  20.816  16.504  0.00  0.00    +0.179 A 
ATOM     19  C   UNL     1      51.585  19.557  15.996  0.00  0.00    -0.017 A 
ATOM     20  C   UNL     1      51.782  18.436  16.791  0.00  0.00    +0.176 A 
ATOM     21  O   UNL     1      52.868  17.475  20.079  0.00  0.00    -0.467 OA
ATOM     22  O   UNL     1      51.526  17.199  16.319  0.00  0.00    -0.229 OA
ENDROOT
BRANCH   9  10
ATOM     10  O   UNL     1      52.319  14.995  19.057  0.00  0.00    -0.452 OA
ATOM     11  H   UNL     1      53.007  15.047  19.735  0.00  0.00    +0.406 HD
ENDBRANCH   9  10
BRANCH  16  17
ATOM     17  O   UNL     1      51.670  21.912  15.725  0.00  0.00    -0.489 OA
ATOM     18  H   UNL     1      51.980  21.807  14.815  0.00  0.00    +0.403 HD
ENDBRANCH  16  17
BRANCH   8   7
ATOM      7  O   UNL     1      51.417  14.894  16.519  0.00  0.00    -0.189 OA
BRANCH   7   6
ATOM      3  C   UNL     1      47.499  13.597  16.614  0.00  0.00    +0.143 A 
ATOM      4  C   UNL     1      48.439  12.910  15.859  0.00  0.00    -0.057 A 
ATOM      5  C   UNL     1      49.750  13.344  15.828  0.00  0.00    +0.062 A 
ATOM      6  C   UNL     1      50.126  14.467  16.550  0.00  0.00    +0.017 A 
ATOM     23  C   UNL     1      49.187  15.154  17.304  0.00  0.00    +0.078 A 
ATOM     24  C   UNL     1      47.875  14.723  17.332  0.00  0.00    +0.006 A 
BRANCH   3   2
ATOM      1  C   UNL     1      45.993  11.769  16.826  0.00  0.00    +0.246 C 
ATOM      2  O   UNL     1      46.209  13.170  16.645  0.00  0.00    -0.312 OA
ENDBRANCH   3   2
ENDBRANCH   7   6
ENDBRANCH   8   7
TORSDOF 5
ENDMDL
MODEL 9
REMARK VINA RESULT:      -5.2      3.607      5.044
REMARK  Name = ZINC95486297
REMARK  6 active torsions:
REMARK  status: ('A' for Active; 'I' for Inactive)
REMARK    1  A    between atoms: C1_1  and  O1_2
REMARK    2  A    between atoms: O1_2  and  C2_3
REMARK    3  A    between atoms: C5_6  and  O2_9
REMARK    4  A    between atoms: O2_9  and  C8_10
REMARK    5  A    between atoms: C9_11  and  O6_22
REMARK    6  A    between atoms: C14_17  and  O5_21
REMARK                            x       y       z     vdW  Elec       q    Type
REMARK                         _______ _______ _______ _____ _____    ______ ____
ROOT
ATOM      8  C   UNL     1      46.722  19.257  19.677  0.00  0.00    +0.290 A 
ATOM      9  C   UNL     1      45.581  18.943  19.007  0.00  0.00    -0.098 A 
ATOM     12  C   UNL     1      44.544  19.899  18.909  0.00  0.00    +0.412 A 
ATOM     13  C   UNL     1      44.766  21.207  19.553  0.00  0.00    -0.230 A 
ATOM     14  C   UNL     1      43.798  22.210  19.509  0.00  0.00    +0.144 A 
ATOM     15  C   UNL     1      44.036  23.410  20.117  0.00  0.00    -0.024 A 
ATOM     16  C   UNL     1      45.240  23.636  20.781  0.00  0.00    +0.179 A 
ATOM     19  C   UNL     1      46.211  22.650  20.833  0.00  0.00    -0.017 A 
ATOM     20  C   UNL     1      45.983  21.426  20.221  0.00  0.00    +0.176 A 
ATOM     21  O   UNL     1      43.506  19.651  18.316  0.00  0.00    -0.467 OA
ATOM     22  O   UNL     1      46.911  20.448  20.263  0.00  0.00    -0.229 OA
ENDROOT
BRANCH   9  10
ATOM     10  O   UNL     1      45.437  17.715  18.433  0.00  0.00    -0.452 OA
ATOM     11  H   UNL     1      45.705  17.681  17.504  0.00  0.00    +0.406 HD
ENDBRANCH   9  10
BRANCH  16  17
ATOM     17  O   UNL     1      45.463  24.834  21.380  0.00  0.00    -0.489 OA
ATOM     18  H   UNL     1      46.350  25.189  21.230  0.00  0.00    +0.403 HD
ENDBRANCH  16  17
BRANCH   8   7
ATOM      7  O   UNL     1      47.702  18.330  19.759  0.00  0.00    -0.189 OA
BRANCH   7   6
ATOM      3  C   UNL     1      50.882  18.632  17.145  0.00  0.00    +0.143 A 
ATOM      4  C   UNL     1      49.947  17.617  16.986  0.00  0.00    -0.057 A 
ATOM      5  C   UNL     1      48.883  17.517  17.861  0.00  0.00    +0.062 A 
ATOM      6  C   UNL     1      48.749  18.429  18.898  0.00  0.00    +0.017 A 
ATOM     23  C   UNL     1      49.683  19.442  19.057  0.00  0.00    +0.078 A 
ATOM     24  C   UNL     1      50.750  19.539  18.185  0.00  0.00    +0.006 A 
BRANCH   3   2
ATOM      1  C   UNL     1      52.214  20.026  15.753  0.00  0.00    +0.246 C 
ATOM      2  O   UNL     1      51.929  18.730  16.284  0.00  0.00    -0.312 OA
ENDBRANCH   3   2
ENDBRANCH   7   6
ENDBRANCH   8   7
TORSDOF 5
ENDMDL
