MODEL 1
REMARK VINA RESULT:      -6.8      0.000      0.000
REMARK  Name = ZINC14826756
REMARK  5 active torsions:
REMARK  status: ('A' for Active; 'I' for Inactive)
REMARK    1  A    between atoms: C1_1  and  O1_2
REMARK    2  A    between atoms: O1_2  and  C2_3
REMARK    3  A    between atoms: C7_8  and  O2_9
REMARK    4  A    between atoms: O2_9  and  C8_10
REMARK    5  A    between atoms: C17_22  and  O6_25
REMARK                            x       y       z     vdW  Elec       q    Type
REMARK                         _______ _______ _______ _____ _____    ______ ____
ROOT
ATOM      3  C   UNL     1      50.517  19.507  19.407  0.00  0.00    +0.184 A 
ATOM      4  C   UNL     1      50.068  20.741  18.946  0.00  0.00    -0.091 A 
ATOM      5  C   UNL     1      48.731  20.980  18.802  0.00  0.00    +0.161 A 
ATOM      6  C   UNL     1      47.808  19.977  19.113  0.00  0.00    -0.272 A 
ATOM      7  C   UNL     1      48.248  18.725  19.577  0.00  0.00    +0.204 A 
ATOM      8  O   UNL     1      47.365  17.740  19.893  0.00  0.00    -0.266 OA
ATOM      9  C   UNL     1      46.036  18.143  20.203  0.00  0.00    +0.173 C 
ATOM     10  C   UNL     1      45.095  16.959  20.405  0.00  0.00    +0.310 C 
ATOM     11  O   UNL     1      43.830  17.472  20.830  0.00  0.00    -0.295 OA
ATOM     12  C   UNL     1      43.307  18.558  20.197  0.00  0.00    +0.166 A 
ATOM     13  C   UNL     1      41.971  18.870  20.469  0.00  0.00    +0.023 A 
ATOM     14  C   UNL     1      41.429  19.986  19.854  0.00  0.00    +0.086 A 
ATOM     15  C   UNL     1      42.196  20.778  18.985  0.00  0.00    -0.005 A 
ATOM     16  O   UNL     1      41.429  21.797  18.533  0.00  0.00    -0.301 OA
ATOM     17  C   UNL     1      40.068  21.411  18.816  0.00  0.00    +0.437 C 
ATOM     18  C   UNL     1      43.518  20.463  18.712  0.00  0.00    +0.127 A 
ATOM     19  O   UNL     1      40.186  20.512  19.939  0.00  0.00    -0.299 OA
ATOM     20  C   UNL     1      44.058  19.339  19.331  0.00  0.00    -0.204 A 
ATOM     21  C   UNL     1      45.489  18.983  19.038  0.00  0.00    +0.115 C 
ATOM     24  C   UNL     1      46.361  20.219  18.955  0.00  0.00    +0.393 C 
ATOM     25  O   UNL     1      45.903  21.328  18.772  0.00  0.00    -0.418 OA
ATOM     26  C   UNL     1      49.612  18.497  19.717  0.00  0.00    +0.022 A 
ENDROOT
BRANCH   3   2
ATOM      1  C   UNL     1      52.636  19.279  18.357  0.00  0.00    +0.254 C 
ATOM      2  O   UNL     1      51.848  19.283  19.550  0.00  0.00    -0.295 OA
ENDBRANCH   3   2
BRANCH  21  22
ATOM     22  O   UNL     1      45.565  18.238  17.821  0.00  0.00    -0.514 OA
ATOM     23  H   UNL     1      44.818  17.643  17.676  0.00  0.00    +0.390 HD
ENDBRANCH  21  22
BRANCH  26  27
ATOM     27  O   UNL     1      50.060  17.292  20.162  0.00  0.00    -0.308 OA
ATOM     28  C   UNL     1      50.325  16.293  19.174  0.00  0.00    +0.224 C 
ENDBRANCH  26  27
TORSDOF 3
ENDMDL
MODEL 2
REMARK VINA RESULT:      -6.6      1.685      2.825
REMARK  Name = ZINC14826756
REMARK  5 active torsions:
REMARK  status: ('A' for Active; 'I' for Inactive)
REMARK    1  A    between atoms: C1_1  and  O1_2
REMARK    2  A    between atoms: O1_2  and  C2_3
REMARK    3  A    between atoms: C7_8  and  O2_9
REMARK    4  A    between atoms: O2_9  and  C8_10
REMARK    5  A    between atoms: C17_22  and  O6_25
REMARK                            x       y       z     vdW  Elec       q    Type
REMARK                         _______ _______ _______ _____ _____    ______ ____
ROOT
ATOM      3  C   UNL     1      50.382  18.808  18.965  0.00  0.00    +0.184 A 
ATOM      4  C   UNL     1      49.584  17.995  18.168  0.00  0.00    -0.091 A 
ATOM      5  C   UNL     1      48.233  18.192  18.115  0.00  0.00    +0.161 A 
ATOM      6  C   UNL     1      47.649  19.212  18.871  0.00  0.00    -0.272 A 
ATOM      7  C   UNL     1      48.445  20.039  19.683  0.00  0.00    +0.204 A 
ATOM      8  O   UNL     1      47.896  21.043  20.419  0.00  0.00    -0.266 OA
ATOM      9  C   UNL     1      46.630  21.534  19.993  0.00  0.00    +0.173 C 
ATOM     10  C   UNL     1      46.040  22.555  20.962  0.00  0.00    +0.310 C 
ATOM     11  O   UNL     1      44.840  23.070  20.380  0.00  0.00    -0.295 OA
ATOM     12  C   UNL     1      43.960  22.207  19.802  0.00  0.00    +0.166 A 
ATOM     13  C   UNL     1      42.697  22.712  19.474  0.00  0.00    +0.023 A 
ATOM     14  C   UNL     1      41.797  21.857  18.862  0.00  0.00    +0.086 A 
ATOM     15  C   UNL     1      42.140  20.525  18.580  0.00  0.00    -0.005 A 
ATOM     16  O   UNL     1      41.088  19.921  17.981  0.00  0.00    -0.301 OA
ATOM     17  C   UNL     1      39.953  20.770  18.248  0.00  0.00    +0.437 C 
ATOM     18  C   UNL     1      43.390  20.025  18.911  0.00  0.00    +0.127 A 
ATOM     19  O   UNL     1      40.531  22.078  18.440  0.00  0.00    -0.299 OA
ATOM     20  C   UNL     1      44.291  20.889  19.529  0.00  0.00    -0.204 A 
ATOM     21  C   UNL     1      45.647  20.356  19.899  0.00  0.00    +0.115 C 
ATOM     24  C   UNL     1      46.191  19.431  18.829  0.00  0.00    +0.393 C 
ATOM     25  O   UNL     1      45.477  18.908  17.998  0.00  0.00    -0.418 OA
ATOM     26  C   UNL     1      49.817  19.825  19.727  0.00  0.00    +0.022 A 
ENDROOT
BRANCH   3   2
ATOM      1  C   UNL     1      52.510  19.267  18.012  0.00  0.00    +0.254 C 
ATOM      2  O   UNL     1      51.724  18.605  19.006  0.00  0.00    -0.295 OA
ENDBRANCH   3   2
BRANCH  21  22
ATOM     22  O   UNL     1      45.576  19.678  21.155  0.00  0.00    -0.514 OA
ATOM     23  H   UNL     1      44.732  19.239  21.319  0.00  0.00    +0.390 HD
ENDBRANCH  21  22
BRANCH  26  27
ATOM     27  O   UNL     1      50.605  20.613  20.508  0.00  0.00    -0.308 OA
ATOM     28  C   UNL     1      50.843  20.168  21.846  0.00  0.00    +0.224 C 
ENDBRANCH  26  27
TORSDOF 3
ENDMDL
MODEL 3
REMARK VINA RESULT:      -6.3      3.689      6.965
REMARK  Name = ZINC14826756
REMARK  5 active torsions:
REMARK  status: ('A' for Active; 'I' for Inactive)
REMARK    1  A    between atoms: C1_1  and  O1_2
REMARK    2  A    between atoms: O1_2  and  C2_3
REMARK    3  A    between atoms: C7_8  and  O2_9
REMARK    4  A    between atoms: O2_9  and  C8_10
REMARK    5  A    between atoms: C17_22  and  O6_25
REMARK                            x       y       z     vdW  Elec       q    Type
REMARK                         _______ _______ _______ _____ _____    ______ ____
ROOT
ATOM      3  C   UNL     1      44.700  20.351  20.047  0.00  0.00    +0.184 A 
ATOM      4  C   UNL     1      45.223  20.491  18.765  0.00  0.00    -0.091 A 
ATOM      5  C   UNL     1      45.706  19.404  18.094  0.00  0.00    +0.161 A 
ATOM      6  C   UNL     1      45.681  18.145  18.701  0.00  0.00    -0.272 A 
ATOM      7  C   UNL     1      45.158  17.991  19.996  0.00  0.00    +0.204 A 
ATOM      8  O   UNL     1      45.117  16.772  20.600  0.00  0.00    -0.266 OA
ATOM      9  C   UNL     1      45.155  15.632  19.749  0.00  0.00    +0.173 C 
ATOM     10  C   UNL     1      45.247  14.322  20.527  0.00  0.00    +0.310 C 
ATOM     11  O   UNL     1      45.154  13.248  19.588  0.00  0.00    -0.295 OA
ATOM     12  C   UNL     1      45.867  13.314  18.430  0.00  0.00    +0.166 A 
ATOM     13  C   UNL     1      45.946  12.146  17.665  0.00  0.00    +0.023 A 
ATOM     14  C   UNL     1      46.646  12.200  16.471  0.00  0.00    +0.086 A 
ATOM     15  C   UNL     1      47.257  13.389  16.044  0.00  0.00    -0.005 A 
ATOM     16  O   UNL     1      47.862  13.166  14.854  0.00  0.00    -0.301 OA
ATOM     17  C   UNL     1      47.959  11.731  14.735  0.00  0.00    +0.437 C 
ATOM     18  C   UNL     1      47.182  14.544  16.806  0.00  0.00    +0.127 A 
ATOM     19  O   UNL     1      46.875  11.238  15.549  0.00  0.00    -0.299 OA
ATOM     20  C   UNL     1      46.479  14.484  18.007  0.00  0.00    -0.204 A 
ATOM     21  C   UNL     1      46.396  15.728  18.847  0.00  0.00    +0.115 C 
ATOM     24  C   UNL     1      46.207  16.963  17.990  0.00  0.00    +0.393 C 
ATOM     25  O   UNL     1      46.468  16.980  16.805  0.00  0.00    -0.418 OA
ATOM     26  C   UNL     1      44.672  19.106  20.666  0.00  0.00    +0.022 A 
ENDROOT
BRANCH   3   2
ATOM      1  C   UNL     1      43.977  22.611  19.921  0.00  0.00    +0.254 C 
ATOM      2  O   UNL     1      44.219  21.439  20.702  0.00  0.00    -0.295 OA
ENDBRANCH   3   2
BRANCH  21  22
ATOM     22  O   UNL     1      47.574  15.853  19.647  0.00  0.00    -0.514 OA
ATOM     23  H   UNL     1      47.812  16.766  19.857  0.00  0.00    +0.390 HD
ENDBRANCH  21  22
BRANCH  26  27
ATOM     27  O   UNL     1      44.164  18.980  21.922  0.00  0.00    -0.308 OA
ATOM     28  C   UNL     1      42.768  18.693  22.032  0.00  0.00    +0.224 C 
ENDBRANCH  26  27
TORSDOF 3
ENDMDL
MODEL 4
REMARK VINA RESULT:      -5.7      4.347      7.127
REMARK  Name = ZINC14826756
REMARK  5 active torsions:
REMARK  status: ('A' for Active; 'I' for Inactive)
REMARK    1  A    between atoms: C1_1  and  O1_2
REMARK    2  A    between atoms: O1_2  and  C2_3
REMARK    3  A    between atoms: C7_8  and  O2_9
REMARK    4  A    between atoms: O2_9  and  C8_10
REMARK    5  A    between atoms: C17_22  and  O6_25
REMARK                            x       y       z     vdW  Elec       q    Type
REMARK                         _______ _______ _______ _____ _____    ______ ____
ROOT
ATOM      3  C   UNL     1      51.492  20.487  18.679  0.00  0.00    +0.184 A 
ATOM      4  C   UNL     1      52.509  19.677  18.185  0.00  0.00    -0.091 A 
ATOM      5  C   UNL     1      52.237  18.406  17.764  0.00  0.00    +0.161 A 
ATOM      6  C   UNL     1      50.930  17.914  17.837  0.00  0.00    -0.272 A 
ATOM      7  C   UNL     1      49.895  18.721  18.338  0.00  0.00    +0.204 A 
ATOM      8  O   UNL     1      48.615  18.263  18.409  0.00  0.00    -0.266 OA
ATOM      9  C   UNL     1      48.272  17.182  17.550  0.00  0.00    +0.173 C 
ATOM     10  C   UNL     1      46.863  16.653  17.806  0.00  0.00    +0.310 C 
ATOM     11  O   UNL     1      46.580  15.662  16.815  0.00  0.00    -0.295 OA
ATOM     12  C   UNL     1      47.528  14.733  16.515  0.00  0.00    +0.166 A 
ATOM     13  C   UNL     1      47.126  13.643  15.736  0.00  0.00    +0.023 A 
ATOM     14  C   UNL     1      48.082  12.700  15.399  0.00  0.00    +0.086 A 
ATOM     15  C   UNL     1      49.412  12.834  15.827  0.00  0.00    -0.005 A 
ATOM     16  O   UNL     1      50.129  11.787  15.356  0.00  0.00    -0.301 OA
ATOM     17  C   UNL     1      49.154  10.797  14.965  0.00  0.00    +0.437 C 
ATOM     18  C   UNL     1      49.807  13.911  16.603  0.00  0.00    +0.127 A 
ATOM     19  O   UNL     1      47.972  11.569  14.665  0.00  0.00    -0.299 OA
ATOM     20  C   UNL     1      48.841  14.856  16.941  0.00  0.00    -0.204 A 
ATOM     21  C   UNL     1      49.256  16.026  17.790  0.00  0.00    +0.115 C 
ATOM     24  C   UNL     1      50.624  16.540  17.393  0.00  0.00    +0.393 C 
ATOM     25  O   UNL     1      51.412  15.871  16.757  0.00  0.00    -0.418 OA
ATOM     26  C   UNL     1      50.187  20.011  18.763  0.00  0.00    +0.022 A 
ENDROOT
BRANCH   3   2
ATOM      1  C   UNL     1      52.591  21.884  20.256  0.00  0.00    +0.254 C 
ATOM      2  O   UNL     1      51.774  21.749  19.091  0.00  0.00    -0.295 OA
ENDBRANCH   3   2
BRANCH  21  22
ATOM     22  O   UNL     1      49.245  15.653  19.170  0.00  0.00    -0.514 OA
ATOM     23  H   UNL     1      48.433  15.213  19.453  0.00  0.00    +0.390 HD
ENDBRANCH  21  22
BRANCH  26  27
ATOM     27  O   UNL     1      49.200  20.808  19.253  0.00  0.00    -0.308 OA
ATOM     28  C   UNL     1      48.961  20.753  20.661  0.00  0.00    +0.224 C 
ENDBRANCH  26  27
TORSDOF 3
ENDMDL
MODEL 5
REMARK VINA RESULT:      -5.5      2.926      7.296
REMARK  Name = ZINC14826756
REMARK  5 active torsions:
REMARK  status: ('A' for Active; 'I' for Inactive)
REMARK    1  A    between atoms: C1_1  and  O1_2
REMARK    2  A    between atoms: O1_2  and  C2_3
REMARK    3  A    between atoms: C7_8  and  O2_9
REMARK    4  A    between atoms: O2_9  and  C8_10
REMARK    5  A    between atoms: C17_22  and  O6_25
REMARK                            x       y       z     vdW  Elec       q    Type
REMARK                         _______ _______ _______ _____ _____    ______ ____
ROOT
ATOM      3  C   UNL     1      44.561  20.639  19.395  0.00  0.00    +0.184 A 
ATOM      4  C   UNL     1      45.733  21.033  18.756  0.00  0.00    -0.091 A 
ATOM      5  C   UNL     1      46.660  20.103  18.380  0.00  0.00    +0.161 A 
ATOM      6  C   UNL     1      46.434  18.749  18.644  0.00  0.00    -0.272 A 
ATOM      7  C   UNL     1      45.256  18.339  19.292  0.00  0.00    +0.204 A 
ATOM      8  O   UNL     1      45.014  17.025  19.550  0.00  0.00    -0.266 OA
ATOM      9  C   UNL     1      45.709  16.075  18.751  0.00  0.00    +0.173 C 
ATOM     10  C   UNL     1      45.477  14.638  19.212  0.00  0.00    +0.310 C 
ATOM     11  O   UNL     1      46.115  13.768  18.273  0.00  0.00    -0.295 OA
ATOM     12  C   UNL     1      47.369  14.067  17.837  0.00  0.00    +0.166 A 
ATOM     13  C   UNL     1      48.048  13.073  17.125  0.00  0.00    +0.023 A 
ATOM     14  C   UNL     1      49.316  13.367  16.652  0.00  0.00    +0.086 A 
ATOM     15  C   UNL     1      49.900  14.622  16.879  0.00  0.00    -0.005 A 
ATOM     16  O   UNL     1      51.127  14.643  16.308  0.00  0.00    -0.301 OA
ATOM     17  C   UNL     1      51.461  13.260  16.065  0.00  0.00    +0.437 C 
ATOM     18  C   UNL     1      49.228  15.604  17.589  0.00  0.00    +0.127 A 
ATOM     19  O   UNL     1      50.181  12.606  15.943  0.00  0.00    -0.299 OA
ATOM     20  C   UNL     1      47.954  15.303  18.066  0.00  0.00    -0.204 A 
ATOM     21  C   UNL     1      47.217  16.357  18.844  0.00  0.00    +0.115 C 
ATOM     24  C   UNL     1      47.431  17.735  18.250  0.00  0.00    +0.393 C 
ATOM     25  O   UNL     1      48.355  17.986  17.505  0.00  0.00    -0.418 OA
ATOM     26  C   UNL     1      44.323  19.297  19.669  0.00  0.00    +0.022 A 
ENDROOT
BRANCH   3   2
ATOM      1  C   UNL     1      44.106  22.920  19.881  0.00  0.00    +0.254 C 
ATOM      2  O   UNL     1      43.645  21.572  19.760  0.00  0.00    -0.295 OA
ENDBRANCH   3   2
BRANCH  21  22
ATOM     22  O   UNL     1      47.635  16.334  20.210  0.00  0.00    -0.514 OA
ATOM     23  H   UNL     1      48.574  16.143  20.332  0.00  0.00    +0.390 HD
ENDBRANCH  21  22
BRANCH  26  27
ATOM     27  O   UNL     1      43.177  18.921  20.299  0.00  0.00    -0.308 OA
ATOM     28  C   UNL     1      43.202  18.892  21.728  0.00  0.00    +0.224 C 
ENDBRANCH  26  27
TORSDOF 3
ENDMDL
MODEL 6
REMARK VINA RESULT:      -5.5      1.765      3.055
REMARK  Name = ZINC14826756
REMARK  5 active torsions:
REMARK  status: ('A' for Active; 'I' for Inactive)
REMARK    1  A    between atoms: C1_1  and  O1_2
REMARK    2  A    between atoms: O1_2  and  C2_3
REMARK    3  A    between atoms: C7_8  and  O2_9
REMARK    4  A    between atoms: O2_9  and  C8_10
REMARK    5  A    between atoms: C17_22  and  O6_25
REMARK                            x       y       z     vdW  Elec       q    Type
REMARK                         _______ _______ _______ _____ _____    ______ ____
ROOT
ATOM      3  C   UNL     1      51.161  17.137  18.461  0.00  0.00    +0.184 A 
ATOM      4  C   UNL     1      50.170  16.622  17.631  0.00  0.00    -0.091 A 
ATOM      5  C   UNL     1      48.887  17.084  17.718  0.00  0.00    +0.161 A 
ATOM      6  C   UNL     1      48.566  18.074  18.652  0.00  0.00    -0.272 A 
ATOM      7  C   UNL     1      49.558  18.599  19.499  0.00  0.00    +0.204 A 
ATOM      8  O   UNL     1      49.267  19.569  20.408  0.00  0.00    -0.266 OA
ATOM      9  C   UNL     1      48.107  20.355  20.159  0.00  0.00    +0.173 C 
ATOM     10  C   UNL     1      47.792  21.315  21.303  0.00  0.00    +0.310 C 
ATOM     11  O   UNL     1      46.692  22.134  20.898  0.00  0.00    -0.295 OA
ATOM     12  C   UNL     1      45.624  21.555  20.284  0.00  0.00    +0.166 A 
ATOM     13  C   UNL     1      44.475  22.339  20.134  0.00  0.00    +0.023 A 
ATOM     14  C   UNL     1      43.387  21.776  19.489  0.00  0.00    +0.086 A 
ATOM     15  C   UNL     1      43.435  20.461  19.003  0.00  0.00    -0.005 A 
ATOM     16  O   UNL     1      42.250  20.169  18.417  0.00  0.00    -0.301 OA
ATOM     17  C   UNL     1      41.329  21.173  18.891  0.00  0.00    +0.437 C 
ATOM     18  C   UNL     1      44.572  19.684  19.157  0.00  0.00    +0.127 A 
ATOM     19  O   UNL     1      42.172  22.300  19.209  0.00  0.00    -0.299 OA
ATOM     20  C   UNL     1      45.663  20.253  19.808  0.00  0.00    -0.204 A 
ATOM     21  C   UNL     1      46.900  19.418  19.989  0.00  0.00    +0.115 C 
ATOM     24  C   UNL     1      47.184  18.576  18.762  0.00  0.00    +0.393 C 
ATOM     25  O   UNL     1      46.334  18.331  17.930  0.00  0.00    -0.418 OA
ATOM     26  C   UNL     1      50.857  18.119  19.398  0.00  0.00    +0.022 A 
ENDROOT
BRANCH   3   2
ATOM      1  C   UNL     1      52.688  15.364  18.878  0.00  0.00    +0.254 C 
ATOM      2  O   UNL     1      52.433  16.673  18.362  0.00  0.00    -0.295 OA
ENDBRANCH   3   2
BRANCH  21  22
ATOM     22  O   UNL     1      46.761  18.586  21.143  0.00  0.00    -0.514 OA
ATOM     23  H   UNL     1      46.613  17.653  20.940  0.00  0.00    +0.390 HD
ENDBRANCH  21  22
BRANCH  26  27
ATOM     27  O   UNL     1      51.832  18.612  20.210  0.00  0.00    -0.308 OA
ATOM     28  C   UNL     1      52.027  17.953  21.463  0.00  0.00    +0.224 C 
ENDBRANCH  26  27
TORSDOF 3
ENDMDL
MODEL 7
REMARK VINA RESULT:      -5.3      3.266      5.371
REMARK  Name = ZINC14826756
REMARK  5 active torsions:
REMARK  status: ('A' for Active; 'I' for Inactive)
REMARK    1  A    between atoms: C1_1  and  O1_2
REMARK    2  A    between atoms: O1_2  and  C2_3
REMARK    3  A    between atoms: C7_8  and  O2_9
REMARK    4  A    between atoms: O2_9  and  C8_10
REMARK    5  A    between atoms: C17_22  and  O6_25
REMARK                            x       y       z     vdW  Elec       q    Type
REMARK                         _______ _______ _______ _____ _____    ______ ____
ROOT
ATOM      3  C   UNL     1      49.456  13.065  15.846  0.00  0.00    +0.184 A 
ATOM      4  C   UNL     1      48.086  13.130  15.613  0.00  0.00    -0.091 A 
ATOM      5  C   UNL     1      47.346  14.158  16.127  0.00  0.00    +0.161 A 
ATOM      6  C   UNL     1      47.968  15.145  16.897  0.00  0.00    -0.272 A 
ATOM      7  C   UNL     1      49.351  15.089  17.142  0.00  0.00    +0.204 A 
ATOM      8  O   UNL     1      49.976  16.045  17.881  0.00  0.00    -0.266 OA
ATOM      9  C   UNL     1      49.325  17.306  17.982  0.00  0.00    +0.173 C 
ATOM     10  C   UNL     1      50.033  18.257  18.943  0.00  0.00    +0.310 C 
ATOM     11  O   UNL     1      49.372  19.523  18.874  0.00  0.00    -0.295 OA
ATOM     12  C   UNL     1      48.011  19.563  18.877  0.00  0.00    +0.166 A 
ATOM     13  C   UNL     1      47.413  20.814  19.062  0.00  0.00    +0.023 A 
ATOM     14  C   UNL     1      46.030  20.878  19.044  0.00  0.00    +0.086 A 
ATOM     15  C   UNL     1      45.254  19.725  18.848  0.00  0.00    -0.005 A 
ATOM     16  O   UNL     1      43.945  20.071  18.869  0.00  0.00    -0.301 OA
ATOM     17  C   UNL     1      43.903  21.381  19.473  0.00  0.00    +0.437 C 
ATOM     18  C   UNL     1      45.849  18.486  18.671  0.00  0.00    +0.127 A 
ATOM     19  O   UNL     1      45.203  21.939  19.190  0.00  0.00    -0.299 OA
ATOM     20  C   UNL     1      47.240  18.426  18.692  0.00  0.00    -0.204 A 
ATOM     21  C   UNL     1      47.897  17.086  18.509  0.00  0.00    +0.115 C 
ATOM     24  C   UNL     1      47.180  16.256  17.464  0.00  0.00    +0.393 C 
ATOM     25  O   UNL     1      46.040  16.487  17.119  0.00  0.00    -0.418 OA
ATOM     26  C   UNL     1      50.090  14.037  16.613  0.00  0.00    +0.022 A 
ENDROOT
BRANCH   3   2
ATOM      1  C   UNL     1      50.491  12.109  13.932  0.00  0.00    +0.254 C 
ATOM      2  O   UNL     1      50.181  12.042  15.326  0.00  0.00    -0.295 OA
ENDBRANCH   3   2
BRANCH  21  22
ATOM     22  O   UNL     1      47.938  16.390  19.756  0.00  0.00    -0.514 OA
ATOM     23  H   UNL     1      48.419  15.553  19.724  0.00  0.00    +0.390 HD
ENDBRANCH  21  22
BRANCH  26  27
ATOM     27  O   UNL     1      51.429  13.962  16.841  0.00  0.00    -0.308 OA
ATOM     28  C   UNL     1      51.851  13.239  17.999  0.00  0.00    +0.224 C 
ENDBRANCH  26  27
TORSDOF 3
ENDMDL
MODEL 8
REMARK VINA RESULT:      -5.3      3.583      7.293
REMARK  Name = ZINC14826756
REMARK  5 active torsions:
REMARK  status: ('A' for Active; 'I' for Inactive)
REMARK    1  A    between atoms: C1_1  and  O1_2
REMARK    2  A    between atoms: O1_2  and  C2_3
REMARK    3  A    between atoms: C7_8  and  O2_9
REMARK    4  A    between atoms: O2_9  and  C8_10
REMARK    5  A    between atoms: C17_22  and  O6_25
REMARK                            x       y       z     vdW  Elec       q    Type
REMARK                         _______ _______ _______ _____ _____    ______ ____
ROOT
ATOM      3  C   UNL     1      45.505  19.998  20.452  0.00  0.00    +0.184 A 
ATOM      4  C   UNL     1      44.584  18.957  20.500  0.00  0.00    -0.091 A 
ATOM      5  C   UNL     1      44.823  17.791  19.829  0.00  0.00    +0.161 A 
ATOM      6  C   UNL     1      45.997  17.646  19.084  0.00  0.00    -0.272 A 
ATOM      7  C   UNL     1      46.935  18.692  19.025  0.00  0.00    +0.204 A 
ATOM      8  O   UNL     1      48.087  18.566  18.313  0.00  0.00    -0.266 OA
ATOM      9  C   UNL     1      48.537  17.243  18.047  0.00  0.00    +0.173 C 
ATOM     10  C   UNL     1      49.754  17.210  17.127  0.00  0.00    +0.310 C 
ATOM     11  O   UNL     1      50.193  15.853  17.028  0.00  0.00    -0.295 OA
ATOM     12  C   UNL     1      49.270  14.869  16.845  0.00  0.00    +0.166 A 
ATOM     13  C   UNL     1      49.753  13.601  16.503  0.00  0.00    +0.023 A 
ATOM     14  C   UNL     1      48.831  12.581  16.337  0.00  0.00    +0.086 A 
ATOM     15  C   UNL     1      47.457  12.812  16.505  0.00  0.00    -0.005 A 
ATOM     16  O   UNL     1      46.790  11.654  16.291  0.00  0.00    -0.301 OA
ATOM     17  C   UNL     1      47.723  10.794  15.604  0.00  0.00    +0.437 C 
ATOM     18  C   UNL     1      46.981  14.070  16.838  0.00  0.00    +0.127 A 
ATOM     19  O   UNL     1      49.017  11.280  16.016  0.00  0.00    -0.299 OA
ATOM     20  C   UNL     1      47.911  15.094  17.001  0.00  0.00    -0.204 A 
ATOM     21  C   UNL     1      47.406  16.465  17.355  0.00  0.00    +0.115 C 
ATOM     24  C   UNL     1      46.265  16.396  18.349  0.00  0.00    +0.393 C 
ATOM     25  O   UNL     1      45.617  15.385  18.527  0.00  0.00    -0.418 OA
ATOM     26  C   UNL     1      46.677  19.872  19.712  0.00  0.00    +0.022 A 
ENDROOT
BRANCH   3   2
ATOM      1  C   UNL     1      44.373  22.087  20.507  0.00  0.00    +0.254 C 
ATOM      2  O   UNL     1      45.258  21.150  21.127  0.00  0.00    -0.295 OA
ENDBRANCH   3   2
BRANCH  21  22
ATOM     22  O   UNL     1      46.995  17.152  16.171  0.00  0.00    -0.514 OA
ATOM     23  H   UNL     1      46.284  17.791  16.313  0.00  0.00    +0.390 HD
ENDBRANCH  21  22
BRANCH  26  27
ATOM     27  O   UNL     1      47.569  20.897  19.667  0.00  0.00    -0.308 OA
ATOM     28  C   UNL     1      48.602  20.904  20.655  0.00  0.00    +0.224 C 
ENDBRANCH  26  27
TORSDOF 3
ENDMDL
MODEL 9
REMARK VINA RESULT:      -5.2      2.764      4.004
REMARK  Name = ZINC14826756
REMARK  5 active torsions:
REMARK  status: ('A' for Active; 'I' for Inactive)
REMARK    1  A    between atoms: C1_1  and  O1_2
REMARK    2  A    between atoms: O1_2  and  C2_3
REMARK    3  A    between atoms: C7_8  and  O2_9
REMARK    4  A    between atoms: O2_9  and  C8_10
REMARK    5  A    between atoms: C17_22  and  O6_25
REMARK                            x       y       z     vdW  Elec       q    Type
REMARK                         _______ _______ _______ _____ _____    ______ ____
ROOT
ATOM      3  C   UNL     1      50.566  14.946  16.900  0.00  0.00    +0.184 A 
ATOM      4  C   UNL     1      51.147  16.208  16.973  0.00  0.00    -0.091 A 
ATOM      5  C   UNL     1      50.441  17.265  17.474  0.00  0.00    +0.161 A 
ATOM      6  C   UNL     1      49.126  17.079  17.910  0.00  0.00    -0.272 A 
ATOM      7  C   UNL     1      48.527  15.810  17.839  0.00  0.00    +0.204 A 
ATOM      8  O   UNL     1      47.251  15.607  18.266  0.00  0.00    -0.266 OA
ATOM      9  C   UNL     1      46.729  16.547  19.198  0.00  0.00    +0.173 C 
ATOM     10  C   UNL     1      45.252  16.312  19.505  0.00  0.00    +0.310 C 
ATOM     11  O   UNL     1      44.868  17.226  20.535  0.00  0.00    -0.295 OA
ATOM     12  C   UNL     1      45.269  18.524  20.455  0.00  0.00    +0.166 A 
ATOM     13  C   UNL     1      44.669  19.430  21.335  0.00  0.00    +0.023 A 
ATOM     14  C   UNL     1      45.082  20.751  21.286  0.00  0.00    +0.086 A 
ATOM     15  C   UNL     1      46.070  21.167  20.381  0.00  0.00    -0.005 A 
ATOM     16  O   UNL     1      46.285  22.493  20.547  0.00  0.00    -0.301 OA
ATOM     17  C   UNL     1      45.145  22.977  21.288  0.00  0.00    +0.437 C 
ATOM     18  C   UNL     1      46.659  20.269  19.505  0.00  0.00    +0.127 A 
ATOM     19  O   UNL     1      44.680  21.819  22.013  0.00  0.00    -0.299 OA
ATOM     20  C   UNL     1      46.239  18.942  19.557  0.00  0.00    -0.204 A 
ATOM     21  C   UNL     1      46.865  17.959  18.607  0.00  0.00    +0.115 C 
ATOM     24  C   UNL     1      48.350  18.214  18.446  0.00  0.00    +0.393 C 
ATOM     25  O   UNL     1      48.864  19.274  18.736  0.00  0.00    -0.418 OA
ATOM     26  C   UNL     1      49.257  14.745  17.326  0.00  0.00    +0.022 A 
ENDROOT
BRANCH   3   2
ATOM      1  C   UNL     1      51.507  13.885  14.993  0.00  0.00    +0.254 C 
ATOM      2  O   UNL     1      51.279  13.902  16.405  0.00  0.00    -0.295 OA
ENDBRANCH   3   2
BRANCH  21  22
ATOM     22  O   UNL     1      46.209  18.023  17.339  0.00  0.00    -0.514 OA
ATOM     23  H   UNL     1      45.997  18.920  17.049  0.00  0.00    +0.390 HD
ENDBRANCH  21  22
BRANCH  26  27
ATOM     27  O   UNL     1      48.695  13.508  17.246  0.00  0.00    -0.308 OA
ATOM     28  C   UNL     1      47.983  13.195  16.047  0.00  0.00    +0.224 C 
ENDBRANCH  26  27
TORSDOF 3
ENDMDL
