MODEL 1
REMARK VINA RESULT:      -5.9      0.000      0.000
REMARK  Name = ZINC14683764
REMARK  11 active torsions:
REMARK  status: ('A' for Active; 'I' for Inactive)
REMARK    1  A    between atoms: C1_1  and  C2_2
REMARK    2  A    between atoms: C2_2  and  C23_28
REMARK    3  A    between atoms: C8_8  and  O4_25
REMARK    4  A    between atoms: C9_9  and  C12_13
REMARK    5  A    between atoms: C10_10  and  O1_11
REMARK    6  A    between atoms: O1_11  and  C11_12
REMARK    7  A    between atoms: C12_13  and  O3_23
REMARK    8  A    between atoms: C13_14  and  C14_15
REMARK    9  A    between atoms: C14_15  and  C15_17
REMARK   10  A    between atoms: O3_23  and  C21_24
REMARK   11  A    between atoms: O4_25  and  C22_26
REMARK                            x       y       z     vdW  Elec       q    Type
REMARK                         _______ _______ _______ _____ _____    ______ ____
ROOT
ATOM      1  C   UNL     1      40.835  18.898  21.468  0.00  0.00    +0.085 C 
ATOM      2  C   UNL     1      42.330  19.017  21.162  0.00  0.00    +0.148 C 
ATOM      3  C   UNL     1      43.057  19.543  22.402  0.00  0.00    +0.037 C 
ATOM      4  C   UNL     1      42.528  19.983  20.024  0.00  0.00    -0.056 C 
ATOM      5  C   UNL     1      43.579  19.854  19.217  0.00  0.00    +0.057 C 
ATOM      6  C   UNL     1      44.517  18.741  19.469  0.00  0.00    -0.193 A 
ATOM      7  C   UNL     1      44.094  17.684  20.294  0.00  0.00    +0.208 A 
ATOM      8  C   UNL     1      44.943  16.623  20.555  0.00  0.00    -0.098 A 
ATOM      9  C   UNL     1      46.214  16.597  20.003  0.00  0.00    +0.208 A 
ATOM     12  C   UNL     1      46.648  17.646  19.175  0.00  0.00    -0.199 A 
ATOM     25  C   UNL     1      45.791  18.726  18.909  0.00  0.00    +0.219 A 
ATOM     28  O   UNL     1      42.846  17.730  20.823  0.00  0.00    -0.299 OA
ENDROOT
BRANCH   9  10
ATOM     10  O   UNL     1      47.040  15.554  20.263  0.00  0.00    -0.301 OA
ATOM     11  C   UNL     1      46.469  14.245  20.212  0.00  0.00    +0.254 C 
ENDBRANCH   9  10
BRANCH  12  13
ATOM     13  C   UNL     1      47.996  17.614  18.592  0.00  0.00    +0.236 C 
ATOM     16  C   UNL     1      49.077  18.034  19.334  0.00  0.00    -0.115 C 
BRANCH  13  14
ATOM     14  O   UNL     1      48.175  17.173  17.328  0.00  0.00    -0.307 OA
ATOM     15  C   UNL     1      48.147  15.758  17.125  0.00  0.00    +0.238 C 
ENDBRANCH  13  14
BRANCH  16  17
ATOM     17  C   UNL     1      50.377  17.905  18.818  0.00  0.00    +0.421 C 
ATOM     24  O   UNL     1      51.071  16.958  19.147  0.00  0.00    -0.447 OA
BRANCH  17  18
ATOM     18  C   UNL     1      50.903  18.917  17.875  0.00  0.00    -0.155 A 
ATOM     19  C   UNL     1      51.485  18.519  16.671  0.00  0.00    +0.052 A 
ATOM     20  C   UNL     1      51.968  19.467  15.794  0.00  0.00    -0.005 A 
ATOM     21  C   UNL     1      51.887  20.812  16.111  0.00  0.00    +0.031 A 
ATOM     22  C   UNL     1      51.317  21.213  17.305  0.00  0.00    -0.004 A 
ATOM     23  C   UNL     1      50.825  20.275  18.188  0.00  0.00    +0.066 A 
ENDBRANCH  17  18
ENDBRANCH  16  17
ENDBRANCH  12  13
BRANCH  25  26
ATOM     26  O   UNL     1      46.200  19.744  18.111  0.00  0.00    -0.325 OA
ATOM     27  C   UNL     1      46.741  20.897  18.758  0.00  0.00    +0.245 C 
ENDBRANCH  25  26
TORSDOF 6
ENDMDL
MODEL 2
REMARK VINA RESULT:      -5.8      1.808      2.525
REMARK  Name = ZINC14683764
REMARK  11 active torsions:
REMARK  status: ('A' for Active; 'I' for Inactive)
REMARK    1  A    between atoms: C1_1  and  C2_2
REMARK    2  A    between atoms: C2_2  and  C23_28
REMARK    3  A    between atoms: C8_8  and  O4_25
REMARK    4  A    between atoms: C9_9  and  C12_13
REMARK    5  A    between atoms: C10_10  and  O1_11
REMARK    6  A    between atoms: O1_11  and  C11_12
REMARK    7  A    between atoms: C12_13  and  O3_23
REMARK    8  A    between atoms: C13_14  and  C14_15
REMARK    9  A    between atoms: C14_15  and  C15_17
REMARK   10  A    between atoms: O3_23  and  C21_24
REMARK   11  A    between atoms: O4_25  and  C22_26
REMARK                            x       y       z     vdW  Elec       q    Type
REMARK                         _______ _______ _______ _____ _____    ______ ____
ROOT
ATOM      1  C   UNL     1      40.704  18.816  21.578  0.00  0.00    +0.085 C 
ATOM      2  C   UNL     1      42.228  18.672  21.580  0.00  0.00    +0.148 C 
ATOM      3  C   UNL     1      42.600  17.273  22.076  0.00  0.00    +0.037 C 
ATOM      4  C   UNL     1      42.821  19.700  22.505  0.00  0.00    -0.056 C 
ATOM      5  C   UNL     1      44.049  20.167  22.284  0.00  0.00    +0.057 C 
ATOM      6  C   UNL     1      44.786  19.654  21.110  0.00  0.00    -0.193 A 
ATOM      7  C   UNL     1      44.061  18.990  20.104  0.00  0.00    +0.208 A 
ATOM      8  C   UNL     1      44.715  18.494  18.989  0.00  0.00    -0.098 A 
ATOM      9  C   UNL     1      46.085  18.652  18.858  0.00  0.00    +0.208 A 
ATOM     12  C   UNL     1      46.820  19.315  19.856  0.00  0.00    -0.199 A 
ATOM     25  C   UNL     1      46.162  19.818  20.990  0.00  0.00    +0.219 A 
ATOM     28  O   UNL     1      42.720  18.847  20.252  0.00  0.00    -0.299 OA
ENDROOT
BRANCH   9  10
ATOM     10  O   UNL     1      46.718  18.165  17.763  0.00  0.00    -0.301 OA
ATOM     11  C   UNL     1      46.336  16.861  17.318  0.00  0.00    +0.254 C 
ENDBRANCH   9  10
BRANCH  12  13
ATOM     13  C   UNL     1      48.273  19.479  19.713  0.00  0.00    +0.236 C 
ATOM     16  C   UNL     1      48.777  20.484  18.918  0.00  0.00    -0.115 C 
BRANCH  13  14
ATOM     14  O   UNL     1      49.114  18.644  20.361  0.00  0.00    -0.307 OA
ATOM     15  C   UNL     1      49.007  17.251  20.055  0.00  0.00    +0.238 C 
ENDBRANCH  13  14
BRANCH  16  17
ATOM     17  C   UNL     1      50.162  20.709  18.864  0.00  0.00    +0.421 C 
ATOM     24  O   UNL     1      50.729  21.241  19.802  0.00  0.00    -0.447 OA
BRANCH  17  18
ATOM     18  C   UNL     1      50.933  20.300  17.668  0.00  0.00    -0.155 A 
ATOM     19  C   UNL     1      51.115  18.947  17.380  0.00  0.00    +0.052 A 
ATOM     20  C   UNL     1      51.829  18.572  16.261  0.00  0.00    -0.005 A 
ATOM     21  C   UNL     1      52.374  19.535  15.430  0.00  0.00    +0.031 A 
ATOM     22  C   UNL     1      52.202  20.878  15.713  0.00  0.00    -0.004 A 
ATOM     23  C   UNL     1      51.485  21.266  16.826  0.00  0.00    +0.066 A 
ENDBRANCH  17  18
ENDBRANCH  16  17
ENDBRANCH  12  13
BRANCH  25  26
ATOM     26  O   UNL     1      46.862  20.459  21.959  0.00  0.00    -0.325 OA
ATOM     27  C   UNL     1      46.974  21.879  21.846  0.00  0.00    +0.245 C 
ENDBRANCH  25  26
TORSDOF 6
ENDMDL
MODEL 3
REMARK VINA RESULT:      -5.6      2.036      7.393
REMARK  Name = ZINC14683764
REMARK  11 active torsions:
REMARK  status: ('A' for Active; 'I' for Inactive)
REMARK    1  A    between atoms: C1_1  and  C2_2
REMARK    2  A    between atoms: C2_2  and  C23_28
REMARK    3  A    between atoms: C8_8  and  O4_25
REMARK    4  A    between atoms: C9_9  and  C12_13
REMARK    5  A    between atoms: C10_10  and  O1_11
REMARK    6  A    between atoms: O1_11  and  C11_12
REMARK    7  A    between atoms: C12_13  and  O3_23
REMARK    8  A    between atoms: C13_14  and  C14_15
REMARK    9  A    between atoms: C14_15  and  C15_17
REMARK   10  A    between atoms: O3_23  and  C21_24
REMARK   11  A    between atoms: O4_25  and  C22_26
REMARK                            x       y       z     vdW  Elec       q    Type
REMARK                         _______ _______ _______ _____ _____    ______ ____
ROOT
ATOM      1  C   UNL     1      50.504  14.069  16.186  0.00  0.00    +0.085 C 
ATOM      2  C   UNL     1      49.650  14.838  17.196  0.00  0.00    +0.148 C 
ATOM      3  C   UNL     1      50.091  14.467  18.614  0.00  0.00    +0.037 C 
ATOM      4  C   UNL     1      48.204  14.463  17.011  0.00  0.00    -0.056 C 
ATOM      5  C   UNL     1      47.245  15.333  17.322  0.00  0.00    +0.057 C 
ATOM      6  C   UNL     1      47.649  16.660  17.833  0.00  0.00    -0.193 A 
ATOM      7  C   UNL     1      48.979  17.073  17.641  0.00  0.00    +0.208 A 
ATOM      8  C   UNL     1      49.396  18.308  18.106  0.00  0.00    -0.098 A 
ATOM      9  C   UNL     1      48.505  19.143  18.760  0.00  0.00    +0.208 A 
ATOM     12  C   UNL     1      47.173  18.742  18.957  0.00  0.00    -0.199 A 
ATOM     25  C   UNL     1      46.744  17.489  18.489  0.00  0.00    +0.219 A 
ATOM     28  O   UNL     1      49.834  16.240  16.998  0.00  0.00    -0.299 OA
ENDROOT
BRANCH   9  10
ATOM     10  O   UNL     1      48.921  20.352  19.211  0.00  0.00    -0.301 OA
ATOM     11  C   UNL     1      50.094  20.902  18.608  0.00  0.00    +0.254 C 
ENDBRANCH   9  10
BRANCH  12  13
ATOM     13  C   UNL     1      46.231  19.631  19.651  0.00  0.00    +0.236 C 
ATOM     16  C   UNL     1      45.618  20.655  18.965  0.00  0.00    -0.115 C 
BRANCH  13  14
ATOM     14  O   UNL     1      45.968  19.443  20.963  0.00  0.00    -0.307 OA
ATOM     15  C   UNL     1      46.952  19.902  21.893  0.00  0.00    +0.238 C 
ENDBRANCH  13  14
BRANCH  16  17
ATOM     17  C   UNL     1      44.640  21.439  19.600  0.00  0.00    +0.421 C 
ATOM     24  O   UNL     1      44.974  22.352  20.334  0.00  0.00    -0.447 OA
BRANCH  17  18
ATOM     18  C   UNL     1      43.205  21.154  19.376  0.00  0.00    -0.155 A 
ATOM     19  C   UNL     1      42.343  22.173  18.967  0.00  0.00    +0.052 A 
ATOM     20  C   UNL     1      41.008  21.900  18.756  0.00  0.00    -0.005 A 
ATOM     21  C   UNL     1      40.520  20.622  18.959  0.00  0.00    +0.031 A 
ATOM     22  C   UNL     1      41.366  19.609  19.370  0.00  0.00    -0.004 A 
ATOM     23  C   UNL     1      42.705  19.867  19.580  0.00  0.00    +0.066 A 
ENDBRANCH  17  18
ENDBRANCH  16  17
ENDBRANCH  12  13
BRANCH  25  26
ATOM     26  O   UNL     1      45.461  17.092  18.673  0.00  0.00    -0.325 OA
ATOM     27  C   UNL     1      45.177  16.343  19.856  0.00  0.00    +0.245 C 
ENDBRANCH  25  26
TORSDOF 6
ENDMDL
MODEL 4
REMARK VINA RESULT:      -5.5      3.243      5.996
REMARK  Name = ZINC14683764
REMARK  11 active torsions:
REMARK  status: ('A' for Active; 'I' for Inactive)
REMARK    1  A    between atoms: C1_1  and  C2_2
REMARK    2  A    between atoms: C2_2  and  C23_28
REMARK    3  A    between atoms: C8_8  and  O4_25
REMARK    4  A    between atoms: C9_9  and  C12_13
REMARK    5  A    between atoms: C10_10  and  O1_11
REMARK    6  A    between atoms: O1_11  and  C11_12
REMARK    7  A    between atoms: C12_13  and  O3_23
REMARK    8  A    between atoms: C13_14  and  C14_15
REMARK    9  A    between atoms: C14_15  and  C15_17
REMARK   10  A    between atoms: O3_23  and  C21_24
REMARK   11  A    between atoms: O4_25  and  C22_26
REMARK                            x       y       z     vdW  Elec       q    Type
REMARK                         _______ _______ _______ _____ _____    ______ ____
ROOT
ATOM      1  C   UNL     1      45.199  10.301  15.964  0.00  0.00    +0.085 C 
ATOM      2  C   UNL     1      46.380  11.261  16.118  0.00  0.00    +0.148 C 
ATOM      3  C   UNL     1      47.090  11.406  14.770  0.00  0.00    +0.037 C 
ATOM      4  C   UNL     1      47.345  10.701  17.129  0.00  0.00    -0.056 C 
ATOM      5  C   UNL     1      48.110  11.522  17.847  0.00  0.00    +0.057 C 
ATOM      6  C   UNL     1      47.967  12.976  17.624  0.00  0.00    -0.193 A 
ATOM      7  C   UNL     1      46.822  13.441  16.953  0.00  0.00    +0.208 A 
ATOM      8  C   UNL     1      46.653  14.795  16.724  0.00  0.00    -0.098 A 
ATOM      9  C   UNL     1      47.608  15.699  17.158  0.00  0.00    +0.208 A 
ATOM     12  C   UNL     1      48.756  15.248  17.832  0.00  0.00    -0.199 A 
ATOM     25  C   UNL     1      48.935  13.874  18.064  0.00  0.00    +0.219 A 
ATOM     28  O   UNL     1      45.899  12.538  16.537  0.00  0.00    -0.299 OA
ENDROOT
BRANCH   9  10
ATOM     10  O   UNL     1      47.434  17.025  16.931  0.00  0.00    -0.301 OA
ATOM     11  C   UNL     1      46.405  17.680  17.675  0.00  0.00    +0.254 C 
ENDBRANCH   9  10
BRANCH  12  13
ATOM     13  C   UNL     1      49.767  16.210  18.289  0.00  0.00    +0.236 C 
ATOM     16  C   UNL     1      50.914  16.407  17.553  0.00  0.00    -0.115 C 
BRANCH  13  14
ATOM     14  O   UNL     1      49.571  16.903  19.433  0.00  0.00    -0.307 OA
ATOM     15  C   UNL     1      48.996  16.191  20.531  0.00  0.00    +0.238 C 
ENDBRANCH  13  14
BRANCH  16  17
ATOM     17  C   UNL     1      51.830  17.401  17.932  0.00  0.00    +0.421 C 
ATOM     24  O   UNL     1      52.717  17.141  18.728  0.00  0.00    -0.447 OA
BRANCH  17  18
ATOM     18  C   UNL     1      51.719  18.765  17.367  0.00  0.00    -0.155 A 
ATOM     19  C   UNL     1      51.957  18.982  16.009  0.00  0.00    +0.052 A 
ATOM     20  C   UNL     1      51.847  20.254  15.487  0.00  0.00    -0.005 A 
ATOM     21  C   UNL     1      51.511  21.315  16.308  0.00  0.00    +0.031 A 
ATOM     22  C   UNL     1      51.279  21.108  17.656  0.00  0.00    -0.004 A 
ATOM     23  C   UNL     1      51.381  19.840  18.189  0.00  0.00    +0.066 A 
ENDBRANCH  17  18
ENDBRANCH  16  17
ENDBRANCH  12  13
BRANCH  25  26
ATOM     26  O   UNL     1      50.039  13.428  18.714  0.00  0.00    -0.325 OA
ATOM     27  C   UNL     1      51.090  12.890  17.910  0.00  0.00    +0.245 C 
ENDBRANCH  25  26
TORSDOF 6
ENDMDL
MODEL 5
REMARK VINA RESULT:      -5.5      2.407      3.319
REMARK  Name = ZINC14683764
REMARK  11 active torsions:
REMARK  status: ('A' for Active; 'I' for Inactive)
REMARK    1  A    between atoms: C1_1  and  C2_2
REMARK    2  A    between atoms: C2_2  and  C23_28
REMARK    3  A    between atoms: C8_8  and  O4_25
REMARK    4  A    between atoms: C9_9  and  C12_13
REMARK    5  A    between atoms: C10_10  and  O1_11
REMARK    6  A    between atoms: O1_11  and  C11_12
REMARK    7  A    between atoms: C12_13  and  O3_23
REMARK    8  A    between atoms: C13_14  and  C14_15
REMARK    9  A    between atoms: C14_15  and  C15_17
REMARK   10  A    between atoms: O3_23  and  C21_24
REMARK   11  A    between atoms: O4_25  and  C22_26
REMARK                            x       y       z     vdW  Elec       q    Type
REMARK                         _______ _______ _______ _____ _____    ______ ____
ROOT
ATOM      1  C   UNL     1      39.591  21.058  18.103  0.00  0.00    +0.085 C 
ATOM      2  C   UNL     1      40.877  20.918  18.921  0.00  0.00    +0.148 C 
ATOM      3  C   UNL     1      40.544  20.296  20.279  0.00  0.00    +0.037 C 
ATOM      4  C   UNL     1      41.479  22.281  19.135  0.00  0.00    -0.056 C 
ATOM      5  C   UNL     1      42.796  22.411  19.293  0.00  0.00    +0.057 C 
ATOM      6  C   UNL     1      43.625  21.189  19.237  0.00  0.00    -0.193 A 
ATOM      7  C   UNL     1      43.065  20.025  18.684  0.00  0.00    +0.208 A 
ATOM      8  C   UNL     1      43.810  18.860  18.615  0.00  0.00    -0.098 A 
ATOM      9  C   UNL     1      45.111  18.837  19.090  0.00  0.00    +0.208 A 
ATOM     12  C   UNL     1      45.683  19.995  19.644  0.00  0.00    -0.199 A 
ATOM     25  C   UNL     1      44.931  21.179  19.718  0.00  0.00    +0.219 A 
ATOM     28  O   UNL     1      41.789  20.070  18.225  0.00  0.00    -0.299 OA
ENDROOT
BRANCH   9  10
ATOM     10  O   UNL     1      45.835  17.693  19.018  0.00  0.00    -0.301 OA
ATOM     11  C   UNL     1      46.234  17.258  17.716  0.00  0.00    +0.254 C 
ENDBRANCH   9  10
BRANCH  12  13
ATOM     13  C   UNL     1      47.063  19.966  20.146  0.00  0.00    +0.236 C 
ATOM     16  C   UNL     1      48.034  20.730  19.537  0.00  0.00    -0.115 C 
BRANCH  13  14
ATOM     14  O   UNL     1      47.381  19.188  21.204  0.00  0.00    -0.307 OA
ATOM     15  C   UNL     1      46.619  19.377  22.399  0.00  0.00    +0.238 C 
ENDBRANCH  13  14
BRANCH  16  17
ATOM     17  C   UNL     1      49.328  20.785  20.080  0.00  0.00    +0.421 C 
ATOM     24  O   UNL     1      49.493  21.179  21.222  0.00  0.00    -0.447 OA
BRANCH  17  18
ATOM     18  C   UNL     1      50.491  20.364  19.266  0.00  0.00    -0.155 A 
ATOM     19  C   UNL     1      51.282  19.290  19.676  0.00  0.00    +0.052 A 
ATOM     20  C   UNL     1      52.360  18.900  18.910  0.00  0.00    -0.005 A 
ATOM     21  C   UNL     1      52.666  19.578  17.743  0.00  0.00    +0.031 A 
ATOM     22  C   UNL     1      51.889  20.647  17.334  0.00  0.00    -0.004 A 
ATOM     23  C   UNL     1      50.805  21.044  18.089  0.00  0.00    +0.066 A 
ENDBRANCH  17  18
ENDBRANCH  16  17
ENDBRANCH  12  13
BRANCH  25  26
ATOM     26  O   UNL     1      45.474  22.302  20.251  0.00  0.00    -0.325 OA
ATOM     27  C   UNL     1      45.158  22.591  21.614  0.00  0.00    +0.245 C 
ENDBRANCH  25  26
TORSDOF 6
ENDMDL
MODEL 6
REMARK VINA RESULT:      -5.3      2.341      3.404
REMARK  Name = ZINC14683764
REMARK  11 active torsions:
REMARK  status: ('A' for Active; 'I' for Inactive)
REMARK    1  A    between atoms: C1_1  and  C2_2
REMARK    2  A    between atoms: C2_2  and  C23_28
REMARK    3  A    between atoms: C8_8  and  O4_25
REMARK    4  A    between atoms: C9_9  and  C12_13
REMARK    5  A    between atoms: C10_10  and  O1_11
REMARK    6  A    between atoms: O1_11  and  C11_12
REMARK    7  A    between atoms: C12_13  and  O3_23
REMARK    8  A    between atoms: C13_14  and  C14_15
REMARK    9  A    between atoms: C14_15  and  C15_17
REMARK   10  A    between atoms: O3_23  and  C21_24
REMARK   11  A    between atoms: O4_25  and  C22_26
REMARK                            x       y       z     vdW  Elec       q    Type
REMARK                         _______ _______ _______ _____ _____    ______ ____
ROOT
ATOM      1  C   UNL     1      40.996  20.694  18.357  0.00  0.00    +0.085 C 
ATOM      2  C   UNL     1      42.325  20.474  19.083  0.00  0.00    +0.148 C 
ATOM      3  C   UNL     1      42.109  19.501  20.245  0.00  0.00    +0.037 C 
ATOM      4  C   UNL     1      42.820  21.789  19.622  0.00  0.00    -0.056 C 
ATOM      5  C   UNL     1      44.126  21.997  19.777  0.00  0.00    +0.057 C 
ATOM      6  C   UNL     1      45.053  20.912  19.394  0.00  0.00    -0.193 A 
ATOM      7  C   UNL     1      44.568  19.876  18.576  0.00  0.00    +0.208 A 
ATOM      8  C   UNL     1      45.405  18.841  18.196  0.00  0.00    -0.098 A 
ATOM      9  C   UNL     1      46.723  18.821  18.619  0.00  0.00    +0.208 A 
ATOM     12  C   UNL     1      47.221  19.852  19.436  0.00  0.00    -0.199 A 
ATOM     25  C   UNL     1      46.376  20.903  19.826  0.00  0.00    +0.219 A 
ATOM     28  O   UNL     1      43.273  19.916  18.173  0.00  0.00    -0.299 OA
ENDROOT
BRANCH   9  10
ATOM     10  O   UNL     1      47.537  17.805  18.242  0.00  0.00    -0.301 OA
ATOM     11  C   UNL     1      47.293  17.218  16.962  0.00  0.00    +0.254 C 
ENDBRANCH   9  10
BRANCH  12  13
ATOM     13  C   UNL     1      48.620  19.826  19.882  0.00  0.00    +0.236 C 
ATOM     16  C   UNL     1      49.632  20.104  18.991  0.00  0.00    -0.115 C 
BRANCH  13  14
ATOM     14  O   UNL     1      48.914  19.528  21.167  0.00  0.00    -0.307 OA
ATOM     15  C   UNL     1      48.422  18.285  21.673  0.00  0.00    +0.238 C 
ENDBRANCH  13  14
BRANCH  16  17
ATOM     17  C   UNL     1      50.961  20.185  19.439  0.00  0.00    +0.421 C 
ATOM     24  O   UNL     1      51.457  21.272  19.680  0.00  0.00    -0.447 OA
BRANCH  17  18
ATOM     18  C   UNL     1      51.758  18.950  19.617  0.00  0.00    -0.155 A 
ATOM     19  C   UNL     1      52.117  18.181  18.509  0.00  0.00    +0.052 A 
ATOM     20  C   UNL     1      52.864  17.035  18.681  0.00  0.00    -0.005 A 
ATOM     21  C   UNL     1      53.249  16.641  19.950  0.00  0.00    +0.031 A 
ATOM     22  C   UNL     1      52.892  17.395  21.053  0.00  0.00    -0.004 A 
ATOM     23  C   UNL     1      52.149  18.546  20.894  0.00  0.00    +0.066 A 
ENDBRANCH  17  18
ENDBRANCH  16  17
ENDBRANCH  12  13
BRANCH  25  26
ATOM     26  O   UNL     1      46.845  21.902  20.614  0.00  0.00    -0.325 OA
ATOM     27  C   UNL     1      46.572  21.807  22.013  0.00  0.00    +0.245 C 
ENDBRANCH  25  26
TORSDOF 6
ENDMDL
MODEL 7
REMARK VINA RESULT:      -5.1      2.771      5.130
REMARK  Name = ZINC14683764
REMARK  11 active torsions:
REMARK  status: ('A' for Active; 'I' for Inactive)
REMARK    1  A    between atoms: C1_1  and  C2_2
REMARK    2  A    between atoms: C2_2  and  C23_28
REMARK    3  A    between atoms: C8_8  and  O4_25
REMARK    4  A    between atoms: C9_9  and  C12_13
REMARK    5  A    between atoms: C10_10  and  O1_11
REMARK    6  A    between atoms: O1_11  and  C11_12
REMARK    7  A    between atoms: C12_13  and  O3_23
REMARK    8  A    between atoms: C13_14  and  C14_15
REMARK    9  A    between atoms: C14_15  and  C15_17
REMARK   10  A    between atoms: O3_23  and  C21_24
REMARK   11  A    between atoms: O4_25  and  C22_26
REMARK                            x       y       z     vdW  Elec       q    Type
REMARK                         _______ _______ _______ _____ _____    ______ ____
ROOT
ATOM      1  C   UNL     1      44.304  20.901  20.875  0.00  0.00    +0.085 C 
ATOM      2  C   UNL     1      44.533  19.650  20.023  0.00  0.00    +0.148 C 
ATOM      3  C   UNL     1      43.860  19.838  18.662  0.00  0.00    +0.037 C 
ATOM      4  C   UNL     1      43.925  18.460  20.717  0.00  0.00    -0.056 C 
ATOM      5  C   UNL     1      44.432  17.244  20.522  0.00  0.00    +0.057 C 
ATOM      6  C   UNL     1      45.600  17.114  19.626  0.00  0.00    -0.193 A 
ATOM      7  C   UNL     1      46.331  18.272  19.307  0.00  0.00    +0.208 A 
ATOM      8  C   UNL     1      47.430  18.192  18.471  0.00  0.00    -0.098 A 
ATOM      9  C   UNL     1      47.817  16.970  17.945  0.00  0.00    +0.208 A 
ATOM     12  C   UNL     1      47.096  15.804  18.258  0.00  0.00    -0.199 A 
ATOM     25  C   UNL     1      45.978  15.880  19.104  0.00  0.00    +0.219 A 
ATOM     28  O   UNL     1      45.935  19.458  19.834  0.00  0.00    -0.299 OA
ENDROOT
BRANCH   9  10
ATOM     10  O   UNL     1      48.896  16.899  17.128  0.00  0.00    -0.301 OA
ATOM     11  C   UNL     1      50.018  17.719  17.461  0.00  0.00    +0.254 C 
ENDBRANCH   9  10
BRANCH  12  13
ATOM     13  C   UNL     1      47.510  14.511  17.698  0.00  0.00    +0.236 C 
ATOM     16  C   UNL     1      47.246  14.215  16.379  0.00  0.00    -0.115 C 
BRANCH  13  14
ATOM     14  O   UNL     1      48.149  13.611  18.477  0.00  0.00    -0.307 OA
ATOM     15  C   UNL     1      49.331  14.056  19.146  0.00  0.00    +0.238 C 
ENDBRANCH  13  14
BRANCH  16  17
ATOM     17  C   UNL     1      47.734  13.025  15.814  0.00  0.00    +0.421 C 
ATOM     24  O   UNL     1      47.128  11.981  15.978  0.00  0.00    -0.447 OA
BRANCH  17  18
ATOM     18  C   UNL     1      48.984  13.040  15.022  0.00  0.00    -0.155 A 
ATOM     19  C   UNL     1      50.206  13.300  15.644  0.00  0.00    +0.052 A 
ATOM     20  C   UNL     1      51.368  13.307  14.901  0.00  0.00    -0.005 A 
ATOM     21  C   UNL     1      51.323  13.067  13.539  0.00  0.00    +0.031 A 
ATOM     22  C   UNL     1      50.115  12.814  12.915  0.00  0.00    -0.004 A 
ATOM     23  C   UNL     1      48.946  12.799  13.648  0.00  0.00    +0.066 A 
ENDBRANCH  17  18
ENDBRANCH  16  17
ENDBRANCH  12  13
BRANCH  25  26
ATOM     26  O   UNL     1      45.275  14.762  19.412  0.00  0.00    -0.325 OA
ATOM     27  C   UNL     1      45.575  14.129  20.657  0.00  0.00    +0.245 C 
ENDBRANCH  25  26
TORSDOF 6
ENDMDL
MODEL 8
REMARK VINA RESULT:      -5.0      2.307      7.530
REMARK  Name = ZINC14683764
REMARK  11 active torsions:
REMARK  status: ('A' for Active; 'I' for Inactive)
REMARK    1  A    between atoms: C1_1  and  C2_2
REMARK    2  A    between atoms: C2_2  and  C23_28
REMARK    3  A    between atoms: C8_8  and  O4_25
REMARK    4  A    between atoms: C9_9  and  C12_13
REMARK    5  A    between atoms: C10_10  and  O1_11
REMARK    6  A    between atoms: O1_11  and  C11_12
REMARK    7  A    between atoms: C12_13  and  O3_23
REMARK    8  A    between atoms: C13_14  and  C14_15
REMARK    9  A    between atoms: C14_15  and  C15_17
REMARK   10  A    between atoms: O3_23  and  C21_24
REMARK   11  A    between atoms: O4_25  and  C22_26
REMARK                            x       y       z     vdW  Elec       q    Type
REMARK                         _______ _______ _______ _____ _____    ______ ____
ROOT
ATOM      1  C   UNL     1      48.361  10.989  15.174  0.00  0.00    +0.085 C 
ATOM      2  C   UNL     1      48.096  11.919  16.360  0.00  0.00    +0.148 C 
ATOM      3  C   UNL     1      49.122  11.637  17.460  0.00  0.00    +0.037 C 
ATOM      4  C   UNL     1      46.712  11.660  16.893  0.00  0.00    -0.056 C 
ATOM      5  C   UNL     1      46.037  12.638  17.496  0.00  0.00    +0.057 C 
ATOM      6  C   UNL     1      46.682  13.963  17.607  0.00  0.00    -0.193 A 
ATOM      7  C   UNL     1      47.792  14.236  16.788  0.00  0.00    +0.208 A 
ATOM      8  C   UNL     1      48.424  15.465  16.862  0.00  0.00    -0.098 A 
ATOM      9  C   UNL     1      47.965  16.431  17.742  0.00  0.00    +0.208 A 
ATOM     12  C   UNL     1      46.856  16.171  18.565  0.00  0.00    -0.199 A 
ATOM     25  C   UNL     1      46.212  14.925  18.495  0.00  0.00    +0.219 A 
ATOM     28  O   UNL     1      48.224  13.276  15.933  0.00  0.00    -0.299 OA
ENDROOT
BRANCH   9  10
ATOM     10  O   UNL     1      48.589  17.633  17.809  0.00  0.00    -0.301 OA
ATOM     11  C   UNL     1      49.988  17.623  18.101  0.00  0.00    +0.254 C 
ENDBRANCH   9  10
BRANCH  12  13
ATOM     13  C   UNL     1      46.373  17.199  19.497  0.00  0.00    +0.236 C 
ATOM     16  C   UNL     1      45.669  18.282  19.022  0.00  0.00    -0.115 C 
BRANCH  13  14
ATOM     14  O   UNL     1      46.621  17.081  20.820  0.00  0.00    -0.307 OA
ATOM     15  C   UNL     1      47.984  17.195  21.236  0.00  0.00    +0.238 C 
ENDBRANCH  13  14
BRANCH  16  17
ATOM     17  C   UNL     1      45.116  19.209  19.921  0.00  0.00    +0.421 C 
ATOM     24  O   UNL     1      45.817  20.083  20.401  0.00  0.00    -0.447 OA
BRANCH  17  18
ATOM     18  C   UNL     1      43.683  19.125  20.284  0.00  0.00    -0.155 A 
ATOM     19  C   UNL     1      43.288  18.416  21.419  0.00  0.00    +0.052 A 
ATOM     20  C   UNL     1      41.953  18.345  21.756  0.00  0.00    -0.005 A 
ATOM     21  C   UNL     1      41.004  18.967  20.964  0.00  0.00    +0.031 A 
ATOM     22  C   UNL     1      41.387  19.666  19.834  0.00  0.00    -0.004 A 
ATOM     23  C   UNL     1      42.721  19.749  19.490  0.00  0.00    +0.066 A 
ENDBRANCH  17  18
ENDBRANCH  16  17
ENDBRANCH  12  13
BRANCH  25  26
ATOM     26  O   UNL     1      45.140  14.662  19.284  0.00  0.00    -0.325 OA
ATOM     27  C   UNL     1      45.382  13.921  20.481  0.00  0.00    +0.245 C 
ENDBRANCH  25  26
TORSDOF 6
ENDMDL
MODEL 9
REMARK VINA RESULT:      -4.9      1.883      3.799
REMARK  Name = ZINC14683764
REMARK  11 active torsions:
REMARK  status: ('A' for Active; 'I' for Inactive)
REMARK    1  A    between atoms: C1_1  and  C2_2
REMARK    2  A    between atoms: C2_2  and  C23_28
REMARK    3  A    between atoms: C8_8  and  O4_25
REMARK    4  A    between atoms: C9_9  and  C12_13
REMARK    5  A    between atoms: C10_10  and  O1_11
REMARK    6  A    between atoms: O1_11  and  C11_12
REMARK    7  A    between atoms: C12_13  and  O3_23
REMARK    8  A    between atoms: C13_14  and  C14_15
REMARK    9  A    between atoms: C14_15  and  C15_17
REMARK   10  A    between atoms: O3_23  and  C21_24
REMARK   11  A    between atoms: O4_25  and  C22_26
REMARK                            x       y       z     vdW  Elec       q    Type
REMARK                         _______ _______ _______ _____ _____    ______ ____
ROOT
ATOM      1  C   UNL     1      39.835  21.524  19.127  0.00  0.00    +0.085 C 
ATOM      2  C   UNL     1      40.880  20.409  19.056  0.00  0.00    +0.148 C 
ATOM      3  C   UNL     1      40.732  19.663  17.728  0.00  0.00    +0.037 C 
ATOM      4  C   UNL     1      40.657  19.447  20.193  0.00  0.00    -0.056 C 
ATOM      5  C   UNL     1      41.682  18.759  20.694  0.00  0.00    +0.057 C 
ATOM      6  C   UNL     1      43.021  18.982  20.110  0.00  0.00    -0.193 A 
ATOM      7  C   UNL     1      43.224  20.129  19.323  0.00  0.00    +0.208 A 
ATOM      8  C   UNL     1      44.464  20.373  18.759  0.00  0.00    -0.098 A 
ATOM      9  C   UNL     1      45.510  19.490  18.968  0.00  0.00    +0.208 A 
ATOM     12  C   UNL     1      45.320  18.340  19.754  0.00  0.00    -0.199 A 
ATOM     25  C   UNL     1      44.064  18.087  20.328  0.00  0.00    +0.219 A 
ATOM     28  O   UNL     1      42.186  20.981  19.132  0.00  0.00    -0.299 OA
ENDROOT
BRANCH   9  10
ATOM     10  O   UNL     1      46.722  19.736  18.412  0.00  0.00    -0.301 OA
ATOM     11  C   UNL     1      47.510  20.771  19.005  0.00  0.00    +0.254 C 
ENDBRANCH   9  10
BRANCH  12  13
ATOM     13  C   UNL     1      46.432  17.406  19.973  0.00  0.00    +0.236 C 
ATOM     16  C   UNL     1      46.883  16.617  18.938  0.00  0.00    -0.115 C 
BRANCH  13  14
ATOM     14  O   UNL     1      47.013  17.321  21.190  0.00  0.00    -0.307 OA
ATOM     15  C   UNL     1      47.645  18.502  21.690  0.00  0.00    +0.238 C 
ENDBRANCH  13  14
BRANCH  16  17
ATOM     17  C   UNL     1      48.013  15.802  19.116  0.00  0.00    +0.421 C 
ATOM     24  O   UNL     1      47.910  14.738  19.703  0.00  0.00    -0.447 OA
BRANCH  17  18
ATOM     18  C   UNL     1      49.328  16.236  18.594  0.00  0.00    -0.155 A 
ATOM     19  C   UNL     1      50.259  15.289  18.165  0.00  0.00    +0.052 A 
ATOM     20  C   UNL     1      51.480  15.700  17.674  0.00  0.00    -0.005 A 
ATOM     21  C   UNL     1      51.788  17.047  17.616  0.00  0.00    +0.031 A 
ATOM     22  C   UNL     1      50.873  17.991  18.044  0.00  0.00    -0.004 A 
ATOM     23  C   UNL     1      49.645  17.593  18.533  0.00  0.00    +0.066 A 
ENDBRANCH  17  18
ENDBRANCH  16  17
ENDBRANCH  12  13
BRANCH  25  26
ATOM     26  O   UNL     1      43.869  16.981  21.088  0.00  0.00    -0.325 OA
ATOM     27  C   UNL     1      43.884  17.157  22.505  0.00  0.00    +0.245 C 
ENDBRANCH  25  26
TORSDOF 6
ENDMDL
