MODEL 1
REMARK VINA RESULT:      -6.5      0.000      0.000
REMARK  Name = ZINC26472270
REMARK  9 active torsions:
REMARK  status: ('A' for Active; 'I' for Inactive)
REMARK    1  A    between atoms: C1_1  and  C2_2
REMARK    2  A    between atoms: C2_2  and  C3_4
REMARK    3  A    between atoms: C6_8  and  C29_37
REMARK    4  A    between atoms: C12_17  and  C28_36
REMARK    5  A    between atoms: C15_20  and  O2_35
REMARK    6  A    between atoms: C16_22  and  C26_33
REMARK    7  A    between atoms: C16_22  and  C27_34
REMARK    8  A    between atoms: C20_27  and  C25_32
REMARK    9  A    between atoms: C21_28  and  C24_31
REMARK                            x       y       z     vdW  Elec       q    Type
REMARK                         _______ _______ _______ _____ _____    ______ ____
ROOT
ATOM      3  C   UNL     1      44.871  18.767  21.611  0.00  0.00    -0.038 C 
ATOM      4  C   UNL     1      45.080  20.249  22.029  0.00  0.00    +0.030 C 
ATOM      5  C   UNL     1      46.159  20.828  21.081  0.00  0.00    +0.017 C 
ATOM      6  C   UNL     1      46.874  19.576  20.558  0.00  0.00    -0.132 C 
ATOM     10  C   UNL     1      47.632  19.737  19.261  0.00  0.00    +0.003 C 
ATOM     11  C   UNL     1      48.169  18.366  18.824  0.00  0.00    +0.028 C 
ATOM     12  C   UNL     1      47.066  17.317  18.726  0.00  0.00    -0.013 C 
ATOM     13  C   UNL     1      46.164  17.722  17.554  0.00  0.00    -0.005 C 
ATOM     14  C   UNL     1      47.671  15.931  18.439  0.00  0.00    -0.026 C 
ATOM     15  C   UNL     1      48.567  15.566  19.634  0.00  0.00    +0.031 C 
ATOM     16  C   UNL     1      48.557  16.002  17.195  0.00  0.00    +0.009 C 
ATOM     17  C   UNL     1      49.061  14.596  16.831  0.00  0.00    +0.012 C 
ATOM     18  C   UNL     1      47.843  13.731  16.517  0.00  0.00    -0.002 C 
ATOM     19  C   UNL     1      48.192  12.467  15.764  0.00  0.00    -0.037 C 
ATOM     20  C   UNL     1      49.320  11.674  16.422  0.00  0.00    +0.033 C 
ATOM     21  C   UNL     1      48.690  12.871  14.353  0.00  0.00    +0.014 C 
ATOM     22  C   UNL     1      46.977  11.567  15.545  0.00  0.00    +0.165 C 
ATOM     25  C   UNL     1      46.137  11.401  16.804  0.00  0.00    -0.020 C 
ATOM     26  C   UNL     1      45.730  12.760  17.364  0.00  0.00    +0.014 C 
ATOM     27  C   UNL     1      46.993  13.546  17.767  0.00  0.00    -0.035 C 
ATOM     28  C   UNL     1      47.696  12.764  18.868  0.00  0.00    +0.026 C 
ATOM     29  C   UNL     1      46.544  14.926  18.254  0.00  0.00    -0.001 C 
ATOM     30  C   UNL     1      45.689  14.833  19.512  0.00  0.00    +0.004 C 
ATOM     31  C   UNL     1      45.109  16.212  19.851  0.00  0.00    -0.018 C 
ATOM     32  C   UNL     1      46.230  17.238  20.011  0.00  0.00    +0.042 C 
ATOM     33  C   UNL     1      45.684  18.614  20.321  0.00  0.00    +0.017 C 
ENDROOT
BRANCH   3   2
ATOM      1  C   UNL     1      42.733  19.184  20.164  0.00  0.00    +0.047 C 
ATOM      2  C   UNL     1      43.402  18.528  21.345  0.00  0.00    +0.361 C 
ATOM     34  O   UNL     1      42.764  17.812  22.079  0.00  0.00    -0.463 OA
ENDBRANCH   3   2
BRANCH   6   7
ATOM      7  C   UNL     1      47.791  19.077  21.644  0.00  0.00    +0.510 C 
ATOM      8  O   UNL     1      48.715  19.773  22.029  0.00  0.00    -0.679 OA
ATOM      9  O   UNL     1      47.609  17.977  22.137  0.00  0.00    -0.699 OA
ENDBRANCH   6   7
BRANCH  22  23
ATOM     23  O   UNL     1      47.430  10.277  15.109  0.00  0.00    -0.567 OA
ATOM     24  H   UNL     1      47.407  10.155  14.150  0.00  0.00    +0.371 HD
ENDBRANCH  22  23
TORSDOF 3
ENDMDL
MODEL 2
REMARK VINA RESULT:      -6.2      3.179      7.524
REMARK  Name = ZINC26472270
REMARK  9 active torsions:
REMARK  status: ('A' for Active; 'I' for Inactive)
REMARK    1  A    between atoms: C1_1  and  C2_2
REMARK    2  A    between atoms: C2_2  and  C3_4
REMARK    3  A    between atoms: C6_8  and  C29_37
REMARK    4  A    between atoms: C12_17  and  C28_36
REMARK    5  A    between atoms: C15_20  and  O2_35
REMARK    6  A    between atoms: C16_22  and  C26_33
REMARK    7  A    between atoms: C16_22  and  C27_34
REMARK    8  A    between atoms: C20_27  and  C25_32
REMARK    9  A    between atoms: C21_28  and  C24_31
REMARK                            x       y       z     vdW  Elec       q    Type
REMARK                         _______ _______ _______ _____ _____    ______ ____
ROOT
ATOM      3  C   UNL     1      51.992  18.272  18.982  0.00  0.00    -0.038 C 
ATOM      4  C   UNL     1      52.989  17.102  18.750  0.00  0.00    +0.030 C 
ATOM      5  C   UNL     1      52.135  15.845  18.452  0.00  0.00    +0.017 C 
ATOM      6  C   UNL     1      50.764  16.207  19.037  0.00  0.00    -0.132 C 
ATOM     10  C   UNL     1      49.584  15.435  18.494  0.00  0.00    +0.003 C 
ATOM     11  C   UNL     1      48.292  16.013  19.089  0.00  0.00    +0.028 C 
ATOM     12  C   UNL     1      48.164  17.514  18.848  0.00  0.00    -0.013 C 
ATOM     13  C   UNL     1      47.966  17.710  17.340  0.00  0.00    -0.005 C 
ATOM     14  C   UNL     1      46.940  18.073  19.593  0.00  0.00    -0.026 C 
ATOM     15  C   UNL     1      47.179  17.854  21.095  0.00  0.00    +0.031 C 
ATOM     16  C   UNL     1      45.691  17.284  19.199  0.00  0.00    +0.009 C 
ATOM     17  C   UNL     1      44.447  17.917  19.842  0.00  0.00    +0.012 C 
ATOM     18  C   UNL     1      44.318  19.340  19.304  0.00  0.00    -0.002 C 
ATOM     19  C   UNL     1      42.946  19.935  19.524  0.00  0.00    -0.037 C 
ATOM     20  C   UNL     1      42.469  19.811  20.971  0.00  0.00    +0.033 C 
ATOM     21  C   UNL     1      41.935  19.152  18.649  0.00  0.00    +0.014 C 
ATOM     22  C   UNL     1      42.864  21.392  19.070  0.00  0.00    +0.165 C 
ATOM     25  C   UNL     1      44.051  22.220  19.542  0.00  0.00    -0.020 C 
ATOM     26  C   UNL     1      45.364  21.575  19.112  0.00  0.00    +0.014 C 
ATOM     27  C   UNL     1      45.493  20.188  19.772  0.00  0.00    -0.035 C 
ATOM     28  C   UNL     1      45.530  20.393  21.280  0.00  0.00    +0.026 C 
ATOM     29  C   UNL     1      46.785  19.548  19.258  0.00  0.00    -0.001 C 
ATOM     30  C   UNL     1      48.018  20.334  19.689  0.00  0.00    +0.004 C 
ATOM     31  C   UNL     1      49.264  19.768  18.997  0.00  0.00    -0.018 C 
ATOM     32  C   UNL     1      49.415  18.279  19.302  0.00  0.00    +0.042 C 
ATOM     33  C   UNL     1      50.624  17.690  18.610  0.00  0.00    +0.017 C 
ENDROOT
BRANCH   3   2
ATOM      1  C   UNL     1      52.051  19.323  16.588  0.00  0.00    +0.047 C 
ATOM      2  C   UNL     1      52.349  19.418  18.062  0.00  0.00    +0.361 C 
ATOM     34  O   UNL     1      52.873  20.410  18.510  0.00  0.00    -0.463 OA
ENDBRANCH   3   2
BRANCH   6   7
ATOM      7  C   UNL     1      50.844  16.059  20.534  0.00  0.00    +0.510 C 
ATOM      8  O   UNL     1      50.663  17.026  21.253  0.00  0.00    -0.679 OA
ATOM      9  O   UNL     1      51.092  14.971  21.025  0.00  0.00    -0.699 OA
ENDBRANCH   6   7
BRANCH  22  23
ATOM     23  O   UNL     1      41.655  21.969  19.584  0.00  0.00    -0.567 OA
ATOM     24  H   UNL     1      40.885  21.841  19.013  0.00  0.00    +0.371 HD
ENDBRANCH  22  23
TORSDOF 3
ENDMDL
MODEL 3
REMARK VINA RESULT:      -6.2      4.117      7.494
REMARK  Name = ZINC26472270
REMARK  9 active torsions:
REMARK  status: ('A' for Active; 'I' for Inactive)
REMARK    1  A    between atoms: C1_1  and  C2_2
REMARK    2  A    between atoms: C2_2  and  C3_4
REMARK    3  A    between atoms: C6_8  and  C29_37
REMARK    4  A    between atoms: C12_17  and  C28_36
REMARK    5  A    between atoms: C15_20  and  O2_35
REMARK    6  A    between atoms: C16_22  and  C26_33
REMARK    7  A    between atoms: C16_22  and  C27_34
REMARK    8  A    between atoms: C20_27  and  C25_32
REMARK    9  A    between atoms: C21_28  and  C24_31
REMARK                            x       y       z     vdW  Elec       q    Type
REMARK                         _______ _______ _______ _____ _____    ______ ____
ROOT
ATOM      3  C   UNL     1      51.716  20.148  18.275  0.00  0.00    -0.038 C 
ATOM      4  C   UNL     1      53.122  19.494  18.383  0.00  0.00    +0.030 C 
ATOM      5  C   UNL     1      52.942  18.191  19.200  0.00  0.00    +0.017 C 
ATOM      6  C   UNL     1      51.624  18.426  19.949  0.00  0.00    -0.132 C 
ATOM     10  C   UNL     1      50.907  17.189  20.437  0.00  0.00    +0.003 C 
ATOM     11  C   UNL     1      49.557  17.601  21.042  0.00  0.00    +0.028 C 
ATOM     12  C   UNL     1      48.711  18.415  20.068  0.00  0.00    -0.013 C 
ATOM     13  C   UNL     1      48.305  17.473  18.928  0.00  0.00    -0.005 C 
ATOM     14  C   UNL     1      47.443  18.935  20.766  0.00  0.00    -0.026 C 
ATOM     15  C   UNL     1      47.895  19.871  21.899  0.00  0.00    +0.031 C 
ATOM     16  C   UNL     1      46.687  17.767  21.400  0.00  0.00    +0.009 C 
ATOM     17  C   UNL     1      45.356  18.262  21.989  0.00  0.00    +0.012 C 
ATOM     18  C   UNL     1      44.520  18.824  20.843  0.00  0.00    -0.002 C 
ATOM     19  C   UNL     1      43.056  18.971  21.193  0.00  0.00    -0.037 C 
ATOM     20  C   UNL     1      42.832  19.722  22.505  0.00  0.00    +0.033 C 
ATOM     21  C   UNL     1      42.462  17.552  21.380  0.00  0.00    +0.014 C 
ATOM     22  C   UNL     1      42.252  19.626  20.071  0.00  0.00    +0.165 C 
ATOM     25  C   UNL     1      42.943  20.855  19.496  0.00  0.00    -0.020 C 
ATOM     26  C   UNL     1      44.359  20.516  19.043  0.00  0.00    +0.014 C 
ATOM     27  C   UNL     1      45.190  20.060  20.258  0.00  0.00    -0.035 C 
ATOM     28  C   UNL     1      45.265  21.227  21.233  0.00  0.00    +0.026 C 
ATOM     29  C   UNL     1      46.577  19.662  19.748  0.00  0.00    -0.001 C 
ATOM     30  C   UNL     1      47.324  20.848  19.150  0.00  0.00    +0.004 C 
ATOM     31  C   UNL     1      48.620  20.366  18.485  0.00  0.00    -0.018 C 
ATOM     32  C   UNL     1      49.486  19.609  19.491  0.00  0.00    +0.042 C 
ATOM     33  C   UNL     1      50.760  19.100  18.854  0.00  0.00    +0.017 C 
ENDROOT
BRANCH   3   2
ATOM      1  C   UNL     1      51.444  19.277  15.824  0.00  0.00    +0.047 C 
ATOM      2  C   UNL     1      51.400  20.408  16.819  0.00  0.00    +0.361 C 
ATOM     34  O   UNL     1      51.113  21.523  16.454  0.00  0.00    -0.463 OA
ENDBRANCH   3   2
BRANCH   6   7
ATOM      7  C   UNL     1      51.903  19.359  21.097  0.00  0.00    +0.510 C 
ATOM      8  O   UNL     1      51.206  20.345  21.265  0.00  0.00    -0.679 OA
ATOM      9  O   UNL     1      52.827  19.129  21.859  0.00  0.00    -0.699 OA
ENDBRANCH   6   7
BRANCH  22  23
ATOM     23  O   UNL     1      40.967  20.006  20.584  0.00  0.00    -0.567 OA
ATOM     24  H   UNL     1      40.570  20.762  20.130  0.00  0.00    +0.371 HD
ENDBRANCH  22  23
TORSDOF 3
ENDMDL
MODEL 4
REMARK VINA RESULT:      -5.9      3.678      8.185
REMARK  Name = ZINC26472270
REMARK  9 active torsions:
REMARK  status: ('A' for Active; 'I' for Inactive)
REMARK    1  A    between atoms: C1_1  and  C2_2
REMARK    2  A    between atoms: C2_2  and  C3_4
REMARK    3  A    between atoms: C6_8  and  C29_37
REMARK    4  A    between atoms: C12_17  and  C28_36
REMARK    5  A    between atoms: C15_20  and  O2_35
REMARK    6  A    between atoms: C16_22  and  C26_33
REMARK    7  A    between atoms: C16_22  and  C27_34
REMARK    8  A    between atoms: C20_27  and  C25_32
REMARK    9  A    between atoms: C21_28  and  C24_31
REMARK                            x       y       z     vdW  Elec       q    Type
REMARK                         _______ _______ _______ _____ _____    ______ ____
ROOT
ATOM      3  C   UNL     1      49.382  11.519  15.982  0.00  0.00    -0.038 C 
ATOM      4  C   UNL     1      48.463  10.280  16.171  0.00  0.00    +0.030 C 
ATOM      5  C   UNL     1      47.461  10.639  17.296  0.00  0.00    +0.017 C 
ATOM      6  C   UNL     1      48.162  11.787  18.035  0.00  0.00    -0.132 C 
ATOM     10  C   UNL     1      47.271  12.691  18.855  0.00  0.00    +0.003 C 
ATOM     11  C   UNL     1      48.113  13.848  19.412  0.00  0.00    +0.028 C 
ATOM     12  C   UNL     1      48.854  14.605  18.315  0.00  0.00    -0.013 C 
ATOM     13  C   UNL     1      47.795  15.325  17.471  0.00  0.00    -0.005 C 
ATOM     14  C   UNL     1      49.801  15.650  18.932  0.00  0.00    -0.026 C 
ATOM     15  C   UNL     1      50.841  14.887  19.768  0.00  0.00    +0.031 C 
ATOM     16  C   UNL     1      49.018  16.560  19.878  0.00  0.00    +0.009 C 
ATOM     17  C   UNL     1      49.930  17.683  20.399  0.00  0.00    +0.012 C 
ATOM     18  C   UNL     1      50.391  18.503  19.197  0.00  0.00    -0.002 C 
ATOM     19  C   UNL     1      50.950  19.854  19.581  0.00  0.00    -0.037 C 
ATOM     20  C   UNL     1      52.015  19.769  20.675  0.00  0.00    +0.033 C 
ATOM     21  C   UNL     1      49.790  20.711  20.149  0.00  0.00    +0.014 C 
ATOM     22  C   UNL     1      51.497  20.621  18.378  0.00  0.00    +0.165 C 
ATOM     25  C   UNL     1      52.366  19.755  17.477  0.00  0.00    -0.020 C 
ATOM     26  C   UNL     1      51.613  18.501  17.044  0.00  0.00    +0.014 C 
ATOM     27  C   UNL     1      51.269  17.656  18.286  0.00  0.00    -0.035 C 
ATOM     28  C   UNL     1      52.580  17.229  18.934  0.00  0.00    +0.026 C 
ATOM     29  C   UNL     1      50.454  16.449  17.815  0.00  0.00    -0.001 C 
ATOM     30  C   UNL     1      51.264  15.540  16.899  0.00  0.00    +0.004 C 
ATOM     31  C   UNL     1      50.354  14.457  16.304  0.00  0.00    -0.018 C 
ATOM     32  C   UNL     1      49.670  13.665  17.417  0.00  0.00    +0.042 C 
ATOM     33  C   UNL     1      48.747  12.605  16.857  0.00  0.00    +0.017 C 
ENDROOT
BRANCH   3   2
ATOM      1  C   UNL     1      48.158  12.628  13.954  0.00  0.00    +0.047 C 
ATOM      2  C   UNL     1      49.366  11.932  14.527  0.00  0.00    +0.361 C 
ATOM     34  O   UNL     1      50.321  11.704  13.824  0.00  0.00    -0.463 OA
ENDBRANCH   3   2
BRANCH   6   7
ATOM      7  C   UNL     1      49.244  11.192  18.897  0.00  0.00    +0.510 C 
ATOM      8  O   UNL     1      50.408  11.503  18.715  0.00  0.00    -0.679 OA
ATOM      9  O   UNL     1      48.954  10.397  19.776  0.00  0.00    -0.699 OA
ENDBRANCH   6   7
BRANCH  22  23
ATOM     23  O   UNL     1      52.273  21.732  18.851  0.00  0.00    -0.567 OA
ATOM     24  H   UNL     1      51.753  22.528  19.026  0.00  0.00    +0.371 HD
ENDBRANCH  22  23
TORSDOF 3
ENDMDL
MODEL 5
REMARK VINA RESULT:      -5.7      2.413      7.998
REMARK  Name = ZINC26472270
REMARK  9 active torsions:
REMARK  status: ('A' for Active; 'I' for Inactive)
REMARK    1  A    between atoms: C1_1  and  C2_2
REMARK    2  A    between atoms: C2_2  and  C3_4
REMARK    3  A    between atoms: C6_8  and  C29_37
REMARK    4  A    between atoms: C12_17  and  C28_36
REMARK    5  A    between atoms: C15_20  and  O2_35
REMARK    6  A    between atoms: C16_22  and  C26_33
REMARK    7  A    between atoms: C16_22  and  C27_34
REMARK    8  A    between atoms: C20_27  and  C25_32
REMARK    9  A    between atoms: C21_28  and  C24_31
REMARK                            x       y       z     vdW  Elec       q    Type
REMARK                         _______ _______ _______ _____ _____    ______ ____
ROOT
ATOM      3  C   UNL     1      50.863  15.114  18.047  0.00  0.00    -0.038 C 
ATOM      4  C   UNL     1      50.988  13.816  17.201  0.00  0.00    +0.030 C 
ATOM      5  C   UNL     1      49.601  13.572  16.557  0.00  0.00    +0.017 C 
ATOM      6  C   UNL     1      48.653  14.382  17.451  0.00  0.00    -0.132 C 
ATOM     10  C   UNL     1      47.327  14.767  16.836  0.00  0.00    +0.003 C 
ATOM     11  C   UNL     1      46.569  15.676  17.815  0.00  0.00    +0.028 C 
ATOM     12  C   UNL     1      47.391  16.891  18.231  0.00  0.00    -0.013 C 
ATOM     13  C   UNL     1      47.544  17.776  16.988  0.00  0.00    -0.005 C 
ATOM     14  C   UNL     1      46.656  17.685  19.325  0.00  0.00    -0.026 C 
ATOM     15  C   UNL     1      46.522  16.762  20.548  0.00  0.00    +0.031 C 
ATOM     16  C   UNL     1      45.246  18.036  18.849  0.00  0.00    +0.009 C 
ATOM     17  C   UNL     1      44.552  18.936  19.885  0.00  0.00    +0.012 C 
ATOM     18  C   UNL     1      45.365  20.222  20.003  0.00  0.00    -0.002 C 
ATOM     19  C   UNL     1      44.602  21.347  20.665  0.00  0.00    -0.037 C 
ATOM     20  C   UNL     1      43.963  20.934  21.991  0.00  0.00    +0.033 C 
ATOM     21  C   UNL     1      43.447  21.765  19.720  0.00  0.00    +0.014 C 
ATOM     22  C   UNL     1      45.461  22.595  20.865  0.00  0.00    +0.165 C 
ATOM     25  C   UNL     1      46.835  22.274  21.436  0.00  0.00    -0.020 C 
ATOM     26  C   UNL     1      47.549  21.236  20.576  0.00  0.00    +0.014 C 
ATOM     27  C   UNL     1      46.742  19.924  20.582  0.00  0.00    -0.035 C 
ATOM     28  C   UNL     1      46.699  19.411  22.015  0.00  0.00    +0.026 C 
ATOM     29  C   UNL     1      47.453  18.938  19.651  0.00  0.00    -0.001 C 
ATOM     30  C   UNL     1      48.844  18.579  20.161  0.00  0.00    +0.004 C 
ATOM     31  C   UNL     1      49.585  17.745  19.109  0.00  0.00    -0.018 C 
ATOM     32  C   UNL     1      48.780  16.497  18.751  0.00  0.00    +0.042 C 
ATOM     33  C   UNL     1      49.478  15.670  17.695  0.00  0.00    +0.017 C 
ENDROOT
BRANCH   3   2
ATOM      1  C   UNL     1      51.838  16.817  16.318  0.00  0.00    +0.047 C 
ATOM      2  C   UNL     1      51.945  16.085  17.631  0.00  0.00    +0.361 C 
ATOM     34  O   UNL     1      52.896  16.272  18.351  0.00  0.00    -0.463 OA
ENDBRANCH   3   2
BRANCH   6   7
ATOM      7  C   UNL     1      48.436  13.604  18.722  0.00  0.00    +0.510 C 
ATOM      8  O   UNL     1      48.805  14.065  19.789  0.00  0.00    -0.679 OA
ATOM      9  O   UNL     1      47.893  12.513  18.684  0.00  0.00    -0.699 OA
ENDBRANCH   6   7
BRANCH  22  23
ATOM     23  O   UNL     1      44.779  23.489  21.756  0.00  0.00    -0.567 OA
ATOM     24  H   UNL     1      45.312  23.775  22.509  0.00  0.00    +0.371 HD
ENDBRANCH  22  23
TORSDOF 3
ENDMDL
MODEL 6
REMARK VINA RESULT:      -5.7      2.386      7.895
REMARK  Name = ZINC26472270
REMARK  9 active torsions:
REMARK  status: ('A' for Active; 'I' for Inactive)
REMARK    1  A    between atoms: C1_1  and  C2_2
REMARK    2  A    between atoms: C2_2  and  C3_4
REMARK    3  A    between atoms: C6_8  and  C29_37
REMARK    4  A    between atoms: C12_17  and  C28_36
REMARK    5  A    between atoms: C15_20  and  O2_35
REMARK    6  A    between atoms: C16_22  and  C26_33
REMARK    7  A    between atoms: C16_22  and  C27_34
REMARK    8  A    between atoms: C20_27  and  C25_32
REMARK    9  A    between atoms: C21_28  and  C24_31
REMARK                            x       y       z     vdW  Elec       q    Type
REMARK                         _______ _______ _______ _____ _____    ______ ____
ROOT
ATOM      3  C   UNL     1      48.592  13.940  20.234  0.00  0.00    -0.038 C 
ATOM      4  C   UNL     1      48.801  12.708  19.311  0.00  0.00    +0.030 C 
ATOM      5  C   UNL     1      48.314  13.124  17.900  0.00  0.00    +0.017 C 
ATOM      6  C   UNL     1      47.391  14.315  18.186  0.00  0.00    -0.132 C 
ATOM     10  C   UNL     1      47.146  15.258  17.031  0.00  0.00    +0.003 C 
ATOM     11  C   UNL     1      46.315  16.450  17.528  0.00  0.00    +0.028 C 
ATOM     12  C   UNL     1      46.960  17.148  18.721  0.00  0.00    -0.013 C 
ATOM     13  C   UNL     1      48.244  17.813  18.210  0.00  0.00    -0.005 C 
ATOM     14  C   UNL     1      46.021  18.232  19.279  0.00  0.00    -0.026 C 
ATOM     15  C   UNL     1      44.750  17.523  19.775  0.00  0.00    +0.031 C 
ATOM     16  C   UNL     1      45.614  19.189  18.158  0.00  0.00    +0.009 C 
ATOM     17  C   UNL     1      44.779  20.344  18.734  0.00  0.00    +0.012 C 
ATOM     18  C   UNL     1      45.654  21.099  19.731  0.00  0.00    -0.002 C 
ATOM     19  C   UNL     1      45.120  22.473  20.067  0.00  0.00    -0.037 C 
ATOM     20  C   UNL     1      43.647  22.455  20.476  0.00  0.00    +0.033 C 
ATOM     21  C   UNL     1      45.223  23.353  18.796  0.00  0.00    +0.014 C 
ATOM     22  C   UNL     1      45.952  23.175  21.140  0.00  0.00    +0.165 C 
ATOM     25  C   UNL     1      46.280  22.265  22.315  0.00  0.00    -0.020 C 
ATOM     26  C   UNL     1      46.955  20.984  21.834  0.00  0.00    +0.014 C 
ATOM     27  C   UNL     1      45.987  20.208  20.920  0.00  0.00    -0.035 C 
ATOM     28  C   UNL     1      44.770  19.825  21.751  0.00  0.00    +0.026 C 
ATOM     29  C   UNL     1      46.728  18.971  20.403  0.00  0.00    -0.001 C 
ATOM     30  C   UNL     1      47.096  18.017  21.533  0.00  0.00    +0.004 C 
ATOM     31  C   UNL     1      47.996  16.897  20.997  0.00  0.00    -0.018 C 
ATOM     32  C   UNL     1      47.308  16.164  19.846  0.00  0.00    +0.042 C 
ATOM     33  C   UNL     1      48.185  15.070  19.281  0.00  0.00    +0.017 C 
ENDROOT
BRANCH   3   2
ATOM      1  C   UNL     1      51.018  14.911  20.151  0.00  0.00    +0.047 C 
ATOM      2  C   UNL     1      49.895  14.271  20.925  0.00  0.00    +0.361 C 
ATOM     34  O   UNL     1      50.037  14.021  22.098  0.00  0.00    -0.463 OA
ENDBRANCH   3   2
BRANCH   6   7
ATOM      7  C   UNL     1      46.087  13.776  18.710  0.00  0.00    +0.510 C 
ATOM      8  O   UNL     1      45.700  14.090  19.823  0.00  0.00    -0.679 OA
ATOM      9  O   UNL     1      45.418  13.023  18.022  0.00  0.00    -0.699 OA
ENDBRANCH   6   7
BRANCH  22  23
ATOM     23  O   UNL     1      45.224  24.315  21.618  0.00  0.00    -0.567 OA
ATOM     24  H   UNL     1      45.785  25.045  21.911  0.00  0.00    +0.371 HD
ENDBRANCH  22  23
TORSDOF 3
ENDMDL
MODEL 7
REMARK VINA RESULT:      -5.6      1.750      3.808
REMARK  Name = ZINC26472270
REMARK  9 active torsions:
REMARK  status: ('A' for Active; 'I' for Inactive)
REMARK    1  A    between atoms: C1_1  and  C2_2
REMARK    2  A    between atoms: C2_2  and  C3_4
REMARK    3  A    between atoms: C6_8  and  C29_37
REMARK    4  A    between atoms: C12_17  and  C28_36
REMARK    5  A    between atoms: C15_20  and  O2_35
REMARK    6  A    between atoms: C16_22  and  C26_33
REMARK    7  A    between atoms: C16_22  and  C27_34
REMARK    8  A    between atoms: C20_27  and  C25_32
REMARK    9  A    between atoms: C21_28  and  C24_31
REMARK                            x       y       z     vdW  Elec       q    Type
REMARK                         _______ _______ _______ _____ _____    ______ ____
ROOT
ATOM      3  C   UNL     1      48.329  20.470  19.800  0.00  0.00    -0.038 C 
ATOM      4  C   UNL     1      47.974  21.398  20.995  0.00  0.00    +0.030 C 
ATOM      5  C   UNL     1      47.496  20.477  22.145  0.00  0.00    +0.017 C 
ATOM      6  C   UNL     1      47.096  19.187  21.416  0.00  0.00    -0.132 C 
ATOM     10  C   UNL     1      47.059  17.933  22.257  0.00  0.00    +0.003 C 
ATOM     11  C   UNL     1      46.771  16.730  21.347  0.00  0.00    +0.028 C 
ATOM     12  C   UNL     1      47.763  16.627  20.193  0.00  0.00    -0.013 C 
ATOM     13  C   UNL     1      49.126  16.277  20.803  0.00  0.00    -0.005 C 
ATOM     14  C   UNL     1      47.344  15.506  19.225  0.00  0.00    -0.026 C 
ATOM     15  C   UNL     1      45.976  15.895  18.640  0.00  0.00    +0.031 C 
ATOM     16  C   UNL     1      47.167  14.198  19.996  0.00  0.00    +0.009 C 
ATOM     17  C   UNL     1      46.871  13.049  19.018  0.00  0.00    +0.012 C 
ATOM     18  C   UNL     1      48.073  12.911  18.086  0.00  0.00    -0.002 C 
ATOM     19  C   UNL     1      48.104  11.590  17.352  0.00  0.00    -0.037 C 
ATOM     20  C   UNL     1      46.783  11.265  16.656  0.00  0.00    +0.033 C 
ATOM     21  C   UNL     1      48.354  10.468  18.391  0.00  0.00    +0.014 C 
ATOM     22  C   UNL     1      49.256  11.508  16.351  0.00  0.00    +0.165 C 
ATOM     25  C   UNL     1      49.384  12.765  15.501  0.00  0.00    -0.020 C 
ATOM     26  C   UNL     1      49.498  14.004  16.383  0.00  0.00    +0.014 C 
ATOM     27  C   UNL     1      48.213  14.156  17.220  0.00  0.00    -0.035 C 
ATOM     28  C   UNL     1      47.052  14.358  16.257  0.00  0.00    +0.026 C 
ATOM     29  C   UNL     1      48.400  15.366  18.140  0.00  0.00    -0.001 C 
ATOM     30  C   UNL     1      48.543  16.661  17.351  0.00  0.00    +0.004 C 
ATOM     31  C   UNL     1      48.916  17.809  18.298  0.00  0.00    -0.018 C 
ATOM     32  C   UNL     1      47.877  17.942  19.410  0.00  0.00    +0.042 C 
ATOM     33  C   UNL     1      48.234  19.052  20.374  0.00  0.00    +0.017 C 
ENDROOT
BRANCH   3   2
ATOM      1  C   UNL     1      50.899  20.541  20.282  0.00  0.00    +0.047 C 
ATOM      2  C   UNL     1      49.740  20.765  19.344  0.00  0.00    +0.361 C 
ATOM     34  O   UNL     1      49.939  21.180  18.227  0.00  0.00    -0.463 OA
ENDBRANCH   3   2
BRANCH   6   7
ATOM      7  C   UNL     1      45.760  19.420  20.760  0.00  0.00    +0.510 C 
ATOM      8  O   UNL     1      45.653  19.339  19.549  0.00  0.00    -0.679 OA
ATOM      9  O   UNL     1      44.786  19.691  21.442  0.00  0.00    -0.699 OA
ENDBRANCH   6   7
BRANCH  22  23
ATOM     23  O   UNL     1      49.043  10.379  15.492  0.00  0.00    -0.567 OA
ATOM     24  H   UNL     1      48.697  10.610  14.619  0.00  0.00    +0.371 HD
ENDBRANCH  22  23
TORSDOF 3
ENDMDL
MODEL 8
REMARK VINA RESULT:      -5.5      2.463      7.585
REMARK  Name = ZINC26472270
REMARK  9 active torsions:
REMARK  status: ('A' for Active; 'I' for Inactive)
REMARK    1  A    between atoms: C1_1  and  C2_2
REMARK    2  A    between atoms: C2_2  and  C3_4
REMARK    3  A    between atoms: C6_8  and  C29_37
REMARK    4  A    between atoms: C12_17  and  C28_36
REMARK    5  A    between atoms: C15_20  and  O2_35
REMARK    6  A    between atoms: C16_22  and  C26_33
REMARK    7  A    between atoms: C16_22  and  C27_34
REMARK    8  A    between atoms: C20_27  and  C25_32
REMARK    9  A    between atoms: C21_28  and  C24_31
REMARK                            x       y       z     vdW  Elec       q    Type
REMARK                         _______ _______ _______ _____ _____    ______ ____
ROOT
ATOM      3  C   UNL     1      50.574  13.966  18.216  0.00  0.00    -0.038 C 
ATOM      4  C   UNL     1      51.012  12.481  18.356  0.00  0.00    +0.030 C 
ATOM      5  C   UNL     1      49.833  11.734  19.026  0.00  0.00    +0.017 C 
ATOM      6  C   UNL     1      49.042  12.861  19.703  0.00  0.00    -0.132 C 
ATOM     10  C   UNL     1      47.595  12.563  20.017  0.00  0.00    +0.003 C 
ATOM     11  C   UNL     1      46.931  13.834  20.565  0.00  0.00    +0.028 C 
ATOM     12  C   UNL     1      47.087  15.022  19.621  0.00  0.00    -0.013 C 
ATOM     13  C   UNL     1      46.256  14.712  18.369  0.00  0.00    -0.005 C 
ATOM     14  C   UNL     1      46.546  16.303  20.279  0.00  0.00    -0.026 C 
ATOM     15  C   UNL     1      47.403  16.574  21.526  0.00  0.00    +0.031 C 
ATOM     16  C   UNL     1      45.106  16.077  20.742  0.00  0.00    +0.009 C 
ATOM     17  C   UNL     1      44.519  17.390  21.285  0.00  0.00    +0.012 C 
ATOM     18  C   UNL     1      44.514  18.405  20.145  0.00  0.00    -0.002 C 
ATOM     19  C   UNL     1      43.610  19.587  20.408  0.00  0.00    -0.037 C 
ATOM     20  C   UNL     1      43.860  20.236  21.769  0.00  0.00    +0.033 C 
ATOM     21  C   UNL     1      42.145  19.081  20.413  0.00  0.00    +0.014 C 
ATOM     22  C   UNL     1      43.693  20.640  19.303  0.00  0.00    +0.165 C 
ATOM     25  C   UNL     1      45.126  20.954  18.900  0.00  0.00    -0.020 C 
ATOM     26  C   UNL     1      45.870  19.680  18.513  0.00  0.00    +0.014 C 
ATOM     27  C   UNL     1      45.941  18.739  19.732  0.00  0.00    -0.035 C 
ATOM     28  C   UNL     1      46.737  19.447  20.819  0.00  0.00    +0.026 C 
ATOM     29  C   UNL     1      46.629  17.447  19.281  0.00  0.00    -0.001 C 
ATOM     30  C   UNL     1      48.071  17.692  18.854  0.00  0.00    +0.004 C 
ATOM     31  C   UNL     1      48.654  16.415  18.235  0.00  0.00    -0.018 C 
ATOM     32  C   UNL     1      48.550  15.250  19.218  0.00  0.00    +0.042 C 
ATOM     33  C   UNL     1      49.096  13.971  18.623  0.00  0.00    +0.017 C 
ENDROOT
BRANCH   3   2
ATOM      1  C   UNL     1      49.977  13.674  15.687  0.00  0.00    +0.047 C 
ATOM      2  C   UNL     1      50.729  14.397  16.775  0.00  0.00    +0.361 C 
ATOM     34  O   UNL     1      51.456  15.320  16.496  0.00  0.00    -0.463 OA
ENDBRANCH   3   2
BRANCH   6   7
ATOM      7  C   UNL     1      49.781  13.259  20.954  0.00  0.00    +0.510 C 
ATOM      8  O   UNL     1      50.220  14.390  21.069  0.00  0.00    -0.679 OA
ATOM      9  O   UNL     1      49.939  12.448  21.851  0.00  0.00    -0.699 OA
ENDBRANCH   6   7
BRANCH  22  23
ATOM     23  O   UNL     1      43.059  21.843  19.762  0.00  0.00    -0.567 OA
ATOM     24  H   UNL     1      43.346  22.640  19.296  0.00  0.00    +0.371 HD
ENDBRANCH  22  23
TORSDOF 3
ENDMDL
MODEL 9
REMARK VINA RESULT:      -5.5      2.174      7.862
REMARK  Name = ZINC26472270
REMARK  9 active torsions:
REMARK  status: ('A' for Active; 'I' for Inactive)
REMARK    1  A    between atoms: C1_1  and  C2_2
REMARK    2  A    between atoms: C2_2  and  C3_4
REMARK    3  A    between atoms: C6_8  and  C29_37
REMARK    4  A    between atoms: C12_17  and  C28_36
REMARK    5  A    between atoms: C15_20  and  O2_35
REMARK    6  A    between atoms: C16_22  and  C26_33
REMARK    7  A    between atoms: C16_22  and  C27_34
REMARK    8  A    between atoms: C20_27  and  C25_32
REMARK    9  A    between atoms: C21_28  and  C24_31
REMARK                            x       y       z     vdW  Elec       q    Type
REMARK                         _______ _______ _______ _____ _____    ______ ____
ROOT
ATOM      3  C   UNL     1      49.490  13.032  18.858  0.00  0.00    -0.038 C 
ATOM      4  C   UNL     1      49.504  11.884  17.810  0.00  0.00    +0.030 C 
ATOM      5  C   UNL     1      48.637  12.362  16.619  0.00  0.00    +0.017 C 
ATOM      6  C   UNL     1      47.767  13.464  17.239  0.00  0.00    -0.132 C 
ATOM     10  C   UNL     1      47.175  14.465  16.274  0.00  0.00    +0.003 C 
ATOM     11  C   UNL     1      46.451  15.559  17.072  0.00  0.00    +0.028 C 
ATOM     12  C   UNL     1      47.358  16.216  18.108  0.00  0.00    -0.013 C 
ATOM     13  C   UNL     1      48.424  17.003  17.335  0.00  0.00    -0.005 C 
ATOM     14  C   UNL     1      46.551  17.190  18.984  0.00  0.00    -0.026 C 
ATOM     15  C   UNL     1      45.497  16.362  19.736  0.00  0.00    +0.031 C 
ATOM     16  C   UNL     1      45.813  18.192  18.096  0.00  0.00    +0.009 C 
ATOM     17  C   UNL     1      45.107  19.244  18.968  0.00  0.00    +0.012 C 
ATOM     18  C   UNL     1      46.180  19.987  19.760  0.00  0.00    -0.002 C 
ATOM     19  C   UNL     1      45.690  21.294  20.341  0.00  0.00    -0.037 C 
ATOM     20  C   UNL     1      44.383  21.145  21.120  0.00  0.00    +0.033 C 
ATOM     21  C   UNL     1      45.404  22.265  19.167  0.00  0.00    +0.014 C 
ATOM     22  C   UNL     1      46.744  21.976  21.211  0.00  0.00    +0.165 C 
ATOM     25  C   UNL     1      47.419  21.012  22.176  0.00  0.00    -0.020 C 
ATOM     26  C   UNL     1      48.002  19.818  21.427  0.00  0.00    +0.014 C 
ATOM     27  C   UNL     1      46.863  19.041  20.738  0.00  0.00    -0.035 C 
ATOM     28  C   UNL     1      45.934  18.518  21.825  0.00  0.00    +0.026 C 
ATOM     29  C   UNL     1      47.498  17.898  19.941  0.00  0.00    -0.001 C 
ATOM     30  C   UNL     1      48.201  16.896  20.848  0.00  0.00    +0.004 C 
ATOM     31  C   UNL     1      48.978  15.881  20.000  0.00  0.00    -0.018 C 
ATOM     32  C   UNL     1      48.043  15.183  19.013  0.00  0.00    +0.042 C 
ATOM     33  C   UNL     1      48.789  14.194  18.146  0.00  0.00    +0.017 C 
ENDROOT
BRANCH   3   2
ATOM      1  C   UNL     1      51.773  14.125  18.199  0.00  0.00    +0.047 C 
ATOM      2  C   UNL     1      50.914  13.405  19.206  0.00  0.00    +0.361 C 
ATOM     34  O   UNL     1      51.362  13.124  20.292  0.00  0.00    -0.463 OA
ENDBRANCH   3   2
BRANCH   6   7
ATOM      7  C   UNL     1      46.679  12.799  18.041  0.00  0.00    +0.510 C 
ATOM      8  O   UNL     1      46.616  12.974  19.245  0.00  0.00    -0.679 OA
ATOM      9  O   UNL     1      45.862  12.086  17.484  0.00  0.00    -0.699 OA
ENDBRANCH   6   7
BRANCH  22  23
ATOM     23  O   UNL     1      46.116  23.027  21.960  0.00  0.00    -0.567 OA
ATOM     24  H   UNL     1      45.412  23.485  21.480  0.00  0.00    +0.371 HD
ENDBRANCH  22  23
TORSDOF 3
ENDMDL
