MODEL 1
REMARK VINA RESULT:      -6.6      0.000      0.000
REMARK  Name = ZINC95486229
REMARK  18 active torsions:
REMARK  status: ('A' for Active; 'I' for Inactive)
REMARK    1  A    between atoms: C1_1  and  C2_2
REMARK    2  A    between atoms: C2_2  and  C3_4
REMARK    3  A    between atoms: C2_2  and  C9_10
REMARK    4  A    between atoms: C3_4  and  C4_5
REMARK    5  A    between atoms: C4_5  and  C5_6
REMARK    6  A    between atoms: C6_7  and  C7_8
REMARK    7  A    between atoms: C6_7  and  C8_9
REMARK    8  A    between atoms: C12_14  and  C36_55
REMARK    9  A    between atoms: C13_15  and  C35_54
REMARK   10  A    between atoms: C23_27  and  O8_53
REMARK   11  A    between atoms: C25_30  and  C29_37
REMARK   12  A    between atoms: C26_32  and  C27_33
REMARK   13  A    between atoms: C26_32  and  C28_34
REMARK   14  A    between atoms: C30_39  and  O7_52
REMARK   15  A    between atoms: C31_41  and  O6_51
REMARK   16  A    between atoms: C32_43  and  O5_50
REMARK   17  A    between atoms: C33_45  and  C34_48
REMARK   18  A    between atoms: C34_48  and  O4_49
REMARK                            x       y       z     vdW  Elec       q    Type
REMARK                         _______ _______ _______ _____ _____    ______ ____
ROOT
ATOM      3  C   UNL     1      46.400  21.179  20.585  0.00  0.00    +0.002 C 
ATOM      4  C   UNL     1      47.510  21.363  21.656  0.00  0.00    +0.002 C 
ATOM      5  C   UNL     1      47.802  19.956  22.237  0.00  0.00    +0.004 C 
ATOM      6  C   UNL     1      47.076  18.999  21.285  0.00  0.00    -0.038 C 
ATOM      7  C   UNL     1      47.937  18.828  20.029  0.00  0.00    +0.037 C 
ATOM      8  C   UNL     1      46.696  17.656  21.864  0.00  0.00    +0.037 C 
ATOM      9  C   UNL     1      47.894  16.870  22.332  0.00  0.00    -0.003 C 
ATOM     10  C   UNL     1      48.661  16.110  21.279  0.00  0.00    +0.028 C 
ATOM     11  C   UNL     1      47.842  15.301  20.336  0.00  0.00    +0.010 C 
ATOM     12  C   UNL     1      46.433  15.749  20.060  0.00  0.00    -0.045 C 
ATOM     13  C   UNL     1      45.881  15.573  18.644  0.00  0.00    +0.193 C 
ATOM     16  C   UNL     1      46.490  14.403  17.910  0.00  0.00    -0.018 C 
ATOM     17  C   UNL     1      48.001  14.408  17.966  0.00  0.00    +0.079 C 
ATOM     33  C   UNL     1      45.444  15.459  21.212  0.00  0.00    -0.026 C 
ATOM     34  C   UNL     1      48.536  14.398  19.382  0.00  0.00    -0.103 C 
ATOM     38  C   UNL     1      48.426  12.966  19.920  0.00  0.00    +0.028 C 
ATOM     39  C   UNL     1      45.831  16.907  20.851  0.00  0.00    -0.073 C 
ATOM     40  C   UNL     1      44.658  17.703  20.258  0.00  0.00    +0.039 C 
ATOM     41  C   UNL     1      45.066  19.109  19.812  0.00  0.00    +0.032 C 
ATOM     42  C   UNL     1      45.800  19.804  20.936  0.00  0.00    -0.044 C 
ATOM     43  C   UNL     1      44.880  19.972  22.153  0.00  0.00    +0.017 C 
ENDROOT
BRANCH  17  18
ATOM     18  C   UNL     1      48.532  13.178  17.228  0.00  0.00    +0.180 C 
ATOM     19  C   UNL     1      49.322  13.624  15.995  0.00  0.00    +0.162 C 
ATOM     22  C   UNL     1      49.799  12.387  15.228  0.00  0.00    +0.152 C 
ATOM     25  C   UNL     1      48.585  11.528  14.862  0.00  0.00    +0.126 C 
ATOM     28  C   UNL     1      47.823  11.163  16.138  0.00  0.00    +0.126 C 
ATOM     32  O   UNL     1      47.436  12.358  16.819  0.00  0.00    -0.334 OA
BRANCH  19  20
ATOM     20  O   UNL     1      50.451  14.397  16.406  0.00  0.00    -0.533 OA
ATOM     21  H   UNL     1      50.502  15.270  15.993  0.00  0.00    +0.377 HD
ENDBRANCH  19  20
BRANCH  22  23
ATOM     23  O   UNL     1      50.476  12.794  14.038  0.00  0.00    -0.561 OA
ATOM     24  H   UNL     1      50.186  12.329  13.242  0.00  0.00    +0.385 HD
ENDBRANCH  22  23
BRANCH  25  26
ATOM     26  O   UNL     1      49.023  10.336  14.207  0.00  0.00    -0.561 OA
ATOM     27  H   UNL     1      48.488   9.557  14.409  0.00  0.00    +0.380 HD
ENDBRANCH  25  26
BRANCH  28  29
ATOM     29  C   UNL     1      46.576  10.355  15.774  0.00  0.00    +0.194 C 
BRANCH  29  30
ATOM     30  O   UNL     1      46.015  10.867  14.563  0.00  0.00    -0.550 OA
ATOM     31  H   UNL     1      46.479  10.584  13.764  0.00  0.00    +0.376 HD
ENDBRANCH  29  30
ENDBRANCH  28  29
ENDBRANCH  17  18
BRANCH  34  35
ATOM     35  C   UNL     1      50.000  14.752  19.319  0.00  0.00    +0.506 C 
ATOM     36  O   UNL     1      50.347  15.827  18.860  0.00  0.00    -0.689 OA
ATOM     37  O   UNL     1      50.836  13.964  19.726  0.00  0.00    -0.703 OA
ENDBRANCH  34  35
BRANCH   3   2
ATOM      1  C   UNL     1      45.966  23.520  21.349  0.00  0.00    +0.005 C 
ATOM      2  C   UNL     1      45.335  22.272  20.729  0.00  0.00    -0.013 C 
BRANCH   2  44
ATOM     44  C   UNL     1      44.770  22.618  19.350  0.00  0.00    +0.022 C 
BRANCH  44  45
ATOM     45  C   UNL     1      43.242  22.646  19.417  0.00  0.00    +0.040 C 
BRANCH  45  46
ATOM     46  C   UNL     1      42.717  21.235  19.494  0.00  0.00    -0.051 C 
ATOM     47  C   UNL     1      41.544  20.944  18.990  0.00  0.00    -0.144 C 
ATOM     48  C   UNL     1      41.049  19.521  19.003  0.00  0.00    +0.067 C 
ATOM     49  C   UNL     1      40.688  22.034  18.398  0.00  0.00    +0.069 C 
ENDBRANCH  45  46
ENDBRANCH  44  45
ENDBRANCH   2  44
ENDBRANCH   3   2
BRANCH  13  14
ATOM     14  O   UNL     1      46.142  16.759  17.892  0.00  0.00    -0.548 OA
ATOM     15  H   UNL     1      46.480  17.495  18.420  0.00  0.00    +0.363 HD
ENDBRANCH  13  14
TORSDOF 12
ENDMDL
MODEL 2
REMARK VINA RESULT:      -6.4      1.687      2.190
REMARK  Name = ZINC95486229
REMARK  18 active torsions:
REMARK  status: ('A' for Active; 'I' for Inactive)
REMARK    1  A    between atoms: C1_1  and  C2_2
REMARK    2  A    between atoms: C2_2  and  C3_4
REMARK    3  A    between atoms: C2_2  and  C9_10
REMARK    4  A    between atoms: C3_4  and  C4_5
REMARK    5  A    between atoms: C4_5  and  C5_6
REMARK    6  A    between atoms: C6_7  and  C7_8
REMARK    7  A    between atoms: C6_7  and  C8_9
REMARK    8  A    between atoms: C12_14  and  C36_55
REMARK    9  A    between atoms: C13_15  and  C35_54
REMARK   10  A    between atoms: C23_27  and  O8_53
REMARK   11  A    between atoms: C25_30  and  C29_37
REMARK   12  A    between atoms: C26_32  and  C27_33
REMARK   13  A    between atoms: C26_32  and  C28_34
REMARK   14  A    between atoms: C30_39  and  O7_52
REMARK   15  A    between atoms: C31_41  and  O6_51
REMARK   16  A    between atoms: C32_43  and  O5_50
REMARK   17  A    between atoms: C33_45  and  C34_48
REMARK   18  A    between atoms: C34_48  and  O4_49
REMARK                            x       y       z     vdW  Elec       q    Type
REMARK                         _______ _______ _______ _____ _____    ______ ____
ROOT
ATOM      3  C   UNL     1      47.376  20.807  20.349  0.00  0.00    +0.002 C 
ATOM      4  C   UNL     1      48.472  21.166  21.390  0.00  0.00    +0.002 C 
ATOM      5  C   UNL     1      49.097  19.826  21.853  0.00  0.00    +0.004 C 
ATOM      6  C   UNL     1      48.553  18.794  20.859  0.00  0.00    -0.038 C 
ATOM      7  C   UNL     1      49.365  18.902  19.564  0.00  0.00    +0.037 C 
ATOM      8  C   UNL     1      48.510  17.365  21.349  0.00  0.00    +0.037 C 
ATOM      9  C   UNL     1      49.875  16.840  21.714  0.00  0.00    -0.003 C 
ATOM     10  C   UNL     1      50.736  16.341  20.580  0.00  0.00    +0.028 C 
ATOM     11  C   UNL     1      50.068  15.431  19.610  0.00  0.00    +0.010 C 
ATOM     12  C   UNL     1      48.582  15.568  19.419  0.00  0.00    -0.045 C 
ATOM     13  C   UNL     1      48.011  15.365  18.014  0.00  0.00    +0.193 C 
ATOM     16  C   UNL     1      48.826  14.412  17.173  0.00  0.00    -0.018 C 
ATOM     17  C   UNL     1      50.299  14.752  17.176  0.00  0.00    +0.079 C 
ATOM     33  C   UNL     1      47.743  14.990  20.580  0.00  0.00    -0.026 C 
ATOM     34  C   UNL     1      50.895  14.771  18.566  0.00  0.00    -0.103 C 
ATOM     38  C   UNL     1      51.132  13.320  19.000  0.00  0.00    +0.028 C 
ATOM     39  C   UNL     1      47.781  16.509  20.315  0.00  0.00    -0.073 C 
ATOM     40  C   UNL     1      46.432  17.057  19.825  0.00  0.00    +0.039 C 
ATOM     41  C   UNL     1      46.496  18.545  19.471  0.00  0.00    +0.032 C 
ATOM     42  C   UNL     1      47.114  19.313  20.617  0.00  0.00    -0.044 C 
ATOM     43  C   UNL     1      46.244  19.191  21.875  0.00  0.00    +0.017 C 
ENDROOT
BRANCH  17  18
ATOM     18  C   UNL     1      51.050  13.723  16.329  0.00  0.00    +0.180 C 
ATOM     19  C   UNL     1      51.338  14.313  14.946  0.00  0.00    +0.162 C 
ATOM     22  C   UNL     1      52.037  13.256  14.084  0.00  0.00    +0.152 C 
ATOM     25  C   UNL     1      51.152  12.007  14.012  0.00  0.00    +0.126 C 
ATOM     28  C   UNL     1      50.872  11.507  15.431  0.00  0.00    +0.126 C 
ATOM     32  O   UNL     1      50.250  12.548  16.188  0.00  0.00    -0.334 OA
BRANCH  19  20
ATOM     20  O   UNL     1      52.185  15.456  15.082  0.00  0.00    -0.533 OA
ATOM     21  H   UNL     1      53.040  15.266  15.493  0.00  0.00    +0.377 HD
ENDBRANCH  19  20
BRANCH  22  23
ATOM     23  O   UNL     1      52.245  13.774  12.770  0.00  0.00    -0.561 OA
ATOM     24  H   UNL     1      52.506  13.106  12.121  0.00  0.00    +0.385 HD
ENDBRANCH  22  23
BRANCH  25  26
ATOM     26  O   UNL     1      51.825  10.988  13.269  0.00  0.00    -0.561 OA
ATOM     27  H   UNL     1      51.323  10.167  13.185  0.00  0.00    +0.380 HD
ENDBRANCH  25  26
BRANCH  28  29
ATOM     29  C   UNL     1      49.940  10.295  15.369  0.00  0.00    +0.194 C 
BRANCH  29  30
ATOM     30  O   UNL     1      49.022  10.455  14.285  0.00  0.00    -0.550 OA
ATOM     31  H   UNL     1      48.868   9.647  13.778  0.00  0.00    +0.376 HD
ENDBRANCH  29  30
ENDBRANCH  28  29
ENDBRANCH  17  18
BRANCH  34  35
ATOM     35  C   UNL     1      52.239  15.448  18.478  0.00  0.00    +0.506 C 
ATOM     36  O   UNL     1      52.359  16.481  17.843  0.00  0.00    -0.689 OA
ATOM     37  O   UNL     1      53.205  14.962  19.040  0.00  0.00    -0.703 OA
ENDBRANCH  34  35
BRANCH   3   2
ATOM      1  C   UNL     1      46.465  22.897  21.375  0.00  0.00    +0.005 C 
ATOM      2  C   UNL     1      46.105  21.622  20.611  0.00  0.00    -0.013 C 
BRANCH   2  44
ATOM     44  C   UNL     1      45.452  21.993  19.278  0.00  0.00    +0.022 C 
BRANCH  44  45
ATOM     45  C   UNL     1      43.931  22.013  19.444  0.00  0.00    +0.040 C 
BRANCH  45  46
ATOM     46  C   UNL     1      43.500  20.830  20.272  0.00  0.00    -0.051 C 
ATOM     47  C   UNL     1      42.588  20.008  19.815  0.00  0.00    -0.144 C 
ATOM     48  C   UNL     1      42.208  18.787  20.611  0.00  0.00    +0.067 C 
ATOM     49  C   UNL     1      41.918  20.285  18.494  0.00  0.00    +0.069 C 
ENDBRANCH  45  46
ENDBRANCH  44  45
ENDBRANCH   2  44
ENDBRANCH   3   2
BRANCH  13  14
ATOM     14  O   UNL     1      47.964  16.626  17.343  0.00  0.00    -0.548 OA
ATOM     15  H   UNL     1      47.071  16.916  17.112  0.00  0.00    +0.363 HD
ENDBRANCH  13  14
TORSDOF 12
ENDMDL
MODEL 3
REMARK VINA RESULT:      -6.4      2.936      9.586
REMARK  Name = ZINC95486229
REMARK  18 active torsions:
REMARK  status: ('A' for Active; 'I' for Inactive)
REMARK    1  A    between atoms: C1_1  and  C2_2
REMARK    2  A    between atoms: C2_2  and  C3_4
REMARK    3  A    between atoms: C2_2  and  C9_10
REMARK    4  A    between atoms: C3_4  and  C4_5
REMARK    5  A    between atoms: C4_5  and  C5_6
REMARK    6  A    between atoms: C6_7  and  C7_8
REMARK    7  A    between atoms: C6_7  and  C8_9
REMARK    8  A    between atoms: C12_14  and  C36_55
REMARK    9  A    between atoms: C13_15  and  C35_54
REMARK   10  A    between atoms: C23_27  and  O8_53
REMARK   11  A    between atoms: C25_30  and  C29_37
REMARK   12  A    between atoms: C26_32  and  C27_33
REMARK   13  A    between atoms: C26_32  and  C28_34
REMARK   14  A    between atoms: C30_39  and  O7_52
REMARK   15  A    between atoms: C31_41  and  O6_51
REMARK   16  A    between atoms: C32_43  and  O5_50
REMARK   17  A    between atoms: C33_45  and  C34_48
REMARK   18  A    between atoms: C34_48  and  O4_49
REMARK                            x       y       z     vdW  Elec       q    Type
REMARK                         _______ _______ _______ _____ _____    ______ ____
ROOT
ATOM      3  C   UNL     1      47.469  12.592  17.336  0.00  0.00    +0.002 C 
ATOM      4  C   UNL     1      47.361  11.818  18.679  0.00  0.00    +0.002 C 
ATOM      5  C   UNL     1      47.626  12.849  19.806  0.00  0.00    +0.004 C 
ATOM      6  C   UNL     1      47.580  14.205  19.093  0.00  0.00    -0.038 C 
ATOM      7  C   UNL     1      46.111  14.585  18.881  0.00  0.00    +0.037 C 
ATOM      8  C   UNL     1      48.335  15.328  19.765  0.00  0.00    +0.037 C 
ATOM      9  C   UNL     1      47.817  15.623  21.150  0.00  0.00    -0.003 C 
ATOM     10  C   UNL     1      46.591  16.497  21.244  0.00  0.00    +0.028 C 
ATOM     11  C   UNL     1      46.611  17.736  20.419  0.00  0.00    +0.010 C 
ATOM     12  C   UNL     1      47.435  17.734  19.161  0.00  0.00    -0.045 C 
ATOM     13  C   UNL     1      46.899  18.489  17.943  0.00  0.00    +0.193 C 
ATOM     16  C   UNL     1      46.029  19.668  18.310  0.00  0.00    -0.018 C 
ATOM     17  C   UNL     1      44.955  19.304  19.309  0.00  0.00    +0.079 C 
ATOM     33  C   UNL     1      48.957  17.839  19.406  0.00  0.00    -0.026 C 
ATOM     34  C   UNL     1      45.514  18.723  20.589  0.00  0.00    -0.103 C 
ATOM     38  C   UNL     1      46.049  19.881  21.442  0.00  0.00    +0.028 C 
ATOM     39  C   UNL     1      48.337  16.545  18.841  0.00  0.00    -0.073 C 
ATOM     40  C   UNL     1      48.751  16.277  17.386  0.00  0.00    +0.039 C 
ATOM     41  C   UNL     1      48.061  15.046  16.794  0.00  0.00    +0.032 C 
ATOM     42  C   UNL     1      48.235  13.871  17.730  0.00  0.00    -0.044 C 
ATOM     43  C   UNL     1      49.721  13.520  17.880  0.00  0.00    +0.017 C 
ENDROOT
BRANCH  17  18
ATOM     18  C   UNL     1      44.144  20.557  19.647  0.00  0.00    +0.180 C 
ATOM     19  C   UNL     1      42.777  20.480  18.963  0.00  0.00    +0.162 C 
ATOM     22  C   UNL     1      41.995  21.764  19.257  0.00  0.00    +0.152 C 
ATOM     25  C   UNL     1      42.815  22.968  18.783  0.00  0.00    +0.126 C 
ATOM     28  C   UNL     1      44.181  22.948  19.475  0.00  0.00    +0.126 C 
ATOM     32  O   UNL     1      44.842  21.715  19.186  0.00  0.00    -0.334 OA
BRANCH  19  20
ATOM     20  O   UNL     1      42.054  19.354  19.465  0.00  0.00    -0.533 OA
ATOM     21  H   UNL     1      42.505  18.885  20.181  0.00  0.00    +0.377 HD
ENDBRANCH  19  20
BRANCH  22  23
ATOM     23  O   UNL     1      40.746  21.732  18.564  0.00  0.00    -0.561 OA
ATOM     24  H   UNL     1      39.977  21.883  19.131  0.00  0.00    +0.385 HD
ENDBRANCH  22  23
BRANCH  25  26
ATOM     26  O   UNL     1      42.127  24.176  19.116  0.00  0.00    -0.561 OA
ATOM     27  H   UNL     1      42.592  24.980  18.847  0.00  0.00    +0.380 HD
ENDBRANCH  25  26
BRANCH  28  29
ATOM     29  C   UNL     1      45.029  24.114  18.962  0.00  0.00    +0.194 C 
BRANCH  29  30
ATOM     30  O   UNL     1      44.540  25.338  19.516  0.00  0.00    -0.550 OA
ATOM     31  H   UNL     1      43.577  25.388  19.570  0.00  0.00    +0.376 HD
ENDBRANCH  29  30
ENDBRANCH  28  29
ENDBRANCH  17  18
BRANCH  34  35
ATOM     35  C   UNL     1      44.371  18.090  21.341  0.00  0.00    +0.506 C 
ATOM     36  O   UNL     1      43.651  17.280  20.785  0.00  0.00    -0.689 OA
ATOM     37  O   UNL     1      44.168  18.389  22.505  0.00  0.00    -0.703 OA
ENDBRANCH  34  35
BRANCH   3   2
ATOM      1  C   UNL     1      48.441  10.347  16.821  0.00  0.00    +0.005 C 
ATOM      2  C   UNL     1      48.281  11.783  16.319  0.00  0.00    -0.013 C 
BRANCH   2  44
ATOM     44  C   UNL     1      47.551  11.775  14.974  0.00  0.00    +0.022 C 
BRANCH  44  45
ATOM     45  C   UNL     1      48.443  12.414  13.907  0.00  0.00    +0.040 C 
BRANCH  45  46
ATOM     46  C   UNL     1      49.800  12.702  14.494  0.00  0.00    -0.051 C 
ATOM     47  C   UNL     1      50.810  12.974  13.706  0.00  0.00    -0.144 C 
ATOM     48  C   UNL     1      52.151  13.331  14.294  0.00  0.00    +0.067 C 
ATOM     49  C   UNL     1      50.632  12.928  12.210  0.00  0.00    +0.069 C 
ENDBRANCH  45  46
ENDBRANCH  44  45
ENDBRANCH   2  44
ENDBRANCH   3   2
BRANCH  13  14
ATOM     14  O   UNL     1      46.125  17.594  17.143  0.00  0.00    -0.548 OA
ATOM     15  H   UNL     1      45.778  16.832  17.628  0.00  0.00    +0.363 HD
ENDBRANCH  13  14
TORSDOF 12
ENDMDL
MODEL 4
REMARK VINA RESULT:      -6.3      3.559      6.197
REMARK  Name = ZINC95486229
REMARK  18 active torsions:
REMARK  status: ('A' for Active; 'I' for Inactive)
REMARK    1  A    between atoms: C1_1  and  C2_2
REMARK    2  A    between atoms: C2_2  and  C3_4
REMARK    3  A    between atoms: C2_2  and  C9_10
REMARK    4  A    between atoms: C3_4  and  C4_5
REMARK    5  A    between atoms: C4_5  and  C5_6
REMARK    6  A    between atoms: C6_7  and  C7_8
REMARK    7  A    between atoms: C6_7  and  C8_9
REMARK    8  A    between atoms: C12_14  and  C36_55
REMARK    9  A    between atoms: C13_15  and  C35_54
REMARK   10  A    between atoms: C23_27  and  O8_53
REMARK   11  A    between atoms: C25_30  and  C29_37
REMARK   12  A    between atoms: C26_32  and  C27_33
REMARK   13  A    between atoms: C26_32  and  C28_34
REMARK   14  A    between atoms: C30_39  and  O7_52
REMARK   15  A    between atoms: C31_41  and  O6_51
REMARK   16  A    between atoms: C32_43  and  O5_50
REMARK   17  A    between atoms: C33_45  and  C34_48
REMARK   18  A    between atoms: C34_48  and  O4_49
REMARK                            x       y       z     vdW  Elec       q    Type
REMARK                         _______ _______ _______ _____ _____    ______ ____
ROOT
ATOM      3  C   UNL     1      44.445  19.080  20.415  0.00  0.00    +0.002 C 
ATOM      4  C   UNL     1      44.253  19.805  19.055  0.00  0.00    +0.002 C 
ATOM      5  C   UNL     1      45.617  20.450  18.701  0.00  0.00    +0.004 C 
ATOM      6  C   UNL     1      46.596  19.830  19.703  0.00  0.00    -0.038 C 
ATOM      7  C   UNL     1      46.960  18.425  19.212  0.00  0.00    +0.037 C 
ATOM      8  C   UNL     1      47.841  20.637  19.994  0.00  0.00    +0.037 C 
ATOM      9  C   UNL     1      48.676  20.872  18.761  0.00  0.00    -0.003 C 
ATOM     10  C   UNL     1      49.596  19.753  18.340  0.00  0.00    +0.028 C 
ATOM     11  C   UNL     1      50.420  19.148  19.422  0.00  0.00    +0.010 C 
ATOM     12  C   UNL     1      49.884  19.190  20.826  0.00  0.00    -0.045 C 
ATOM     13  C   UNL     1      50.149  17.990  21.738  0.00  0.00    +0.193 C 
ATOM     16  C   UNL     1      51.431  17.264  21.409  0.00  0.00    -0.018 C 
ATOM     17  C   UNL     1      51.547  16.935  19.938  0.00  0.00    +0.079 C 
ATOM     33  C   UNL     1      49.978  20.580  21.494  0.00  0.00    -0.026 C 
ATOM     34  C   UNL     1      51.466  18.159  19.053  0.00  0.00    -0.103 C 
ATOM     38  C   UNL     1      52.824  18.869  19.099  0.00  0.00    +0.028 C 
ATOM     39  C   UNL     1      48.609  19.970  21.134  0.00  0.00    -0.073 C 
ATOM     40  C   UNL     1      47.778  19.606  22.375  0.00  0.00    +0.039 C 
ATOM     41  C   UNL     1      46.461  18.913  22.019  0.00  0.00    +0.032 C 
ATOM     42  C   UNL     1      45.725  19.727  20.980  0.00  0.00    -0.044 C 
ATOM     43  C   UNL     1      45.364  21.110  21.538  0.00  0.00    +0.017 C 
ENDROOT
BRANCH  17  18
ATOM     18  C   UNL     1      52.883  16.232  19.688  0.00  0.00    +0.180 C 
ATOM     19  C   UNL     1      52.652  14.724  19.571  0.00  0.00    +0.162 C 
ATOM     22  C   UNL     1      54.000  14.021  19.381  0.00  0.00    +0.152 C 
ATOM     25  C   UNL     1      54.918  14.379  20.554  0.00  0.00    +0.126 C 
ATOM     28  C   UNL     1      55.062  15.901  20.633  0.00  0.00    +0.126 C 
ATOM     32  O   UNL     1      53.770  16.494  20.777  0.00  0.00    -0.334 OA
BRANCH  19  20
ATOM     20  O   UNL     1      51.810  14.455  18.447  0.00  0.00    -0.533 OA
ATOM     21  H   UNL     1      52.251  13.978  17.731  0.00  0.00    +0.377 HD
ENDBRANCH  19  20
BRANCH  22  23
ATOM     23  O   UNL     1      53.800  12.607  19.342  0.00  0.00    -0.561 OA
ATOM     24  H   UNL     1      54.616  12.093  19.416  0.00  0.00    +0.385 HD
ENDBRANCH  22  23
BRANCH  25  26
ATOM     26  O   UNL     1      56.203  13.786  20.353  0.00  0.00    -0.561 OA
ATOM     27  H   UNL     1      56.170  12.894  19.983  0.00  0.00    +0.380 HD
ENDBRANCH  25  26
BRANCH  28  29
ATOM     29  C   UNL     1      55.929  16.269  21.838  0.00  0.00    +0.194 C 
BRANCH  29  30
ATOM     30  O   UNL     1      57.253  16.578  21.395  0.00  0.00    -0.550 OA
ATOM     31  H   UNL     1      57.769  17.095  22.028  0.00  0.00    +0.376 HD
ENDBRANCH  29  30
ENDBRANCH  28  29
ENDBRANCH  17  18
BRANCH  34  35
ATOM     35  C   UNL     1      51.243  17.687  17.639  0.00  0.00    +0.506 C 
ATOM     36  O   UNL     1      50.430  16.808  17.411  0.00  0.00    -0.689 OA
ATOM     37  O   UNL     1      51.877  18.183  16.723  0.00  0.00    -0.703 OA
ENDBRANCH  34  35
BRANCH   3   2
ATOM      1  C   UNL     1      41.958  19.301  20.539  0.00  0.00    +0.005 C 
ATOM      2  C   UNL     1      43.258  19.363  21.342  0.00  0.00    -0.013 C 
BRANCH   2  44
ATOM     44  C   UNL     1      43.219  18.314  22.456  0.00  0.00    +0.022 C 
BRANCH  44  45
ATOM     45  C   UNL     1      43.218  16.914  21.839  0.00  0.00    +0.040 C 
BRANCH  45  46
ATOM     46  C   UNL     1      44.288  16.077  22.492  0.00  0.00    -0.051 C 
ATOM     47  C   UNL     1      45.179  15.463  21.755  0.00  0.00    -0.144 C 
ATOM     48  C   UNL     1      46.291  14.684  22.409  0.00  0.00    +0.067 C 
ATOM     49  C   UNL     1      45.094  15.536  20.252  0.00  0.00    +0.069 C 
ENDBRANCH  45  46
ENDBRANCH  44  45
ENDBRANCH   2  44
ENDBRANCH   3   2
BRANCH  13  14
ATOM     14  O   UNL     1      49.067  17.065  21.616  0.00  0.00    -0.548 OA
ATOM     15  H   UNL     1      48.867  16.809  20.705  0.00  0.00    +0.363 HD
ENDBRANCH  13  14
TORSDOF 12
ENDMDL
MODEL 5
REMARK VINA RESULT:      -5.8      3.000      9.796
REMARK  Name = ZINC95486229
REMARK  18 active torsions:
REMARK  status: ('A' for Active; 'I' for Inactive)
REMARK    1  A    between atoms: C1_1  and  C2_2
REMARK    2  A    between atoms: C2_2  and  C3_4
REMARK    3  A    between atoms: C2_2  and  C9_10
REMARK    4  A    between atoms: C3_4  and  C4_5
REMARK    5  A    between atoms: C4_5  and  C5_6
REMARK    6  A    between atoms: C6_7  and  C7_8
REMARK    7  A    between atoms: C6_7  and  C8_9
REMARK    8  A    between atoms: C12_14  and  C36_55
REMARK    9  A    between atoms: C13_15  and  C35_54
REMARK   10  A    between atoms: C23_27  and  O8_53
REMARK   11  A    between atoms: C25_30  and  C29_37
REMARK   12  A    between atoms: C26_32  and  C27_33
REMARK   13  A    between atoms: C26_32  and  C28_34
REMARK   14  A    between atoms: C30_39  and  O7_52
REMARK   15  A    between atoms: C31_41  and  O6_51
REMARK   16  A    between atoms: C32_43  and  O5_50
REMARK   17  A    between atoms: C33_45  and  C34_48
REMARK   18  A    between atoms: C34_48  and  O4_49
REMARK                            x       y       z     vdW  Elec       q    Type
REMARK                         _______ _______ _______ _____ _____    ______ ____
ROOT
ATOM      3  C   UNL     1      48.661  12.740  16.033  0.00  0.00    +0.002 C 
ATOM      4  C   UNL     1      47.934  11.571  16.753  0.00  0.00    +0.002 C 
ATOM      5  C   UNL     1      47.851  11.957  18.252  0.00  0.00    +0.004 C 
ATOM      6  C   UNL     1      48.259  13.434  18.281  0.00  0.00    -0.038 C 
ATOM      7  C   UNL     1      47.055  14.273  17.842  0.00  0.00    +0.037 C 
ATOM      8  C   UNL     1      48.815  13.938  19.594  0.00  0.00    +0.037 C 
ATOM      9  C   UNL     1      47.829  13.805  20.726  0.00  0.00    -0.003 C 
ATOM     10  C   UNL     1      46.783  14.886  20.846  0.00  0.00    +0.028 C 
ATOM     11  C   UNL     1      47.280  16.285  20.747  0.00  0.00    +0.010 C 
ATOM     12  C   UNL     1      48.530  16.536  19.949  0.00  0.00    -0.045 C 
ATOM     13  C   UNL     1      48.620  17.826  19.131  0.00  0.00    +0.193 C 
ATOM     16  C   UNL     1      47.827  18.965  19.727  0.00  0.00    -0.018 C 
ATOM     17  C   UNL     1      46.408  18.567  20.063  0.00  0.00    +0.079 C 
ATOM     33  C   UNL     1      49.830  16.095  20.660  0.00  0.00    -0.026 C 
ATOM     34  C   UNL     1      46.336  17.399  21.022  0.00  0.00    -0.103 C 
ATOM     38  C   UNL     1      46.624  17.925  22.433  0.00  0.00    +0.028 C 
ATOM     39  C   UNL     1      49.333  15.361  19.398  0.00  0.00    -0.073 C 
ATOM     40  C   UNL     1      50.256  15.575  18.188  0.00  0.00    +0.039 C 
ATOM     41  C   UNL     1      49.714  14.926  16.912  0.00  0.00    +0.032 C 
ATOM     42  C   UNL     1      49.356  13.484  17.190  0.00  0.00    -0.044 C 
ATOM     43  C   UNL     1      50.605  12.691  17.597  0.00  0.00    +0.017 C 
ENDROOT
BRANCH  17  18
ATOM     18  C   UNL     1      45.689  19.764  20.687  0.00  0.00    +0.180 C 
ATOM     19  C   UNL     1      44.900  20.507  19.606  0.00  0.00    +0.162 C 
ATOM     22  C   UNL     1      44.232  21.738  20.225  0.00  0.00    +0.152 C 
ATOM     25  C   UNL     1      45.308  22.618  20.869  0.00  0.00    +0.126 C 
ATOM     28  C   UNL     1      46.081  21.794  21.902  0.00  0.00    +0.126 C 
ATOM     32  O   UNL     1      46.650  20.648  21.266  0.00  0.00    -0.334 OA
BRANCH  19  20
ATOM     20  O   UNL     1      43.900  19.641  19.065  0.00  0.00    -0.533 OA
ATOM     21  H   UNL     1      43.089  20.096  18.798  0.00  0.00    +0.377 HD
ENDBRANCH  19  20
BRANCH  22  23
ATOM     23  O   UNL     1      43.553  22.476  19.209  0.00  0.00    -0.561 OA
ATOM     24  H   UNL     1      44.134  22.814  18.513  0.00  0.00    +0.385 HD
ENDBRANCH  22  23
BRANCH  25  26
ATOM     26  O   UNL     1      44.690  23.735  21.512  0.00  0.00    -0.561 OA
ATOM     27  H   UNL     1      43.754  23.843  21.299  0.00  0.00    +0.380 HD
ENDBRANCH  25  26
BRANCH  28  29
ATOM     29  C   UNL     1      47.196  22.650  22.505  0.00  0.00    +0.194 C 
BRANCH  29  30
ATOM     30  O   UNL     1      47.277  23.892  21.802  0.00  0.00    -0.550 OA
ATOM     31  H   UNL     1      47.166  24.670  22.365  0.00  0.00    +0.376 HD
ENDBRANCH  29  30
ENDBRANCH  28  29
ENDBRANCH  17  18
BRANCH  34  35
ATOM     35  C   UNL     1      44.920  16.881  21.005  0.00  0.00    +0.506 C 
ATOM     36  O   UNL     1      44.364  16.596  22.051  0.00  0.00    -0.689 OA
ATOM     37  O   UNL     1      44.333  16.746  19.945  0.00  0.00    -0.703 OA
ENDBRANCH  34  35
BRANCH   3   2
ATOM      1  C   UNL     1      49.495  10.690  14.869  0.00  0.00    +0.005 C 
ATOM      2  C   UNL     1      49.705  12.194  15.053  0.00  0.00    -0.013 C 
BRANCH   2  44
ATOM     44  C   UNL     1      49.556  12.900  13.704  0.00  0.00    +0.022 C 
BRANCH  44  45
ATOM     45  C   UNL     1      50.930  13.030  13.042  0.00  0.00    +0.040 C 
BRANCH  45  46
ATOM     46  C   UNL     1      51.038  12.040  11.910  0.00  0.00    -0.051 C 
ATOM     47  C   UNL     1      51.098  12.465  10.673  0.00  0.00    -0.144 C 
ATOM     48  C   UNL     1      51.277  11.480   9.546  0.00  0.00    +0.067 C 
ATOM     49  C   UNL     1      50.989  13.938  10.376  0.00  0.00    +0.069 C 
ENDBRANCH  45  46
ENDBRANCH  44  45
ENDBRANCH   2  44
ENDBRANCH   3   2
BRANCH  13  14
ATOM     14  O   UNL     1      48.125  17.577  17.814  0.00  0.00    -0.548 OA
ATOM     15  H   UNL     1      47.411  18.170  17.542  0.00  0.00    +0.363 HD
ENDBRANCH  13  14
TORSDOF 12
ENDMDL
MODEL 6
REMARK VINA RESULT:      -5.1      3.169      5.092
REMARK  Name = ZINC95486229
REMARK  18 active torsions:
REMARK  status: ('A' for Active; 'I' for Inactive)
REMARK    1  A    between atoms: C1_1  and  C2_2
REMARK    2  A    between atoms: C2_2  and  C3_4
REMARK    3  A    between atoms: C2_2  and  C9_10
REMARK    4  A    between atoms: C3_4  and  C4_5
REMARK    5  A    between atoms: C4_5  and  C5_6
REMARK    6  A    between atoms: C6_7  and  C7_8
REMARK    7  A    between atoms: C6_7  and  C8_9
REMARK    8  A    between atoms: C12_14  and  C36_55
REMARK    9  A    between atoms: C13_15  and  C35_54
REMARK   10  A    between atoms: C23_27  and  O8_53
REMARK   11  A    between atoms: C25_30  and  C29_37
REMARK   12  A    between atoms: C26_32  and  C27_33
REMARK   13  A    between atoms: C26_32  and  C28_34
REMARK   14  A    between atoms: C30_39  and  O7_52
REMARK   15  A    between atoms: C31_41  and  O6_51
REMARK   16  A    between atoms: C32_43  and  O5_50
REMARK   17  A    between atoms: C33_45  and  C34_48
REMARK   18  A    between atoms: C34_48  and  O4_49
REMARK                            x       y       z     vdW  Elec       q    Type
REMARK                         _______ _______ _______ _____ _____    ______ ____
ROOT
ATOM      3  C   UNL     1      46.048  20.466  20.663  0.00  0.00    +0.002 C 
ATOM      4  C   UNL     1      45.988  21.163  19.276  0.00  0.00    +0.002 C 
ATOM      5  C   UNL     1      47.431  21.151  18.712  0.00  0.00    +0.004 C 
ATOM      6  C   UNL     1      48.191  20.201  19.645  0.00  0.00    -0.038 C 
ATOM      7  C   UNL     1      47.857  18.762  19.239  0.00  0.00    +0.037 C 
ATOM      8  C   UNL     1      49.686  20.406  19.718  0.00  0.00    +0.037 C 
ATOM      9  C   UNL     1      50.359  20.225  18.381  0.00  0.00    -0.003 C 
ATOM     10  C   UNL     1      50.654  18.808  17.957  0.00  0.00    +0.028 C 
ATOM     11  C   UNL     1      51.293  17.941  18.984  0.00  0.00    +0.010 C 
ATOM     12  C   UNL     1      51.028  18.250  20.433  0.00  0.00    -0.045 C 
ATOM     13  C   UNL     1      50.890  17.081  21.409  0.00  0.00    +0.193 C 
ATOM     16  C   UNL     1      51.689  15.866  20.999  0.00  0.00    -0.018 C 
ATOM     17  C   UNL     1      51.446  15.475  19.559  0.00  0.00    +0.079 C 
ATOM     33  C   UNL     1      51.791  19.486  20.961  0.00  0.00    -0.026 C 
ATOM     34  C   UNL     1      51.762  16.589  18.585  0.00  0.00    -0.103 C 
ATOM     38  C   UNL     1      53.284  16.650  18.412  0.00  0.00    +0.028 C 
ATOM     39  C   UNL     1      50.256  19.509  20.816  0.00  0.00    -0.073 C 
ATOM     40  C   UNL     1      49.534  19.574  22.171  0.00  0.00    +0.039 C 
ATOM     41  C   UNL     1      48.012  19.500  22.032  0.00  0.00    +0.032 C 
ATOM     42  C   UNL     1      47.547  20.519  21.017  0.00  0.00    -0.044 C 
ATOM     43  C   UNL     1      47.883  21.940  21.490  0.00  0.00    +0.017 C 
ENDROOT
BRANCH  17  18
ATOM     18  C   UNL     1      52.313  14.260  19.219  0.00  0.00    +0.180 C 
ATOM     19  C   UNL     1      51.455  12.994  19.258  0.00  0.00    +0.162 C 
ATOM     22  C   UNL     1      52.341  11.777  18.976  0.00  0.00    +0.152 C 
ATOM     25  C   UNL     1      53.478  11.740  20.002  0.00  0.00    +0.126 C 
ATOM     28  C   UNL     1      54.259  13.056  19.935  0.00  0.00    +0.126 C 
ATOM     32  O   UNL     1      53.370  14.148  20.174  0.00  0.00    -0.334 OA
BRANCH  19  20
ATOM     20  O   UNL     1      50.431  13.081  18.264  0.00  0.00    -0.533 OA
ATOM     21  H   UNL     1      50.764  13.240  17.370  0.00  0.00    +0.377 HD
ENDBRANCH  19  20
BRANCH  22  23
ATOM     23  O   UNL     1      51.562  10.584  19.080  0.00  0.00    -0.561 OA
ATOM     24  H   UNL     1      51.504  10.229  19.978  0.00  0.00    +0.385 HD
ENDBRANCH  22  23
BRANCH  25  26
ATOM     26  O   UNL     1      54.353  10.648  19.707  0.00  0.00    -0.561 OA
ATOM     27  H   UNL     1      53.938   9.779  19.790  0.00  0.00    +0.380 HD
ENDBRANCH  25  26
BRANCH  28  29
ATOM     29  C   UNL     1      55.359  13.050  20.998  0.00  0.00    +0.194 C 
BRANCH  29  30
ATOM     30  O   UNL     1      56.506  12.362  20.493  0.00  0.00    -0.550 OA
ATOM     31  H   UNL     1      56.300  11.533  20.041  0.00  0.00    +0.376 HD
ENDBRANCH  29  30
ENDBRANCH  28  29
ENDBRANCH  17  18
BRANCH  34  35
ATOM     35  C   UNL     1      51.164  16.215  17.253  0.00  0.00    +0.506 C 
ATOM     36  O   UNL     1      50.007  15.839  17.190  0.00  0.00    -0.689 OA
ATOM     37  O   UNL     1      51.838  16.288  16.240  0.00  0.00    -0.703 OA
ENDBRANCH  34  35
BRANCH   3   2
ATOM      1  C   UNL     1      44.338  22.264  20.969  0.00  0.00    +0.005 C 
ATOM      2  C   UNL     1      45.234  21.257  21.692  0.00  0.00    -0.013 C 
BRANCH   2  44
ATOM     44  C   UNL     1      44.366  20.294  22.505  0.00  0.00    +0.022 C 
BRANCH  44  45
ATOM     45  C   UNL     1      44.044  19.060  21.660  0.00  0.00    +0.040 C 
BRANCH  45  46
ATOM     46  C   UNL     1      42.589  18.702  21.830  0.00  0.00    -0.051 C 
ATOM     47  C   UNL     1      41.738  18.947  20.865  0.00  0.00    -0.144 C 
ATOM     48  C   UNL     1      40.298  18.526  21.006  0.00  0.00    +0.067 C 
ATOM     49  C   UNL     1      42.198  19.652  19.615  0.00  0.00    +0.069 C 
ENDBRANCH  45  46
ENDBRANCH  44  45
ENDBRANCH   2  44
ENDBRANCH   3   2
BRANCH  13  14
ATOM     14  O   UNL     1      49.515  16.704  21.494  0.00  0.00    -0.548 OA
ATOM     15  H   UNL     1      49.355  15.911  22.024  0.00  0.00    +0.363 HD
ENDBRANCH  13  14
TORSDOF 12
ENDMDL
MODEL 7
REMARK VINA RESULT:      -4.0      3.477      9.064
REMARK  Name = ZINC95486229
REMARK  18 active torsions:
REMARK  status: ('A' for Active; 'I' for Inactive)
REMARK    1  A    between atoms: C1_1  and  C2_2
REMARK    2  A    between atoms: C2_2  and  C3_4
REMARK    3  A    between atoms: C2_2  and  C9_10
REMARK    4  A    between atoms: C3_4  and  C4_5
REMARK    5  A    between atoms: C4_5  and  C5_6
REMARK    6  A    between atoms: C6_7  and  C7_8
REMARK    7  A    between atoms: C6_7  and  C8_9
REMARK    8  A    between atoms: C12_14  and  C36_55
REMARK    9  A    between atoms: C13_15  and  C35_54
REMARK   10  A    between atoms: C23_27  and  O8_53
REMARK   11  A    between atoms: C25_30  and  C29_37
REMARK   12  A    between atoms: C26_32  and  C27_33
REMARK   13  A    between atoms: C26_32  and  C28_34
REMARK   14  A    between atoms: C30_39  and  O7_52
REMARK   15  A    between atoms: C31_41  and  O6_51
REMARK   16  A    between atoms: C32_43  and  O5_50
REMARK   17  A    between atoms: C33_45  and  C34_48
REMARK   18  A    between atoms: C34_48  and  O4_49
REMARK                            x       y       z     vdW  Elec       q    Type
REMARK                         _______ _______ _______ _____ _____    ______ ____
ROOT
ATOM      3  C   UNL     1      46.607  11.916  16.357  0.00  0.00    +0.002 C 
ATOM      4  C   UNL     1      45.132  12.060  16.823  0.00  0.00    +0.002 C 
ATOM      5  C   UNL     1      45.176  12.668  18.248  0.00  0.00    +0.004 C 
ATOM      6  C   UNL     1      46.631  13.117  18.420  0.00  0.00    -0.038 C 
ATOM      7  C   UNL     1      46.812  14.447  17.682  0.00  0.00    +0.037 C 
ATOM      8  C   UNL     1      47.125  13.221  19.845  0.00  0.00    +0.037 C 
ATOM      9  C   UNL     1      46.335  14.214  20.658  0.00  0.00    -0.003 C 
ATOM     10  C   UNL     1      46.711  15.668  20.506  0.00  0.00    +0.028 C 
ATOM     11  C   UNL     1      48.166  15.973  20.577  0.00  0.00    +0.010 C 
ATOM     12  C   UNL     1      49.135  14.901  20.161  0.00  0.00    -0.045 C 
ATOM     13  C   UNL     1      50.409  15.322  19.426  0.00  0.00    +0.193 C 
ATOM     16  C   UNL     1      50.883  16.704  19.803  0.00  0.00    -0.018 C 
ATOM     17  C   UNL     1      49.780  17.735  19.725  0.00  0.00    +0.079 C 
ATOM     33  C   UNL     1      49.294  13.762  21.194  0.00  0.00    -0.026 C 
ATOM     34  C   UNL     1      48.595  17.395  20.603  0.00  0.00    -0.103 C 
ATOM     38  C   UNL     1      48.958  17.753  22.049  0.00  0.00    +0.028 C 
ATOM     39  C   UNL     1      48.627  13.500  19.829  0.00  0.00    -0.073 C 
ATOM     40  C   UNL     1      49.467  12.583  18.926  0.00  0.00    +0.039 C 
ATOM     41  C   UNL     1      48.851  12.400  17.537  0.00  0.00    +0.032 C 
ATOM     42  C   UNL     1      47.400  11.998  17.675  0.00  0.00    -0.044 C 
ATOM     43  C   UNL     1      47.284  10.648  18.396  0.00  0.00    +0.017 C 
ENDROOT
BRANCH  17  18
ATOM     18  C   UNL     1      50.337  19.095  20.151  0.00  0.00    +0.180 C 
ATOM     19  C   UNL     1      50.821  19.857  18.915  0.00  0.00    +0.162 C 
ATOM     22  C   UNL     1      51.432  21.192  19.355  0.00  0.00    +0.152 C 
ATOM     25  C   UNL     1      52.564  20.918  20.351  0.00  0.00    +0.126 C 
ATOM     28  C   UNL     1      52.011  20.115  21.531  0.00  0.00    +0.126 C 
ATOM     32  O   UNL     1      51.430  18.902  21.049  0.00  0.00    -0.334 OA
BRANCH  19  20
ATOM     20  O   UNL     1      49.717  20.102  18.041  0.00  0.00    -0.533 OA
ATOM     21  H   UNL     1      49.876  19.838  17.124  0.00  0.00    +0.377 HD
ENDBRANCH  19  20
BRANCH  22  23
ATOM     23  O   UNL     1      51.951  21.878  18.215  0.00  0.00    -0.561 OA
ATOM     24  H   UNL     1      52.902  21.759  18.083  0.00  0.00    +0.385 HD
ENDBRANCH  22  23
BRANCH  25  26
ATOM     26  O   UNL     1      53.095  22.159  20.822  0.00  0.00    -0.561 OA
ATOM     27  H   UNL     1      52.619  22.529  21.577  0.00  0.00    +0.380 HD
ENDBRANCH  25  26
BRANCH  28  29
ATOM     29  C   UNL     1      53.149  19.787  22.500  0.00  0.00    +0.194 C 
BRANCH  29  30
ATOM     30  O   UNL     1      53.585  18.442  22.284  0.00  0.00    -0.550 OA
ATOM     31  H   UNL     1      53.689  18.208  21.353  0.00  0.00    +0.376 HD
ENDBRANCH  29  30
ENDBRANCH  28  29
ENDBRANCH  17  18
BRANCH  34  35
ATOM     35  C   UNL     1      47.449  18.281  20.185  0.00  0.00    +0.506 C 
ATOM     36  O   UNL     1      46.687  18.728  21.025  0.00  0.00    -0.689 OA
ATOM     37  O   UNL     1      47.283  18.548  19.007  0.00  0.00    -0.703 OA
ENDBRANCH  34  35
BRANCH   3   2
ATOM      1  C   UNL     1      45.713  10.298  14.674  0.00  0.00    +0.005 C 
ATOM      2  C   UNL     1      46.825  10.553  15.693  0.00  0.00    -0.013 C 
BRANCH   2  44
ATOM     44  C   UNL     1      48.180  10.541  14.983  0.00  0.00    +0.022 C 
BRANCH  44  45
ATOM     45  C   UNL     1      48.356  11.844  14.199  0.00  0.00    +0.040 C 
BRANCH  45  46
ATOM     46  C   UNL     1      49.757  12.363  14.397  0.00  0.00    -0.051 C 
ATOM     47  C   UNL     1      50.388  12.937  13.403  0.00  0.00    -0.144 C 
ATOM     48  C   UNL     1      51.762  13.519  13.618  0.00  0.00    +0.067 C 
ATOM     49  C   UNL     1      49.743  13.013  12.043  0.00  0.00    +0.069 C 
ENDBRANCH  45  46
ENDBRANCH  44  45
ENDBRANCH   2  44
ENDBRANCH   3   2
BRANCH  13  14
ATOM     14  O   UNL     1      50.163  15.300  18.019  0.00  0.00    -0.548 OA
ATOM     15  H   UNL     1      50.417  14.473  17.587  0.00  0.00    +0.363 HD
ENDBRANCH  13  14
TORSDOF 12
ENDMDL
MODEL 8
REMARK VINA RESULT:      -3.2      3.091      9.544
REMARK  Name = ZINC95486229
REMARK  18 active torsions:
REMARK  status: ('A' for Active; 'I' for Inactive)
REMARK    1  A    between atoms: C1_1  and  C2_2
REMARK    2  A    between atoms: C2_2  and  C3_4
REMARK    3  A    between atoms: C2_2  and  C9_10
REMARK    4  A    between atoms: C3_4  and  C4_5
REMARK    5  A    between atoms: C4_5  and  C5_6
REMARK    6  A    between atoms: C6_7  and  C7_8
REMARK    7  A    between atoms: C6_7  and  C8_9
REMARK    8  A    between atoms: C12_14  and  C36_55
REMARK    9  A    between atoms: C13_15  and  C35_54
REMARK   10  A    between atoms: C23_27  and  O8_53
REMARK   11  A    between atoms: C25_30  and  C29_37
REMARK   12  A    between atoms: C26_32  and  C27_33
REMARK   13  A    between atoms: C26_32  and  C28_34
REMARK   14  A    between atoms: C30_39  and  O7_52
REMARK   15  A    between atoms: C31_41  and  O6_51
REMARK   16  A    between atoms: C32_43  and  O5_50
REMARK   17  A    between atoms: C33_45  and  C34_48
REMARK   18  A    between atoms: C34_48  and  O4_49
REMARK                            x       y       z     vdW  Elec       q    Type
REMARK                         _______ _______ _______ _____ _____    ______ ____
ROOT
ATOM      3  C   UNL     1      50.943  12.472  17.364  0.00  0.00    +0.002 C 
ATOM      4  C   UNL     1      50.867  13.014  15.910  0.00  0.00    +0.002 C 
ATOM      5  C   UNL     1      49.464  13.653  15.750  0.00  0.00    +0.004 C 
ATOM      6  C   UNL     1      48.915  13.717  17.180  0.00  0.00    -0.038 C 
ATOM      7  C   UNL     1      49.551  14.920  17.884  0.00  0.00    +0.037 C 
ATOM      8  C   UNL     1      47.410  13.754  17.307  0.00  0.00    +0.037 C 
ATOM      9  C   UNL     1      46.803  14.954  16.626  0.00  0.00    -0.003 C 
ATOM     10  C   UNL     1      46.820  16.252  17.395  0.00  0.00    +0.028 C 
ATOM     11  C   UNL     1      46.371  16.173  18.812  0.00  0.00    +0.010 C 
ATOM     12  C   UNL     1      46.551  14.868  19.539  0.00  0.00    -0.045 C 
ATOM     13  C   UNL     1      46.925  14.910  21.021  0.00  0.00    +0.193 C 
ATOM     16  C   UNL     1      46.407  16.138  21.731  0.00  0.00    -0.018 C 
ATOM     17  C   UNL     1      46.740  17.415  20.993  0.00  0.00    +0.079 C 
ATOM     33  C   UNL     1      45.538  13.775  19.128  0.00  0.00    -0.026 C 
ATOM     34  C   UNL     1      46.203  17.435  19.578  0.00  0.00    -0.103 C 
ATOM     38  C   UNL     1      44.705  17.751  19.644  0.00  0.00    +0.028 C 
ATOM     39  C   UNL     1      47.034  13.633  18.782  0.00  0.00    -0.073 C 
ATOM     40  C   UNL     1      47.713  12.490  19.552  0.00  0.00    +0.039 C 
ATOM     41  C   UNL     1      49.217  12.410  19.282  0.00  0.00    +0.032 C 
ATOM     42  C   UNL     1      49.464  12.404  17.791  0.00  0.00    -0.044 C 
ATOM     43  C   UNL     1      48.829  11.165  17.147  0.00  0.00    +0.017 C 
ENDROOT
BRANCH  17  18
ATOM     18  C   UNL     1      46.155  18.602  21.761  0.00  0.00    +0.180 C 
ATOM     19  C   UNL     1      44.629  18.490  21.788  0.00  0.00    +0.162 C 
ATOM     22  C   UNL     1      44.047  19.711  22.505  0.00  0.00    +0.152 C 
ATOM     25  C   UNL     1      44.524  20.982  21.794  0.00  0.00    +0.126 C 
ATOM     28  C   UNL     1      46.054  20.998  21.767  0.00  0.00    +0.126 C 
ATOM     32  O   UNL     1      46.531  19.820  21.114  0.00  0.00    -0.334 OA
BRANCH  19  20
ATOM     20  O   UNL     1      44.250  17.300  22.485  0.00  0.00    -0.533 OA
ATOM     21  H   UNL     1      44.517  16.483  22.041  0.00  0.00    +0.377 HD
ENDBRANCH  19  20
BRANCH  22  23
ATOM     23  O   UNL     1      42.620  19.650  22.473  0.00  0.00    -0.561 OA
ATOM     24  H   UNL     1      42.218  19.407  23.319  0.00  0.00    +0.385 HD
ENDBRANCH  22  23
BRANCH  25  26
ATOM     26  O   UNL     1      44.045  22.131  22.496  0.00  0.00    -0.561 OA
ATOM     27  H   UNL     1      43.781  21.952  23.409  0.00  0.00    +0.380 HD
ENDBRANCH  25  26
BRANCH  28  29
ATOM     29  C   UNL     1      46.537  22.234  21.005  0.00  0.00    +0.194 C 
BRANCH  29  30
ATOM     30  O   UNL     1      46.559  23.359  21.887  0.00  0.00    -0.550 OA
ATOM     31  H   UNL     1      46.983  23.183  22.737  0.00  0.00    +0.376 HD
ENDBRANCH  29  30
ENDBRANCH  28  29
ENDBRANCH  17  18
BRANCH  34  35
ATOM     35  C   UNL     1      46.880  18.567  18.849  0.00  0.00    +0.506 C 
ATOM     36  O   UNL     1      46.211  19.393  18.253  0.00  0.00    -0.689 OA
ATOM     37  O   UNL     1      48.096  18.655  18.854  0.00  0.00    -0.703 OA
ENDBRANCH  34  35
BRANCH   3   2
ATOM      1  C   UNL     1      52.425  10.881  16.130  0.00  0.00    +0.005 C 
ATOM      2  C   UNL     1      51.561  11.070  17.378  0.00  0.00    -0.013 C 
BRANCH   2  44
ATOM     44  C   UNL     1      52.428  10.906  18.628  0.00  0.00    +0.022 C 
BRANCH  44  45
ATOM     45  C   UNL     1      53.202  12.200  18.885  0.00  0.00    +0.040 C 
BRANCH  45  46
ATOM     46  C   UNL     1      52.751  12.804  20.190  0.00  0.00    -0.051 C 
ATOM     47  C   UNL     1      52.602  14.101  20.295  0.00  0.00    -0.144 C 
ATOM     48  C   UNL     1      52.084  14.699  21.577  0.00  0.00    +0.067 C 
ATOM     49  C   UNL     1      52.950  14.996  19.133  0.00  0.00    +0.069 C 
ENDBRANCH  45  46
ENDBRANCH  44  45
ENDBRANCH   2  44
ENDBRANCH   3   2
BRANCH  13  14
ATOM     14  O   UNL     1      48.348  14.889  21.143  0.00  0.00    -0.548 OA
ATOM     15  H   UNL     1      48.672  15.108  22.028  0.00  0.00    +0.363 HD
ENDBRANCH  13  14
TORSDOF 12
ENDMDL
MODEL 9
REMARK VINA RESULT:      -2.9      1.932      2.931
REMARK  Name = ZINC95486229
REMARK  18 active torsions:
REMARK  status: ('A' for Active; 'I' for Inactive)
REMARK    1  A    between atoms: C1_1  and  C2_2
REMARK    2  A    between atoms: C2_2  and  C3_4
REMARK    3  A    between atoms: C2_2  and  C9_10
REMARK    4  A    between atoms: C3_4  and  C4_5
REMARK    5  A    between atoms: C4_5  and  C5_6
REMARK    6  A    between atoms: C6_7  and  C7_8
REMARK    7  A    between atoms: C6_7  and  C8_9
REMARK    8  A    between atoms: C12_14  and  C36_55
REMARK    9  A    between atoms: C13_15  and  C35_54
REMARK   10  A    between atoms: C23_27  and  O8_53
REMARK   11  A    between atoms: C25_30  and  C29_37
REMARK   12  A    between atoms: C26_32  and  C27_33
REMARK   13  A    between atoms: C26_32  and  C28_34
REMARK   14  A    between atoms: C30_39  and  O7_52
REMARK   15  A    between atoms: C31_41  and  O6_51
REMARK   16  A    between atoms: C32_43  and  O5_50
REMARK   17  A    between atoms: C33_45  and  C34_48
REMARK   18  A    between atoms: C34_48  and  O4_49
REMARK                            x       y       z     vdW  Elec       q    Type
REMARK                         _______ _______ _______ _____ _____    ______ ____
ROOT
ATOM      3  C   UNL     1      45.806  20.290  20.300  0.00  0.00    +0.002 C 
ATOM      4  C   UNL     1      46.969  21.319  20.341  0.00  0.00    +0.002 C 
ATOM      5  C   UNL     1      48.265  20.511  20.602  0.00  0.00    +0.004 C 
ATOM      6  C   UNL     1      47.843  19.051  20.404  0.00  0.00    -0.038 C 
ATOM      7  C   UNL     1      47.786  18.767  18.900  0.00  0.00    +0.037 C 
ATOM      8  C   UNL     1      48.689  18.019  21.115  0.00  0.00    +0.037 C 
ATOM      9  C   UNL     1      50.129  18.049  20.670  0.00  0.00    -0.003 C 
ATOM     10  C   UNL     1      50.459  17.322  19.390  0.00  0.00    +0.028 C 
ATOM     11  C   UNL     1      49.901  15.949  19.259  0.00  0.00    +0.010 C 
ATOM     12  C   UNL     1      48.628  15.631  19.995  0.00  0.00    -0.045 C 
ATOM     13  C   UNL     1      47.616  14.701  19.322  0.00  0.00    +0.193 C 
ATOM     16  C   UNL     1      48.256  13.699  18.392  0.00  0.00    -0.018 C 
ATOM     17  C   UNL     1      49.215  14.345  17.417  0.00  0.00    +0.079 C 
ATOM     33  C   UNL     1      48.812  15.441  21.517  0.00  0.00    -0.026 C 
ATOM     34  C   UNL     1      50.322  15.115  18.104  0.00  0.00    -0.103 C 
ATOM     38  C   UNL     1      51.361  14.105  18.604  0.00  0.00    +0.028 C 
ATOM     39  C   UNL     1      48.030  16.649  20.962  0.00  0.00    -0.073 C 
ATOM     40  C   UNL     1      46.532  16.588  21.297  0.00  0.00    +0.039 C 
ATOM     41  C   UNL     1      45.740  17.735  20.665  0.00  0.00    +0.032 C 
ATOM     42  C   UNL     1      46.409  19.051  20.990  0.00  0.00    -0.044 C 
ATOM     43  C   UNL     1      46.411  19.292  22.505  0.00  0.00    +0.017 C 
ENDROOT
BRANCH  17  18
ATOM     18  C   UNL     1      49.839  13.260  16.537  0.00  0.00    +0.180 C 
ATOM     19  C   UNL     1      50.666  12.311  17.407  0.00  0.00    +0.162 C 
ATOM     22  C   UNL     1      51.336  11.264  16.512  0.00  0.00    +0.152 C 
ATOM     25  C   UNL     1      52.188  11.979  15.459  0.00  0.00    +0.126 C 
ATOM     28  C   UNL     1      51.301  12.941  14.664  0.00  0.00    +0.126 C 
ATOM     32  O   UNL     1      50.684  13.868  15.559  0.00  0.00    -0.334 OA
BRANCH  19  20
ATOM     20  O   UNL     1      49.811  11.659  18.349  0.00  0.00    -0.533 OA
ATOM     21  H   UNL     1      48.987  11.327  17.968  0.00  0.00    +0.377 HD
ENDBRANCH  19  20
BRANCH  22  23
ATOM     23  O   UNL     1      52.167  10.417  17.307  0.00  0.00    -0.561 OA
ATOM     24  H   UNL     1      52.189   9.497  17.010  0.00  0.00    +0.385 HD
ENDBRANCH  22  23
BRANCH  25  26
ATOM     26  O   UNL     1      52.762  11.015  14.574  0.00  0.00    -0.561 OA
ATOM     27  H   UNL     1      52.529  10.101  14.784  0.00  0.00    +0.380 HD
ENDBRANCH  25  26
BRANCH  28  29
ATOM     29  C   UNL     1      52.157  13.703  13.650  0.00  0.00    +0.194 C 
BRANCH  29  30
ATOM     30  O   UNL     1      52.523  14.973  14.195  0.00  0.00    -0.550 OA
ATOM     31  H   UNL     1      51.787  15.457  14.592  0.00  0.00    +0.376 HD
ENDBRANCH  29  30
ENDBRANCH  28  29
ENDBRANCH  17  18
BRANCH  34  35
ATOM     35  C   UNL     1      50.987  15.982  17.066  0.00  0.00    +0.506 C 
ATOM     36  O   UNL     1      52.190  15.904  16.888  0.00  0.00    -0.689 OA
ATOM     37  O   UNL     1      50.322  16.761  16.406  0.00  0.00    -0.703 OA
ENDBRANCH  34  35
BRANCH   3   2
ATOM      1  C   UNL     1      44.406  22.297  20.813  0.00  0.00    +0.005 C 
ATOM      2  C   UNL     1      44.607  20.809  21.101  0.00  0.00    -0.013 C 
BRANCH   2  44
ATOM     44  C   UNL     1      43.349  20.037  20.695  0.00  0.00    +0.022 C 
BRANCH  44  45
ATOM     45  C   UNL     1      43.055  20.285  19.215  0.00  0.00    +0.040 C 
BRANCH  45  46
ATOM     46  C   UNL     1      41.566  20.236  18.984  0.00  0.00    -0.051 C 
ATOM     47  C   UNL     1      40.915  21.329  18.672  0.00  0.00    -0.144 C 
ATOM     48  C   UNL     1      39.439  21.268  18.373  0.00  0.00    +0.067 C 
ATOM     49  C   UNL     1      41.642  22.647  18.612  0.00  0.00    +0.069 C 
ENDBRANCH  45  46
ENDBRANCH  44  45
ENDBRANCH   2  44
ENDBRANCH   3   2
BRANCH  13  14
ATOM     14  O   UNL     1      46.692  15.487  18.567  0.00  0.00    -0.548 OA
ATOM     15  H   UNL     1      46.840  16.440  18.632  0.00  0.00    +0.363 HD
ENDBRANCH  13  14
TORSDOF 12
ENDMDL
