MODEL 1
REMARK VINA RESULT:      -6.2      0.000      0.000
REMARK  Name = ZINC06394172
REMARK  7 active torsions:
REMARK  status: ('A' for Active; 'I' for Inactive)
REMARK    1  A    between atoms: C1_1  and  C2_2
REMARK    2  A    between atoms: C2_2  and  C23_31
REMARK    3  A    between atoms: C15_18  and  O6_28
REMARK    4  A    between atoms: C16_19  and  O5_26
REMARK    5  A    between atoms: C19_22  and  O4_25
REMARK    6  A    between atoms: O5_26  and  C21_27
REMARK    7  A    between atoms: O6_28  and  C22_29
REMARK                            x       y       z     vdW  Elec       q    Type
REMARK                         _______ _______ _______ _____ _____    ______ ____
ROOT
ATOM      1  C   UNL     1      53.482  16.368  19.508  0.00  0.00    +0.086 C 
ATOM      2  C   UNL     1      52.239  17.169  19.901  0.00  0.00    +0.145 C 
ATOM      3  C   UNL     1      52.487  17.856  21.246  0.00  0.00    +0.038 C 
ATOM      4  C   UNL     1      51.066  16.234  20.029  0.00  0.00    -0.053 C 
ATOM      5  C   UNL     1      49.832  16.681  19.803  0.00  0.00    +0.060 C 
ATOM      6  C   UNL     1      49.667  18.099  19.418  0.00  0.00    -0.175 A 
ATOM      7  C   UNL     1      50.792  18.806  18.969  0.00  0.00    +0.207 A 
ATOM      8  C   UNL     1      50.679  20.139  18.597  0.00  0.00    -0.038 A 
ATOM      9  C   UNL     1      49.460  20.777  18.673  0.00  0.00    +0.161 A 
ATOM     10  C   UNL     1      48.333  20.085  19.125  0.00  0.00    -0.275 A 
ATOM     11  C   UNL     1      47.028  20.769  19.223  0.00  0.00    +0.393 C 
ATOM     12  O   UNL     1      46.824  21.856  18.723  0.00  0.00    -0.422 OA
ATOM     13  C   UNL     1      45.964  20.015  19.994  0.00  0.00    +0.115 C 
ATOM     16  C   UNL     1      44.588  20.524  19.678  0.00  0.00    -0.204 A 
ATOM     17  C   UNL     1      44.379  21.886  19.539  0.00  0.00    +0.046 A 
ATOM     18  C   UNL     1      43.113  22.374  19.266  0.00  0.00    +0.069 A 
ATOM     21  C   UNL     1      42.047  21.491  19.130  0.00  0.00    +0.155 A 
ATOM     24  C   UNL     1      42.256  20.131  19.267  0.00  0.00    -0.060 A 
ATOM     25  C   UNL     1      43.529  19.639  19.537  0.00  0.00    +0.159 A 
ATOM     26  O   UNL     1      43.688  18.294  19.651  0.00  0.00    -0.298 OA
ATOM     27  C   UNL     1      44.911  17.782  20.187  0.00  0.00    +0.305 C 
ATOM     28  C   UNL     1      46.064  18.548  19.543  0.00  0.00    +0.173 C 
ATOM     29  O   UNL     1      47.338  18.040  19.922  0.00  0.00    -0.275 OA
ATOM     30  C   UNL     1      48.428  18.731  19.497  0.00  0.00    +0.229 A 
ATOM     31  O   UNL     1      51.983  18.160  18.906  0.00  0.00    -0.296 OA
ENDROOT
BRANCH  13  14
ATOM     14  O   UNL     1      46.208  20.110  21.399  0.00  0.00    -0.515 OA
ATOM     15  H   UNL     1      45.421  19.971  21.944  0.00  0.00    +0.388 HD
ENDBRANCH  13  14
BRANCH  18  19
ATOM     19  O   UNL     1      42.913  23.714  19.131  0.00  0.00    -0.303 OA
ATOM     20  C   UNL     1      44.044  24.504  18.756  0.00  0.00    +0.239 C 
ENDBRANCH  18  19
BRANCH  21  22
ATOM     22  O   UNL     1      40.800  21.966  18.866  0.00  0.00    -0.297 OA
ATOM     23  C   UNL     1      39.838  21.027  18.381  0.00  0.00    +0.245 C 
ENDBRANCH  21  22
TORSDOF 3
ENDMDL
MODEL 2
REMARK VINA RESULT:      -6.2      3.873      5.707
REMARK  Name = ZINC06394172
REMARK  7 active torsions:
REMARK  status: ('A' for Active; 'I' for Inactive)
REMARK    1  A    between atoms: C1_1  and  C2_2
REMARK    2  A    between atoms: C2_2  and  C23_31
REMARK    3  A    between atoms: C15_18  and  O6_28
REMARK    4  A    between atoms: C16_19  and  O5_26
REMARK    5  A    between atoms: C19_22  and  O4_25
REMARK    6  A    between atoms: O5_26  and  C21_27
REMARK    7  A    between atoms: O6_28  and  C22_29
REMARK                            x       y       z     vdW  Elec       q    Type
REMARK                         _______ _______ _______ _____ _____    ______ ____
ROOT
ATOM      1  C   UNL     1      49.525  10.606  15.109  0.00  0.00    +0.086 C 
ATOM      2  C   UNL     1      48.725  11.854  15.490  0.00  0.00    +0.145 C 
ATOM      3  C   UNL     1      47.708  12.156  14.388  0.00  0.00    +0.038 C 
ATOM      4  C   UNL     1      49.666  13.022  15.632  0.00  0.00    -0.053 C 
ATOM      5  C   UNL     1      49.364  14.022  16.458  0.00  0.00    +0.060 C 
ATOM      6  C   UNL     1      48.102  13.933  17.223  0.00  0.00    -0.175 A 
ATOM      7  C   UNL     1      47.467  12.686  17.324  0.00  0.00    +0.207 A 
ATOM      8  C   UNL     1      46.280  12.561  18.034  0.00  0.00    -0.038 A 
ATOM      9  C   UNL     1      45.717  13.663  18.639  0.00  0.00    +0.161 A 
ATOM     10  C   UNL     1      46.337  14.912  18.541  0.00  0.00    -0.275 A 
ATOM     11  C   UNL     1      45.729  16.098  19.175  0.00  0.00    +0.393 C 
ATOM     12  O   UNL     1      44.818  16.014  19.972  0.00  0.00    -0.422 OA
ATOM     13  C   UNL     1      46.324  17.426  18.757  0.00  0.00    +0.115 C 
ATOM     16  C   UNL     1      45.994  18.514  19.737  0.00  0.00    -0.204 A 
ATOM     17  C   UNL     1      44.727  18.571  20.291  0.00  0.00    +0.046 A 
ATOM     18  C   UNL     1      44.398  19.577  21.183  0.00  0.00    +0.069 A 
ATOM     21  C   UNL     1      45.349  20.535  21.523  0.00  0.00    +0.155 A 
ATOM     24  C   UNL     1      46.615  20.476  20.972  0.00  0.00    -0.060 A 
ATOM     25  C   UNL     1      46.947  19.463  20.078  0.00  0.00    +0.159 A 
ATOM     26  O   UNL     1      48.208  19.439  19.571  0.00  0.00    -0.298 OA
ATOM     27  C   UNL     1      48.494  18.583  18.461  0.00  0.00    +0.305 C 
ATOM     28  C   UNL     1      47.849  17.227  18.736  0.00  0.00    +0.173 C 
ATOM     29  O   UNL     1      48.169  16.258  17.743  0.00  0.00    -0.275 OA
ATOM     30  C   UNL     1      47.545  15.055  17.833  0.00  0.00    +0.229 A 
ATOM     31  O   UNL     1      48.036  11.615  16.716  0.00  0.00    -0.296 OA
ENDROOT
BRANCH  13  14
ATOM     14  O   UNL     1      45.862  17.789  17.453  0.00  0.00    -0.515 OA
ATOM     15  H   UNL     1      44.963  18.145  17.441  0.00  0.00    +0.388 HD
ENDBRANCH  13  14
BRANCH  18  19
ATOM     19  O   UNL     1      43.151  19.629  21.725  0.00  0.00    -0.303 OA
ATOM     20  C   UNL     1      42.287  18.520  21.470  0.00  0.00    +0.239 C 
ENDBRANCH  18  19
BRANCH  21  22
ATOM     22  O   UNL     1      45.031  21.529  22.396  0.00  0.00    -0.297 OA
ATOM     23  C   UNL     1      44.773  22.820  21.841  0.00  0.00    +0.245 C 
ENDBRANCH  21  22
TORSDOF 3
ENDMDL
MODEL 3
REMARK VINA RESULT:      -6.1      2.717      4.676
REMARK  Name = ZINC06394172
REMARK  7 active torsions:
REMARK  status: ('A' for Active; 'I' for Inactive)
REMARK    1  A    between atoms: C1_1  and  C2_2
REMARK    2  A    between atoms: C2_2  and  C23_31
REMARK    3  A    between atoms: C15_18  and  O6_28
REMARK    4  A    between atoms: C16_19  and  O5_26
REMARK    5  A    between atoms: C19_22  and  O4_25
REMARK    6  A    between atoms: O5_26  and  C21_27
REMARK    7  A    between atoms: O6_28  and  C22_29
REMARK                            x       y       z     vdW  Elec       q    Type
REMARK                         _______ _______ _______ _____ _____    ______ ____
ROOT
ATOM      1  C   UNL     1      49.644  10.911  20.206  0.00  0.00    +0.086 C 
ATOM      2  C   UNL     1      48.837  12.095  19.670  0.00  0.00    +0.145 C 
ATOM      3  C   UNL     1      48.235  11.721  18.314  0.00  0.00    +0.038 C 
ATOM      4  C   UNL     1      49.749  13.282  19.499  0.00  0.00    -0.053 C 
ATOM      5  C   UNL     1      49.259  14.516  19.598  0.00  0.00    +0.060 C 
ATOM      6  C   UNL     1      47.818  14.670  19.890  0.00  0.00    -0.175 A 
ATOM      7  C   UNL     1      47.115  13.563  20.389  0.00  0.00    +0.207 A 
ATOM      8  C   UNL     1      45.760  13.667  20.677  0.00  0.00    -0.038 A 
ATOM      9  C   UNL     1      45.098  14.857  20.466  0.00  0.00    +0.161 A 
ATOM     10  C   UNL     1      45.787  15.964  19.963  0.00  0.00    -0.275 A 
ATOM     11  C   UNL     1      45.077  17.236  19.722  0.00  0.00    +0.393 C 
ATOM     12  O   UNL     1      43.959  17.448  20.143  0.00  0.00    -0.422 OA
ATOM     13  C   UNL     1      45.847  18.257  18.910  0.00  0.00    +0.115 C 
ATOM     16  C   UNL     1      45.287  19.639  19.085  0.00  0.00    -0.204 A 
ATOM     17  C   UNL     1      43.915  19.818  19.131  0.00  0.00    +0.046 A 
ATOM     18  C   UNL     1      43.381  21.087  19.273  0.00  0.00    +0.069 A 
ATOM     21  C   UNL     1      44.228  22.186  19.370  0.00  0.00    +0.155 A 
ATOM     24  C   UNL     1      45.598  22.007  19.326  0.00  0.00    -0.060 A 
ATOM     25  C   UNL     1      46.137  20.731  19.188  0.00  0.00    +0.159 A 
ATOM     26  O   UNL     1      47.490  20.603  19.162  0.00  0.00    -0.298 OA
ATOM     27  C   UNL     1      48.061  19.356  18.755  0.00  0.00    +0.305 C 
ATOM     28  C   UNL     1      47.288  18.237  19.448  0.00  0.00    +0.173 C 
ATOM     29  O   UNL     1      47.848  16.951  19.203  0.00  0.00    -0.275 OA
ATOM     30  C   UNL     1      47.161  15.880  19.676  0.00  0.00    +0.229 A 
ATOM     31  O   UNL     1      47.784  12.401  20.584  0.00  0.00    -0.296 OA
ENDROOT
BRANCH  13  14
ATOM     14  O   UNL     1      45.839  17.899  17.526  0.00  0.00    -0.515 OA
ATOM     15  H   UNL     1      44.984  18.031  17.092  0.00  0.00    +0.388 HD
ENDBRANCH  13  14
BRANCH  18  19
ATOM     19  O   UNL     1      42.031  21.258  19.317  0.00  0.00    -0.303 OA
ATOM     20  C   UNL     1      41.241  20.396  18.496  0.00  0.00    +0.239 C 
ENDBRANCH  18  19
BRANCH  21  22
ATOM     22  O   UNL     1      43.709  23.436  19.505  0.00  0.00    -0.297 OA
ATOM     23  C   UNL     1      44.340  24.484  18.767  0.00  0.00    +0.245 C 
ENDBRANCH  21  22
TORSDOF 3
ENDMDL
MODEL 4
REMARK VINA RESULT:      -6.0      4.063      8.358
REMARK  Name = ZINC06394172
REMARK  7 active torsions:
REMARK  status: ('A' for Active; 'I' for Inactive)
REMARK    1  A    between atoms: C1_1  and  C2_2
REMARK    2  A    between atoms: C2_2  and  C23_31
REMARK    3  A    between atoms: C15_18  and  O6_28
REMARK    4  A    between atoms: C16_19  and  O5_26
REMARK    5  A    between atoms: C19_22  and  O4_25
REMARK    6  A    between atoms: O5_26  and  C21_27
REMARK    7  A    between atoms: O6_28  and  C22_29
REMARK                            x       y       z     vdW  Elec       q    Type
REMARK                         _______ _______ _______ _____ _____    ______ ____
ROOT
ATOM      1  C   UNL     1      46.556  23.133  21.412  0.00  0.00    +0.086 C 
ATOM      2  C   UNL     1      46.738  21.662  21.032  0.00  0.00    +0.145 C 
ATOM      3  C   UNL     1      46.060  20.783  22.084  0.00  0.00    +0.038 C 
ATOM      4  C   UNL     1      48.208  21.339  20.986  0.00  0.00    -0.053 C 
ATOM      5  C   UNL     1      48.651  20.375  20.180  0.00  0.00    +0.060 C 
ATOM      6  C   UNL     1      47.664  19.661  19.342  0.00  0.00    -0.175 A 
ATOM      7  C   UNL     1      46.399  20.239  19.161  0.00  0.00    +0.207 A 
ATOM      8  C   UNL     1      45.444  19.601  18.381  0.00  0.00    -0.038 A 
ATOM      9  C   UNL     1      45.733  18.392  17.785  0.00  0.00    +0.161 A 
ATOM     10  C   UNL     1      46.989  17.804  17.963  0.00  0.00    -0.275 A 
ATOM     11  C   UNL     1      47.297  16.503  17.339  0.00  0.00    +0.393 C 
ATOM     12  O   UNL     1      46.589  16.004  16.489  0.00  0.00    -0.422 OA
ATOM     13  C   UNL     1      48.561  15.835  17.838  0.00  0.00    +0.115 C 
ATOM     16  C   UNL     1      49.048  14.786  16.881  0.00  0.00    -0.204 A 
ATOM     17  C   UNL     1      48.134  13.953  16.258  0.00  0.00    +0.046 A 
ATOM     18  C   UNL     1      48.565  12.969  15.387  0.00  0.00    +0.069 A 
ATOM     21  C   UNL     1      49.925  12.817  15.135  0.00  0.00    +0.155 A 
ATOM     24  C   UNL     1      50.838  13.650  15.755  0.00  0.00    -0.060 A 
ATOM     25  C   UNL     1      50.405  14.643  16.629  0.00  0.00    +0.159 A 
ATOM     26  O   UNL     1      51.338  15.445  17.205  0.00  0.00    -0.298 OA
ATOM     27  C   UNL     1      50.953  16.285  18.298  0.00  0.00    +0.305 C 
ATOM     28  C   UNL     1      49.623  16.943  17.938  0.00  0.00    +0.173 C 
ATOM     29  O   UNL     1      49.201  17.892  18.912  0.00  0.00    -0.275 OA
ATOM     30  C   UNL     1      47.971  18.442  18.742  0.00  0.00    +0.229 A 
ATOM     31  O   UNL     1      46.133  21.426  19.760  0.00  0.00    -0.296 OA
ENDROOT
BRANCH  13  14
ATOM     14  O   UNL     1      48.341  15.254  19.126  0.00  0.00    -0.515 OA
ATOM     15  H   UNL     1      48.500  14.300  19.158  0.00  0.00    +0.388 HD
ENDBRANCH  13  14
BRANCH  18  19
ATOM     19  O   UNL     1      47.662  12.153  14.777  0.00  0.00    -0.303 OA
ATOM     20  C   UNL     1      46.929  11.257  15.615  0.00  0.00    +0.239 C 
ENDBRANCH  18  19
BRANCH  21  22
ATOM     22  O   UNL     1      50.356  11.849  14.283  0.00  0.00    -0.297 OA
ATOM     23  C   UNL     1      50.897  12.280  13.033  0.00  0.00    +0.245 C 
ENDBRANCH  21  22
TORSDOF 3
ENDMDL
MODEL 5
REMARK VINA RESULT:      -5.5      4.391      6.287
REMARK  Name = ZINC06394172
REMARK  7 active torsions:
REMARK  status: ('A' for Active; 'I' for Inactive)
REMARK    1  A    between atoms: C1_1  and  C2_2
REMARK    2  A    between atoms: C2_2  and  C23_31
REMARK    3  A    between atoms: C15_18  and  O6_28
REMARK    4  A    between atoms: C16_19  and  O5_26
REMARK    5  A    between atoms: C19_22  and  O4_25
REMARK    6  A    between atoms: O5_26  and  C21_27
REMARK    7  A    between atoms: O6_28  and  C22_29
REMARK                            x       y       z     vdW  Elec       q    Type
REMARK                         _______ _______ _______ _____ _____    ______ ____
ROOT
ATOM      1  C   UNL     1      51.720  10.415  13.671  0.00  0.00    +0.086 C 
ATOM      2  C   UNL     1      50.972  11.687  14.077  0.00  0.00    +0.145 C 
ATOM      3  C   UNL     1      50.529  12.435  12.818  0.00  0.00    +0.038 C 
ATOM      4  C   UNL     1      51.892  12.569  14.881  0.00  0.00    -0.053 C 
ATOM      5  C   UNL     1      51.388  13.400  15.791  0.00  0.00    +0.060 C 
ATOM      6  C   UNL     1      49.922  13.412  15.984  0.00  0.00    -0.175 A 
ATOM      7  C   UNL     1      49.172  12.338  15.483  0.00  0.00    +0.207 A 
ATOM      8  C   UNL     1      47.793  12.311  15.645  0.00  0.00    -0.038 A 
ATOM      9  C   UNL     1      47.153  13.344  16.293  0.00  0.00    +0.161 A 
ATOM     10  C   UNL     1      47.889  14.424  16.792  0.00  0.00    -0.275 A 
ATOM     11  C   UNL     1      47.205  15.540  17.474  0.00  0.00    +0.393 C 
ATOM     12  O   UNL     1      46.045  15.476  17.825  0.00  0.00    -0.422 OA
ATOM     13  C   UNL     1      48.057  16.771  17.702  0.00  0.00    +0.115 C 
ATOM     16  C   UNL     1      47.474  17.658  18.764  0.00  0.00    -0.204 A 
ATOM     17  C   UNL     1      46.105  17.857  18.810  0.00  0.00    +0.046 A 
ATOM     18  C   UNL     1      45.551  18.686  19.770  0.00  0.00    +0.069 A 
ATOM     21  C   UNL     1      46.377  19.321  20.693  0.00  0.00    +0.155 A 
ATOM     24  C   UNL     1      47.744  19.120  20.648  0.00  0.00    -0.060 A 
ATOM     25  C   UNL     1      48.301  18.284  19.686  0.00  0.00    +0.159 A 
ATOM     26  O   UNL     1      49.649  18.107  19.689  0.00  0.00    -0.298 OA
ATOM     27  C   UNL     1      50.269  17.479  18.563  0.00  0.00    +0.305 C 
ATOM     28  C   UNL     1      49.428  16.263  18.181  0.00  0.00    +0.173 C 
ATOM     29  O   UNL     1      50.018  15.495  17.139  0.00  0.00    -0.275 OA
ATOM     30  C   UNL     1      49.287  14.462  16.645  0.00  0.00    +0.229 A 
ATOM     31  O   UNL     1      49.821  11.333  14.844  0.00  0.00    -0.296 OA
ENDROOT
BRANCH  13  14
ATOM     14  O   UNL     1      48.207  17.504  16.484  0.00  0.00    -0.515 OA
ATOM     15  H   UNL     1      48.496  18.419  16.610  0.00  0.00    +0.388 HD
ENDBRANCH  13  14
BRANCH  18  19
ATOM     19  O   UNL     1      44.205  18.878  19.812  0.00  0.00    -0.303 OA
ATOM     20  C   UNL     1      43.666  19.879  18.945  0.00  0.00    +0.239 C 
ENDBRANCH  18  19
BRANCH  21  22
ATOM     22  O   UNL     1      45.839  20.140  21.637  0.00  0.00    -0.297 OA
ATOM     23  C   UNL     1      45.989  21.546  21.436  0.00  0.00    +0.245 C 
ENDBRANCH  21  22
TORSDOF 3
ENDMDL
MODEL 6
REMARK VINA RESULT:      -5.5      2.979      8.739
REMARK  Name = ZINC06394172
REMARK  7 active torsions:
REMARK  status: ('A' for Active; 'I' for Inactive)
REMARK    1  A    between atoms: C1_1  and  C2_2
REMARK    2  A    between atoms: C2_2  and  C23_31
REMARK    3  A    between atoms: C15_18  and  O6_28
REMARK    4  A    between atoms: C16_19  and  O5_26
REMARK    5  A    between atoms: C19_22  and  O4_25
REMARK    6  A    between atoms: O5_26  and  C21_27
REMARK    7  A    between atoms: O6_28  and  C22_29
REMARK                            x       y       z     vdW  Elec       q    Type
REMARK                         _______ _______ _______ _____ _____    ______ ____
ROOT
ATOM      1  C   UNL     1      43.213  22.832  19.829  0.00  0.00    +0.086 C 
ATOM      2  C   UNL     1      44.274  21.744  20.011  0.00  0.00    +0.145 C 
ATOM      3  C   UNL     1      44.714  21.710  21.476  0.00  0.00    +0.038 C 
ATOM      4  C   UNL     1      45.463  22.060  19.142  0.00  0.00    -0.053 C 
ATOM      5  C   UNL     1      46.231  21.074  18.683  0.00  0.00    +0.060 C 
ATOM      6  C   UNL     1      45.868  19.686  19.042  0.00  0.00    -0.175 A 
ATOM      7  C   UNL     1      44.577  19.438  19.532  0.00  0.00    +0.207 A 
ATOM      8  C   UNL     1      44.197  18.149  19.880  0.00  0.00    -0.038 A 
ATOM      9  C   UNL     1      45.088  17.107  19.751  0.00  0.00    +0.161 A 
ATOM     10  C   UNL     1      46.380  17.342  19.269  0.00  0.00    -0.275 A 
ATOM     11  C   UNL     1      47.343  16.231  19.144  0.00  0.00    +0.393 C 
ATOM     12  O   UNL     1      47.009  15.067  19.233  0.00  0.00    -0.422 OA
ATOM     13  C   UNL     1      48.777  16.649  18.898  0.00  0.00    +0.115 C 
ATOM     16  C   UNL     1      49.595  15.519  18.342  0.00  0.00    -0.204 A 
ATOM     17  C   UNL     1      49.419  14.240  18.840  0.00  0.00    +0.046 A 
ATOM     18  C   UNL     1      50.177  13.189  18.353  0.00  0.00    +0.069 A 
ATOM     21  C   UNL     1      51.120  13.423  17.357  0.00  0.00    +0.155 A 
ATOM     24  C   UNL     1      51.294  14.700  16.858  0.00  0.00    -0.060 A 
ATOM     25  C   UNL     1      50.530  15.756  17.344  0.00  0.00    +0.159 A 
ATOM     26  O   UNL     1      50.728  16.992  16.815  0.00  0.00    -0.298 OA
ATOM     27  C   UNL     1      50.159  18.129  17.472  0.00  0.00    +0.305 C 
ATOM     28  C   UNL     1      48.724  17.779  17.856  0.00  0.00    +0.173 C 
ATOM     29  O   UNL     1      48.023  18.884  18.418  0.00  0.00    -0.275 OA
ATOM     30  C   UNL     1      46.778  18.641  18.903  0.00  0.00    +0.229 A 
ATOM     31  O   UNL     1      43.717  20.479  19.656  0.00  0.00    -0.296 OA
ENDROOT
BRANCH  13  14
ATOM     14  O   UNL     1      49.369  17.129  20.108  0.00  0.00    -0.515 OA
ATOM     15  H   UNL     1      49.377  18.093  20.185  0.00  0.00    +0.388 HD
ENDBRANCH  13  14
BRANCH  18  19
ATOM     19  O   UNL     1      50.000  11.933  18.846  0.00  0.00    -0.303 OA
ATOM     20  C   UNL     1      48.757  11.291  18.552  0.00  0.00    +0.239 C 
ENDBRANCH  18  19
BRANCH  21  22
ATOM     22  O   UNL     1      51.871  12.395  16.877  0.00  0.00    -0.297 OA
ATOM     23  C   UNL     1      51.732  12.084  15.489  0.00  0.00    +0.245 C 
ENDBRANCH  21  22
TORSDOF 3
ENDMDL
MODEL 7
REMARK VINA RESULT:      -5.2      4.340      7.002
REMARK  Name = ZINC06394172
REMARK  7 active torsions:
REMARK  status: ('A' for Active; 'I' for Inactive)
REMARK    1  A    between atoms: C1_1  and  C2_2
REMARK    2  A    between atoms: C2_2  and  C23_31
REMARK    3  A    between atoms: C15_18  and  O6_28
REMARK    4  A    between atoms: C16_19  and  O5_26
REMARK    5  A    between atoms: C19_22  and  O4_25
REMARK    6  A    between atoms: O5_26  and  C21_27
REMARK    7  A    between atoms: O6_28  and  C22_29
REMARK                            x       y       z     vdW  Elec       q    Type
REMARK                         _______ _______ _______ _____ _____    ______ ____
ROOT
ATOM      1  C   UNL     1      52.995  22.325  19.911  0.00  0.00    +0.086 C 
ATOM      2  C   UNL     1      52.312  20.957  19.976  0.00  0.00    +0.145 C 
ATOM      3  C   UNL     1      52.567  20.331  21.348  0.00  0.00    +0.038 C 
ATOM      4  C   UNL     1      52.886  20.064  18.907  0.00  0.00    -0.053 C 
ATOM      5  C   UNL     1      52.141  19.093  18.382  0.00  0.00    +0.060 C 
ATOM      6  C   UNL     1      50.755  18.939  18.873  0.00  0.00    -0.175 A 
ATOM      7  C   UNL     1      50.174  20.001  19.582  0.00  0.00    +0.207 A 
ATOM      8  C   UNL     1      48.874  19.896  20.058  0.00  0.00    -0.038 A 
ATOM      9  C   UNL     1      48.149  18.745  19.842  0.00  0.00    +0.161 A 
ATOM     10  C   UNL     1      48.719  17.677  19.142  0.00  0.00    -0.275 A 
ATOM     11  C   UNL     1      47.951  16.436  18.921  0.00  0.00    +0.393 C 
ATOM     12  O   UNL     1      46.757  16.364  19.128  0.00  0.00    -0.422 OA
ATOM     13  C   UNL     1      48.762  15.260  18.420  0.00  0.00    +0.115 C 
ATOM     16  C   UNL     1      47.887  14.209  17.800  0.00  0.00    -0.204 A 
ATOM     17  C   UNL     1      46.675  13.895  18.390  0.00  0.00    +0.046 A 
ATOM     18  C   UNL     1      45.864  12.916  17.843  0.00  0.00    +0.069 A 
ATOM     21  C   UNL     1      46.271  12.245  16.694  0.00  0.00    +0.155 A 
ATOM     24  C   UNL     1      47.480  12.561  16.103  0.00  0.00    -0.060 A 
ATOM     25  C   UNL     1      48.295  13.547  16.650  0.00  0.00    +0.159 A 
ATOM     26  O   UNL     1      49.470  13.831  16.027  0.00  0.00    -0.298 OA
ATOM     27  C   UNL     1      50.438  14.636  16.706  0.00  0.00    +0.305 C 
ATOM     28  C   UNL     1      49.706  15.816  17.340  0.00  0.00    +0.173 C 
ATOM     29  O   UNL     1      50.594  16.749  17.947  0.00  0.00    -0.275 OA
ATOM     30  C   UNL     1      50.031  17.770  18.644  0.00  0.00    +0.229 A 
ATOM     31  O   UNL     1      50.907  21.123  19.788  0.00  0.00    -0.296 OA
ENDROOT
BRANCH  13  14
ATOM     14  O   UNL     1      49.525  14.691  19.487  0.00  0.00    -0.515 OA
ATOM     15  H   UNL     1      49.302  15.044  20.360  0.00  0.00    +0.388 HD
ENDBRANCH  13  14
BRANCH  18  19
ATOM     19  O   UNL     1      44.673  12.612  18.427  0.00  0.00    -0.303 OA
ATOM     20  C   UNL     1      44.451  13.114  19.746  0.00  0.00    +0.239 C 
ENDBRANCH  18  19
BRANCH  21  22
ATOM     22  O   UNL     1      45.480  11.279  16.154  0.00  0.00    -0.297 OA
ATOM     23  C   UNL     1      46.021  10.535  15.061  0.00  0.00    +0.245 C 
ENDBRANCH  21  22
TORSDOF 3
ENDMDL
MODEL 8
REMARK VINA RESULT:      -4.9      1.845      2.650
REMARK  Name = ZINC06394172
REMARK  7 active torsions:
REMARK  status: ('A' for Active; 'I' for Inactive)
REMARK    1  A    between atoms: C1_1  and  C2_2
REMARK    2  A    between atoms: C2_2  and  C23_31
REMARK    3  A    between atoms: C15_18  and  O6_28
REMARK    4  A    between atoms: C16_19  and  O5_26
REMARK    5  A    between atoms: C19_22  and  O4_25
REMARK    6  A    between atoms: O5_26  and  C21_27
REMARK    7  A    between atoms: O6_28  and  C22_29
REMARK                            x       y       z     vdW  Elec       q    Type
REMARK                         _______ _______ _______ _____ _____    ______ ____
ROOT
ATOM      1  C   UNL     1      55.397  15.171  19.416  0.00  0.00    +0.086 C 
ATOM      2  C   UNL     1      54.116  15.793  19.977  0.00  0.00    +0.145 C 
ATOM      3  C   UNL     1      54.381  16.297  21.397  0.00  0.00    +0.038 C 
ATOM      4  C   UNL     1      53.032  14.748  20.014  0.00  0.00    -0.053 C 
ATOM      5  C   UNL     1      51.755  15.112  19.910  0.00  0.00    +0.060 C 
ATOM      6  C   UNL     1      51.454  16.550  19.748  0.00  0.00    -0.175 A 
ATOM      7  C   UNL     1      52.491  17.412  19.362  0.00  0.00    +0.207 A 
ATOM      8  C   UNL     1      52.249  18.769  19.198  0.00  0.00    -0.038 A 
ATOM      9  C   UNL     1      50.988  19.278  19.420  0.00  0.00    +0.161 A 
ATOM     10  C   UNL     1      49.948  18.430  19.812  0.00  0.00    -0.275 A 
ATOM     11  C   UNL     1      48.599  18.974  20.066  0.00  0.00    +0.393 C 
ATOM     12  O   UNL     1      48.279  20.100  19.743  0.00  0.00    -0.422 OA
ATOM     13  C   UNL     1      47.645  18.026  20.761  0.00  0.00    +0.115 C 
ATOM     16  C   UNL     1      46.216  18.450  20.584  0.00  0.00    -0.204 A 
ATOM     17  C   UNL     1      45.889  19.794  20.659  0.00  0.00    +0.046 A 
ATOM     18  C   UNL     1      44.575  20.202  20.516  0.00  0.00    +0.069 A 
ATOM     21  C   UNL     1      43.578  19.256  20.296  0.00  0.00    +0.155 A 
ATOM     24  C   UNL     1      43.905  17.915  20.219  0.00  0.00    -0.060 A 
ATOM     25  C   UNL     1      45.226  17.504  20.358  0.00  0.00    +0.159 A 
ATOM     26  O   UNL     1      45.501  16.176  20.263  0.00  0.00    -0.298 OA
ATOM     27  C   UNL     1      46.790  15.703  20.665  0.00  0.00    +0.305 C 
ATOM     28  C   UNL     1      47.838  16.654  20.093  0.00  0.00    +0.173 C 
ATOM     29  O   UNL     1      49.169  16.212  20.337  0.00  0.00    -0.275 OA
ATOM     30  C   UNL     1      50.173  17.052  19.973  0.00  0.00    +0.229 A 
ATOM     31  O   UNL     1      53.726  16.891  19.152  0.00  0.00    -0.296 OA
ENDROOT
BRANCH  13  14
ATOM     14  O   UNL     1      47.957  17.938  22.153  0.00  0.00    -0.515 OA
ATOM     15  H   UNL     1      47.236  18.214  22.736  0.00  0.00    +0.388 HD
ENDBRANCH  13  14
BRANCH  18  19
ATOM     19  O   UNL     1      44.259  21.524  20.590  0.00  0.00    -0.303 OA
ATOM     20  C   UNL     1      44.777  22.373  19.564  0.00  0.00    +0.239 C 
ENDBRANCH  18  19
BRANCH  21  22
ATOM     22  O   UNL     1      42.283  19.651  20.159  0.00  0.00    -0.297 OA
ATOM     23  C   UNL     1      41.314  18.986  20.971  0.00  0.00    +0.245 C 
ENDBRANCH  21  22
TORSDOF 3
ENDMDL
MODEL 9
REMARK VINA RESULT:      -4.9      2.938      8.723
REMARK  Name = ZINC06394172
REMARK  7 active torsions:
REMARK  status: ('A' for Active; 'I' for Inactive)
REMARK    1  A    between atoms: C1_1  and  C2_2
REMARK    2  A    between atoms: C2_2  and  C23_31
REMARK    3  A    between atoms: C15_18  and  O6_28
REMARK    4  A    between atoms: C16_19  and  O5_26
REMARK    5  A    between atoms: C19_22  and  O4_25
REMARK    6  A    between atoms: O5_26  and  C21_27
REMARK    7  A    between atoms: O6_28  and  C22_29
REMARK                            x       y       z     vdW  Elec       q    Type
REMARK                         _______ _______ _______ _____ _____    ______ ____
ROOT
ATOM      1  C   UNL     1      45.081  23.459  20.430  0.00  0.00    +0.086 C 
ATOM      2  C   UNL     1      45.580  22.012  20.459  0.00  0.00    +0.145 C 
ATOM      3  C   UNL     1      44.689  21.191  21.393  0.00  0.00    +0.038 C 
ATOM      4  C   UNL     1      46.996  21.986  20.972  0.00  0.00    -0.053 C 
ATOM      5  C   UNL     1      47.825  21.017  20.586  0.00  0.00    +0.060 C 
ATOM      6  C   UNL     1      47.312  19.999  19.645  0.00  0.00    -0.175 A 
ATOM      7  C   UNL     1      46.134  20.276  18.936  0.00  0.00    +0.207 A 
ATOM      8  C   UNL     1      45.620  19.346  18.042  0.00  0.00    -0.038 A 
ATOM      9  C   UNL     1      46.263  18.143  17.851  0.00  0.00    +0.161 A 
ATOM     10  C   UNL     1      47.434  17.852  18.557  0.00  0.00    -0.275 A 
ATOM     11  C   UNL     1      48.117  16.558  18.367  0.00  0.00    +0.393 C 
ATOM     12  O   UNL     1      47.838  15.801  17.459  0.00  0.00    -0.422 OA
ATOM     13  C   UNL     1      49.191  16.242  19.387  0.00  0.00    +0.115 C 
ATOM     16  C   UNL     1      50.126  15.175  18.894  0.00  0.00    -0.204 A 
ATOM     17  C   UNL     1      49.618  14.091  18.201  0.00  0.00    +0.046 A 
ATOM     18  C   UNL     1      50.462  13.089  17.755  0.00  0.00    +0.069 A 
ATOM     21  C   UNL     1      51.828  13.174  18.006  0.00  0.00    +0.155 A 
ATOM     24  C   UNL     1      52.335  14.259  18.697  0.00  0.00    -0.060 A 
ATOM     25  C   UNL     1      51.487  15.269  19.142  0.00  0.00    +0.159 A 
ATOM     26  O   UNL     1      52.034  16.322  19.806  0.00  0.00    -0.298 OA
ATOM     27  C   UNL     1      51.171  17.227  20.501  0.00  0.00    +0.305 C 
ATOM     28  C   UNL     1      49.988  17.542  19.589  0.00  0.00    +0.173 C 
ATOM     29  O   UNL     1      49.120  18.527  20.140  0.00  0.00    -0.275 OA
ATOM     30  C   UNL     1      47.973  18.787  19.459  0.00  0.00    +0.229 A 
ATOM     31  O   UNL     1      45.515  21.465  19.142  0.00  0.00    -0.296 OA
ENDROOT
BRANCH  13  14
ATOM     14  O   UNL     1      48.597  15.837  20.623  0.00  0.00    -0.515 OA
ATOM     15  H   UNL     1      47.978  16.482  20.991  0.00  0.00    +0.388 HD
ENDBRANCH  13  14
BRANCH  18  19
ATOM     19  O   UNL     1      49.958  12.024  17.074  0.00  0.00    -0.303 OA
ATOM     20  C   UNL     1      49.567  12.248  15.717  0.00  0.00    +0.239 C 
ENDBRANCH  18  19
BRANCH  21  22
ATOM     22  O   UNL     1      52.662  12.191  17.575  0.00  0.00    -0.297 OA
ATOM     23  C   UNL     1      53.212  11.324  18.569  0.00  0.00    +0.245 C 
ENDBRANCH  21  22
TORSDOF 3
ENDMDL
