MODEL 1
REMARK VINA RESULT:      -5.0      0.000      0.000
REMARK  Name = ZINC13429387
REMARK  10 active torsions:
REMARK  status: ('A' for Active; 'I' for Inactive)
REMARK    1  A    between atoms: C1_1  and  N1_2
REMARK    2  A    between atoms: C11_13  and  O5_21
REMARK    3  A    between atoms: C11_13  and  O6_23
REMARK    4  A    between atoms: C12_14  and  C13_15
REMARK    5  A    between atoms: C12_14  and  O4_19
REMARK    6  A    between atoms: C13_15  and  O3_17
REMARK    7  A    between atoms: O3_17  and  C14_18
REMARK    8  A    between atoms: O4_19  and  C15_20
REMARK    9  A    between atoms: O5_21  and  C16_22
REMARK   10  A    between atoms: O6_23  and  C17_24
REMARK                            x       y       z     vdW  Elec       q    Type
REMARK                         _______ _______ _______ _____ _____    ______ ____
ROOT
ATOM      1  C   UNL     1      49.667  16.805  17.296  0.00  0.00    +0.309 C 
ATOM      2  N   UNL     1      49.373  18.002  18.088  0.00  0.00    -0.472 N 
ATOM      3  C   UNL     1      50.359  18.942  18.264  0.00  0.00    +0.197 A 
ATOM      4  C   UNL     1      51.623  18.777  17.702  0.00  0.00    -0.033 A 
ATOM      5  C   UNL     1      52.587  19.741  17.895  0.00  0.00    +0.087 A 
ATOM      6  C   UNL     1      52.315  20.876  18.645  0.00  0.00    -0.016 A 
ATOM      7  C   UNL     1      51.082  21.059  19.207  0.00  0.00    +0.121 A 
ATOM      8  C   UNL     1      50.091  20.095  19.023  0.00  0.00    -0.185 A 
ATOM      9  C   UNL     1      48.749  20.247  19.608  0.00  0.00    +0.446 A 
ATOM     10  C   UNL     1      47.798  19.219  19.372  0.00  0.00    -0.264 A 
ATOM     11  C   UNL     1      46.394  18.736  19.617  0.00  0.00    +0.234 C 
ATOM     18  C   UNL     1      46.765  17.519  18.784  0.00  0.00    +0.320 C 
ATOM     23  O   UNL     1      48.462  21.228  20.276  0.00  0.00    -0.469 OA
ATOM     24  C   UNL     1      48.131  18.145  18.635  0.00  0.00    +0.124 A 
ENDROOT
BRANCH  11  12
ATOM     12  O   UNL     1      46.120  18.435  20.987  0.00  0.00    -0.323 OA
ATOM     13  C   UNL     1      45.857  19.584  21.793  0.00  0.00    +0.231 C 
ENDBRANCH  11  12
BRANCH  11  14
ATOM     14  C   UNL     1      45.336  19.604  18.984  0.00  0.00    +0.460 C 
ATOM     17  O   UNL     1      45.649  20.632  18.431  0.00  0.00    -0.460 OA
BRANCH  14  15
ATOM     15  O   UNL     1      44.047  19.236  19.036  0.00  0.00    -0.342 OA
ATOM     16  C   UNL     1      43.062  20.297  19.143  0.00  0.00    +0.270 C 
ENDBRANCH  14  15
ENDBRANCH  11  14
BRANCH  18  19
ATOM     19  O   UNL     1      46.771  16.298  19.523  0.00  0.00    -0.343 OA
ATOM     20  C   UNL     1      45.514  15.620  19.540  0.00  0.00    +0.224 C 
ENDBRANCH  18  19
BRANCH  18  21
ATOM     21  O   UNL     1      46.041  17.423  17.555  0.00  0.00    -0.331 OA
ATOM     22  C   UNL     1      46.479  16.361  16.704  0.00  0.00    +0.215 C 
ENDBRANCH  18  21
TORSDOF 5
ENDMDL
MODEL 2
REMARK VINA RESULT:      -4.7      1.614      2.077
REMARK  Name = ZINC13429387
REMARK  10 active torsions:
REMARK  status: ('A' for Active; 'I' for Inactive)
REMARK    1  A    between atoms: C1_1  and  N1_2
REMARK    2  A    between atoms: C11_13  and  O5_21
REMARK    3  A    between atoms: C11_13  and  O6_23
REMARK    4  A    between atoms: C12_14  and  C13_15
REMARK    5  A    between atoms: C12_14  and  O4_19
REMARK    6  A    between atoms: C13_15  and  O3_17
REMARK    7  A    between atoms: O3_17  and  C14_18
REMARK    8  A    between atoms: O4_19  and  C15_20
REMARK    9  A    between atoms: O5_21  and  C16_22
REMARK   10  A    between atoms: O6_23  and  C17_24
REMARK                            x       y       z     vdW  Elec       q    Type
REMARK                         _______ _______ _______ _____ _____    ______ ____
ROOT
ATOM      1  C   UNL     1      50.863  16.157  16.894  0.00  0.00    +0.309 C 
ATOM      2  N   UNL     1      50.171  17.237  17.601  0.00  0.00    -0.472 N 
ATOM      3  C   UNL     1      50.652  18.520  17.492  0.00  0.00    +0.197 A 
ATOM      4  C   UNL     1      51.777  18.805  16.721  0.00  0.00    -0.033 A 
ATOM      5  C   UNL     1      52.231  20.103  16.630  0.00  0.00    +0.087 A 
ATOM      6  C   UNL     1      51.580  21.130  17.298  0.00  0.00    -0.016 A 
ATOM      7  C   UNL     1      50.474  20.873  18.060  0.00  0.00    +0.121 A 
ATOM      8  C   UNL     1      49.998  19.566  18.165  0.00  0.00    -0.185 A 
ATOM      9  C   UNL     1      48.812  19.241  18.973  0.00  0.00    +0.446 A 
ATOM     10  C   UNL     1      48.393  17.884  19.026  0.00  0.00    -0.264 A 
ATOM     11  C   UNL     1      47.390  16.908  19.579  0.00  0.00    +0.234 C 
ATOM     18  C   UNL     1      48.155  15.834  18.820  0.00  0.00    +0.320 C 
ATOM     23  O   UNL     1      48.206  20.110  19.579  0.00  0.00    -0.469 OA
ATOM     24  C   UNL     1      49.073  16.939  18.354  0.00  0.00    +0.124 A 
ENDROOT
BRANCH  11  12
ATOM     12  O   UNL     1      47.451  16.763  21.000  0.00  0.00    -0.323 OA
ATOM     13  C   UNL     1      46.939  17.884  21.721  0.00  0.00    +0.231 C 
ENDBRANCH  11  12
BRANCH  11  14
ATOM     14  C   UNL     1      45.988  17.126  19.071  0.00  0.00    +0.460 C 
ATOM     17  O   UNL     1      45.078  16.459  19.504  0.00  0.00    -0.460 OA
BRANCH  14  15
ATOM     15  O   UNL     1      45.751  18.060  18.137  0.00  0.00    -0.342 OA
ATOM     16  C   UNL     1      44.957  19.207  18.540  0.00  0.00    +0.270 C 
ENDBRANCH  14  15
ENDBRANCH  11  14
BRANCH  18  19
ATOM     19  O   UNL     1      48.794  14.877  19.667  0.00  0.00    -0.343 OA
ATOM     20  C   UNL     1      47.962  13.775  20.030  0.00  0.00    +0.224 C 
ENDBRANCH  18  19
BRANCH  18  21
ATOM     21  O   UNL     1      47.402  15.230  17.765  0.00  0.00    -0.331 OA
ATOM     22  C   UNL     1      48.116  14.224  17.044  0.00  0.00    +0.215 C 
ENDBRANCH  18  21
TORSDOF 5
ENDMDL
MODEL 3
REMARK VINA RESULT:      -4.6      1.752      4.123
REMARK  Name = ZINC13429387
REMARK  10 active torsions:
REMARK  status: ('A' for Active; 'I' for Inactive)
REMARK    1  A    between atoms: C1_1  and  N1_2
REMARK    2  A    between atoms: C11_13  and  O5_21
REMARK    3  A    between atoms: C11_13  and  O6_23
REMARK    4  A    between atoms: C12_14  and  C13_15
REMARK    5  A    between atoms: C12_14  and  O4_19
REMARK    6  A    between atoms: C13_15  and  O3_17
REMARK    7  A    between atoms: O3_17  and  C14_18
REMARK    8  A    between atoms: O4_19  and  C15_20
REMARK    9  A    between atoms: O5_21  and  C16_22
REMARK   10  A    between atoms: O6_23  and  C17_24
REMARK                            x       y       z     vdW  Elec       q    Type
REMARK                         _______ _______ _______ _____ _____    ______ ____
ROOT
ATOM      1  C   UNL     1      48.460  20.762  19.637  0.00  0.00    +0.309 C 
ATOM      2  N   UNL     1      48.880  19.557  18.918  0.00  0.00    -0.472 N 
ATOM      3  C   UNL     1      49.987  19.618  18.105  0.00  0.00    +0.197 A 
ATOM      4  C   UNL     1      50.712  20.799  17.960  0.00  0.00    -0.033 A 
ATOM      5  C   UNL     1      51.818  20.824  17.140  0.00  0.00    +0.087 A 
ATOM      6  C   UNL     1      52.220  19.686  16.456  0.00  0.00    -0.016 A 
ATOM      7  C   UNL     1      51.524  18.516  16.584  0.00  0.00    +0.121 A 
ATOM      8  C   UNL     1      50.400  18.469  17.409  0.00  0.00    -0.185 A 
ATOM      9  C   UNL     1      49.619  17.233  17.577  0.00  0.00    +0.446 A 
ATOM     10  C   UNL     1      48.489  17.271  18.437  0.00  0.00    -0.264 A 
ATOM     11  C   UNL     1      47.345  16.494  19.032  0.00  0.00    +0.234 C 
ATOM     18  C   UNL     1      46.965  17.779  19.749  0.00  0.00    +0.320 C 
ATOM     23  O   UNL     1      49.933  16.206  16.997  0.00  0.00    -0.469 OA
ATOM     24  C   UNL     1      48.156  18.410  19.069  0.00  0.00    +0.124 A 
ENDROOT
BRANCH  11  12
ATOM     12  O   UNL     1      46.380  16.063  18.069  0.00  0.00    -0.323 OA
ATOM     13  C   UNL     1      46.788  14.928  17.304  0.00  0.00    +0.231 C 
ENDBRANCH  11  12
BRANCH  11  14
ATOM     14  C   UNL     1      47.781  15.388  19.960  0.00  0.00    +0.460 C 
ATOM     17  O   UNL     1      48.958  15.153  20.108  0.00  0.00    -0.460 OA
BRANCH  14  15
ATOM     15  O   UNL     1      46.864  14.666  20.621  0.00  0.00    -0.342 OA
ATOM     16  C   UNL     1      47.173  13.268  20.861  0.00  0.00    +0.270 C 
ENDBRANCH  14  15
ENDBRANCH  11  14
BRANCH  18  19
ATOM     19  O   UNL     1      45.712  18.322  19.329  0.00  0.00    -0.343 OA
ATOM     20  C   UNL     1      44.581  17.764  20.001  0.00  0.00    +0.224 C 
ENDBRANCH  18  19
BRANCH  18  21
ATOM     21  O   UNL     1      47.090  17.702  21.171  0.00  0.00    -0.331 OA
ATOM     22  C   UNL     1      46.674  18.885  21.857  0.00  0.00    +0.215 C 
ENDBRANCH  18  21
TORSDOF 5
ENDMDL
MODEL 4
REMARK VINA RESULT:      -4.4      2.646      5.168
REMARK  Name = ZINC13429387
REMARK  10 active torsions:
REMARK  status: ('A' for Active; 'I' for Inactive)
REMARK    1  A    between atoms: C1_1  and  N1_2
REMARK    2  A    between atoms: C11_13  and  O5_21
REMARK    3  A    between atoms: C11_13  and  O6_23
REMARK    4  A    between atoms: C12_14  and  C13_15
REMARK    5  A    between atoms: C12_14  and  O4_19
REMARK    6  A    between atoms: C13_15  and  O3_17
REMARK    7  A    between atoms: O3_17  and  C14_18
REMARK    8  A    between atoms: O4_19  and  C15_20
REMARK    9  A    between atoms: O5_21  and  C16_22
REMARK   10  A    between atoms: O6_23  and  C17_24
REMARK                            x       y       z     vdW  Elec       q    Type
REMARK                         _______ _______ _______ _____ _____    ______ ____
ROOT
ATOM      1  C   UNL     1      48.008  19.066  19.610  0.00  0.00    +0.309 C 
ATOM      2  N   UNL     1      48.992  18.372  18.775  0.00  0.00    -0.472 N 
ATOM      3  C   UNL     1      50.002  19.100  18.194  0.00  0.00    +0.197 A 
ATOM      4  C   UNL     1      50.106  20.475  18.389  0.00  0.00    -0.033 A 
ATOM      5  C   UNL     1      51.133  21.174  17.794  0.00  0.00    +0.087 A 
ATOM      6  C   UNL     1      52.068  20.523  17.002  0.00  0.00    -0.016 A 
ATOM      7  C   UNL     1      51.985  19.174  16.797  0.00  0.00    +0.121 A 
ATOM      8  C   UNL     1      50.952  18.447  17.389  0.00  0.00    -0.185 A 
ATOM      9  C   UNL     1      50.823  16.994  17.198  0.00  0.00    +0.446 A 
ATOM     10  C   UNL     1      49.743  16.331  17.838  0.00  0.00    -0.264 A 
ATOM     11  C   UNL     1      49.048  15.017  18.076  0.00  0.00    +0.234 C 
ATOM     18  C   UNL     1      48.062  15.797  18.930  0.00  0.00    +0.320 C 
ATOM     23  O   UNL     1      51.621  16.377  16.510  0.00  0.00    -0.469 OA
ATOM     24  C   UNL     1      48.873  17.025  18.592  0.00  0.00    +0.124 A 
ENDROOT
BRANCH  11  12
ATOM     12  O   UNL     1      48.469  14.451  16.898  0.00  0.00    -0.323 OA
ATOM     13  C   UNL     1      49.400  13.750  16.072  0.00  0.00    +0.231 C 
ENDBRANCH  11  12
BRANCH  11  14
ATOM     14  C   UNL     1      49.875  14.027  18.857  0.00  0.00    +0.460 C 
ATOM     17  O   UNL     1      49.401  12.961  19.173  0.00  0.00    -0.460 OA
BRANCH  14  15
ATOM     15  O   UNL     1      51.136  14.330  19.201  0.00  0.00    -0.342 OA
ATOM     16  C   UNL     1      52.192  13.535  18.601  0.00  0.00    +0.270 C 
ENDBRANCH  14  15
ENDBRANCH  11  14
BRANCH  18  19
ATOM     19  O   UNL     1      46.736  15.822  18.398  0.00  0.00    -0.343 OA
ATOM     20  C   UNL     1      45.944  14.689  18.757  0.00  0.00    +0.224 C 
ENDBRANCH  18  19
BRANCH  18  21
ATOM     21  O   UNL     1      48.100  15.448  20.316  0.00  0.00    -0.331 OA
ATOM     22  C   UNL     1      47.142  16.143  21.117  0.00  0.00    +0.215 C 
ENDBRANCH  18  21
TORSDOF 5
ENDMDL
MODEL 5
REMARK VINA RESULT:      -4.2      2.853      6.206
REMARK  Name = ZINC13429387
REMARK  10 active torsions:
REMARK  status: ('A' for Active; 'I' for Inactive)
REMARK    1  A    between atoms: C1_1  and  N1_2
REMARK    2  A    between atoms: C11_13  and  O5_21
REMARK    3  A    between atoms: C11_13  and  O6_23
REMARK    4  A    between atoms: C12_14  and  C13_15
REMARK    5  A    between atoms: C12_14  and  O4_19
REMARK    6  A    between atoms: C13_15  and  O3_17
REMARK    7  A    between atoms: O3_17  and  C14_18
REMARK    8  A    between atoms: O4_19  and  C15_20
REMARK    9  A    between atoms: O5_21  and  C16_22
REMARK   10  A    between atoms: O6_23  and  C17_24
REMARK                            x       y       z     vdW  Elec       q    Type
REMARK                         _______ _______ _______ _____ _____    ______ ____
ROOT
ATOM      1  C   UNL     1      47.004  17.776  18.783  0.00  0.00    +0.309 C 
ATOM      2  N   UNL     1      48.209  17.095  18.303  0.00  0.00    -0.472 N 
ATOM      3  C   UNL     1      48.075  15.929  17.589  0.00  0.00    +0.197 A 
ATOM      4  C   UNL     1      46.820  15.391  17.313  0.00  0.00    -0.033 A 
ATOM      5  C   UNL     1      46.721  14.222  16.592  0.00  0.00    +0.087 A 
ATOM      6  C   UNL     1      47.859  13.573  16.135  0.00  0.00    -0.016 A 
ATOM      7  C   UNL     1      49.101  14.082  16.394  0.00  0.00    +0.121 A 
ATOM      8  C   UNL     1      49.223  15.265  17.123  0.00  0.00    -0.185 A 
ATOM      9  C   UNL     1      50.538  15.851  17.426  0.00  0.00    +0.446 A 
ATOM     10  C   UNL     1      50.573  17.059  18.174  0.00  0.00    -0.264 A 
ATOM     11  C   UNL     1      51.444  18.120  18.792  0.00  0.00    +0.234 C 
ATOM     18  C   UNL     1      50.153  18.775  19.260  0.00  0.00    +0.320 C 
ATOM     23  O   UNL     1      51.568  15.317  17.046  0.00  0.00    -0.469 OA
ATOM     24  C   UNL     1      49.430  17.634  18.586  0.00  0.00    +0.124 A 
ENDROOT
BRANCH  11  12
ATOM     12  O   UNL     1      52.266  17.640  19.859  0.00  0.00    -0.323 OA
ATOM     13  C   UNL     1      53.334  16.793  19.433  0.00  0.00    +0.231 C 
ENDBRANCH  11  12
BRANCH  11  14
ATOM     14  C   UNL     1      52.209  18.940  17.785  0.00  0.00    +0.460 C 
ATOM     17  O   UNL     1      52.945  19.823  18.159  0.00  0.00    -0.460 OA
BRANCH  14  15
ATOM     15  O   UNL     1      52.071  18.690  16.474  0.00  0.00    -0.342 OA
ATOM     16  C   UNL     1      51.775  19.822  15.615  0.00  0.00    +0.270 C 
ENDBRANCH  14  15
ENDBRANCH  11  14
BRANCH  18  19
ATOM     19  O   UNL     1      50.000  18.791  20.680  0.00  0.00    -0.343 OA
ATOM     20  C   UNL     1      50.615  19.910  21.320  0.00  0.00    +0.224 C 
ENDBRANCH  18  19
BRANCH  18  21
ATOM     21  O   UNL     1      49.905  20.048  18.658  0.00  0.00    -0.331 OA
ATOM     22  C   UNL     1      48.727  20.699  19.140  0.00  0.00    +0.215 C 
ENDBRANCH  18  21
TORSDOF 5
ENDMDL
MODEL 6
REMARK VINA RESULT:      -4.2      2.550      5.347
REMARK  Name = ZINC13429387
REMARK  10 active torsions:
REMARK  status: ('A' for Active; 'I' for Inactive)
REMARK    1  A    between atoms: C1_1  and  N1_2
REMARK    2  A    between atoms: C11_13  and  O5_21
REMARK    3  A    between atoms: C11_13  and  O6_23
REMARK    4  A    between atoms: C12_14  and  C13_15
REMARK    5  A    between atoms: C12_14  and  O4_19
REMARK    6  A    between atoms: C13_15  and  O3_17
REMARK    7  A    between atoms: O3_17  and  C14_18
REMARK    8  A    between atoms: O4_19  and  C15_20
REMARK    9  A    between atoms: O5_21  and  C16_22
REMARK   10  A    between atoms: O6_23  and  C17_24
REMARK                            x       y       z     vdW  Elec       q    Type
REMARK                         _______ _______ _______ _____ _____    ______ ____
ROOT
ATOM      1  C   UNL     1      46.774  16.469  17.779  0.00  0.00    +0.309 C 
ATOM      2  N   UNL     1      47.480  17.674  18.222  0.00  0.00    -0.472 N 
ATOM      3  C   UNL     1      46.755  18.812  18.483  0.00  0.00    +0.197 A 
ATOM      4  C   UNL     1      45.369  18.834  18.337  0.00  0.00    -0.033 A 
ATOM      5  C   UNL     1      44.673  19.990  18.611  0.00  0.00    +0.087 A 
ATOM      6  C   UNL     1      45.335  21.135  19.030  0.00  0.00    -0.016 A 
ATOM      7  C   UNL     1      46.694  21.136  19.179  0.00  0.00    +0.121 A 
ATOM      8  C   UNL     1      47.419  19.975  18.907  0.00  0.00    -0.185 A 
ATOM      9  C   UNL     1      48.882  19.928  19.054  0.00  0.00    +0.446 A 
ATOM     10  C   UNL     1      49.543  18.706  18.757  0.00  0.00    -0.264 A 
ATOM     11  C   UNL     1      50.862  17.986  18.684  0.00  0.00    +0.234 C 
ATOM     18  C   UNL     1      50.069  16.771  18.229  0.00  0.00    +0.320 C 
ATOM     23  O   UNL     1      49.510  20.910  19.420  0.00  0.00    -0.469 OA
ATOM     24  C   UNL     1      48.837  17.635  18.355  0.00  0.00    +0.124 A 
ENDROOT
BRANCH  11  12
ATOM     12  O   UNL     1      51.746  18.503  17.687  0.00  0.00    -0.323 OA
ATOM     13  C   UNL     1      52.437  19.689  18.082  0.00  0.00    +0.231 C 
ENDBRANCH  11  12
BRANCH  11  14
ATOM     14  C   UNL     1      51.530  17.806  20.024  0.00  0.00    +0.460 C 
ATOM     17  O   UNL     1      52.571  17.196  20.103  0.00  0.00    -0.460 OA
BRANCH  14  15
ATOM     15  O   UNL     1      50.968  18.321  21.128  0.00  0.00    -0.342 OA
ATOM     16  C   UNL     1      51.742  19.308  21.861  0.00  0.00    +0.270 C 
ENDBRANCH  14  15
ENDBRANCH  11  14
BRANCH  18  19
ATOM     19  O   UNL     1      50.352  16.369  16.887  0.00  0.00    -0.343 OA
ATOM     20  C   UNL     1      51.471  15.489  16.767  0.00  0.00    +0.224 C 
ENDBRANCH  18  19
BRANCH  18  21
ATOM     21  O   UNL     1      50.103  15.682  19.155  0.00  0.00    -0.331 OA
ATOM     22  C   UNL     1      49.364  14.534  18.731  0.00  0.00    +0.215 C 
ENDBRANCH  18  21
TORSDOF 5
ENDMDL
MODEL 7
REMARK VINA RESULT:      -4.2      2.681      6.203
REMARK  Name = ZINC13429387
REMARK  10 active torsions:
REMARK  status: ('A' for Active; 'I' for Inactive)
REMARK    1  A    between atoms: C1_1  and  N1_2
REMARK    2  A    between atoms: C11_13  and  O5_21
REMARK    3  A    between atoms: C11_13  and  O6_23
REMARK    4  A    between atoms: C12_14  and  C13_15
REMARK    5  A    between atoms: C12_14  and  O4_19
REMARK    6  A    between atoms: C13_15  and  O3_17
REMARK    7  A    between atoms: O3_17  and  C14_18
REMARK    8  A    between atoms: O4_19  and  C15_20
REMARK    9  A    between atoms: O5_21  and  C16_22
REMARK   10  A    between atoms: O6_23  and  C17_24
REMARK                            x       y       z     vdW  Elec       q    Type
REMARK                         _______ _______ _______ _____ _____    ______ ____
ROOT
ATOM      1  C   UNL     1      44.828  14.792  22.260  0.00  0.00    +0.309 C 
ATOM      2  N   UNL     1      44.986  15.764  21.175  0.00  0.00    -0.472 N 
ATOM      3  C   UNL     1      44.179  16.875  21.155  0.00  0.00    +0.197 A 
ATOM      4  C   UNL     1      43.223  17.093  22.145  0.00  0.00    -0.033 A 
ATOM      5  C   UNL     1      42.433  18.220  22.097  0.00  0.00    +0.087 A 
ATOM      6  C   UNL     1      42.577  19.143  21.071  0.00  0.00    -0.016 A 
ATOM      7  C   UNL     1      43.508  18.950  20.088  0.00  0.00    +0.121 A 
ATOM      8  C   UNL     1      44.319  17.815  20.119  0.00  0.00    -0.185 A 
ATOM      9  C   UNL     1      45.334  17.565  19.084  0.00  0.00    +0.446 A 
ATOM     10  C   UNL     1      46.118  16.385  19.190  0.00  0.00    -0.264 A 
ATOM     11  C   UNL     1      47.217  15.557  18.581  0.00  0.00    +0.234 C 
ATOM     18  C   UNL     1      47.002  14.589  19.734  0.00  0.00    +0.320 C 
ATOM     23  O   UNL     1      45.498  18.348  18.162  0.00  0.00    -0.469 OA
ATOM     24  C   UNL     1      45.924  15.533  20.211  0.00  0.00    +0.124 A 
ENDROOT
BRANCH  11  12
ATOM     12  O   UNL     1      46.885  15.012  17.302  0.00  0.00    -0.323 OA
ATOM     13  C   UNL     1      46.703  15.994  16.281  0.00  0.00    +0.231 C 
ENDBRANCH  11  12
BRANCH  11  14
ATOM     14  C   UNL     1      48.566  16.231  18.599  0.00  0.00    +0.460 C 
ATOM     17  O   UNL     1      49.516  15.694  18.079  0.00  0.00    -0.460 OA
BRANCH  14  15
ATOM     15  O   UNL     1      48.711  17.425  19.194  0.00  0.00    -0.342 OA
ATOM     16  C   UNL     1      49.115  18.536  18.351  0.00  0.00    +0.270 C 
ENDBRANCH  14  15
ENDBRANCH  11  14
BRANCH  18  19
ATOM     19  O   UNL     1      46.507  13.313  19.328  0.00  0.00    -0.343 OA
ATOM     20  C   UNL     1      47.513  12.431  18.827  0.00  0.00    +0.224 C 
ENDBRANCH  18  19
BRANCH  18  21
ATOM     21  O   UNL     1      48.118  14.497  20.622  0.00  0.00    -0.331 OA
ATOM     22  C   UNL     1      47.970  13.507  21.642  0.00  0.00    +0.215 C 
ENDBRANCH  18  21
TORSDOF 5
ENDMDL
MODEL 8
REMARK VINA RESULT:      -4.1      2.588      3.557
REMARK  Name = ZINC13429387
REMARK  10 active torsions:
REMARK  status: ('A' for Active; 'I' for Inactive)
REMARK    1  A    between atoms: C1_1  and  N1_2
REMARK    2  A    between atoms: C11_13  and  O5_21
REMARK    3  A    between atoms: C11_13  and  O6_23
REMARK    4  A    between atoms: C12_14  and  C13_15
REMARK    5  A    between atoms: C12_14  and  O4_19
REMARK    6  A    between atoms: C13_15  and  O3_17
REMARK    7  A    between atoms: O3_17  and  C14_18
REMARK    8  A    between atoms: O4_19  and  C15_20
REMARK    9  A    between atoms: O5_21  and  C16_22
REMARK   10  A    between atoms: O6_23  and  C17_24
REMARK                            x       y       z     vdW  Elec       q    Type
REMARK                         _______ _______ _______ _____ _____    ______ ____
ROOT
ATOM      1  C   UNL     1      51.766  16.374  16.485  0.00  0.00    +0.309 C 
ATOM      2  N   UNL     1      50.949  17.166  17.407  0.00  0.00    -0.472 N 
ATOM      3  C   UNL     1      51.043  18.537  17.372  0.00  0.00    +0.197 A 
ATOM      4  C   UNL     1      51.895  19.179  16.476  0.00  0.00    -0.033 A 
ATOM      5  C   UNL     1      51.962  20.554  16.464  0.00  0.00    +0.087 A 
ATOM      6  C   UNL     1      51.192  21.310  17.336  0.00  0.00    -0.016 A 
ATOM      7  C   UNL     1      50.349  20.701  18.225  0.00  0.00    +0.121 A 
ATOM      8  C   UNL     1      50.266  19.308  18.253  0.00  0.00    -0.185 A 
ATOM      9  C   UNL     1      49.374  18.609  19.191  0.00  0.00    +0.446 A 
ATOM     10  C   UNL     1      49.348  17.189  19.153  0.00  0.00    -0.264 A 
ATOM     11  C   UNL     1      48.758  15.934  19.739  0.00  0.00    +0.234 C 
ATOM     18  C   UNL     1      49.632  15.173  18.754  0.00  0.00    +0.320 C 
ATOM     23  O   UNL     1      48.676  19.229  19.977  0.00  0.00    -0.469 OA
ATOM     24  C   UNL     1      50.123  16.520  18.281  0.00  0.00    +0.124 A 
ENDROOT
BRANCH  11  12
ATOM     12  O   UNL     1      49.108  15.718  21.107  0.00  0.00    -0.323 OA
ATOM     13  C   UNL     1      48.415  16.565  22.025  0.00  0.00    +0.231 C 
ENDBRANCH  11  12
BRANCH  11  14
ATOM     14  C   UNL     1      47.280  15.782  19.480  0.00  0.00    +0.460 C 
ATOM     17  O   UNL     1      46.702  16.587  18.788  0.00  0.00    -0.460 OA
BRANCH  14  15
ATOM     15  O   UNL     1      46.608  14.754  20.018  0.00  0.00    -0.342 OA
ATOM     16  C   UNL     1      45.539  14.176  19.223  0.00  0.00    +0.270 C 
ENDBRANCH  14  15
ENDBRANCH  11  14
BRANCH  18  19
ATOM     19  O   UNL     1      50.644  14.381  19.378  0.00  0.00    -0.343 OA
ATOM     20  C   UNL     1      51.573  13.798  18.464  0.00  0.00    +0.224 C 
ENDBRANCH  18  19
BRANCH  18  21
ATOM     21  O   UNL     1      48.892  14.453  17.766  0.00  0.00    -0.331 OA
ATOM     22  C   UNL     1      48.849  13.042  17.984  0.00  0.00    +0.215 C 
ENDBRANCH  18  21
TORSDOF 5
ENDMDL
MODEL 9
REMARK VINA RESULT:      -4.0      2.099      5.247
REMARK  Name = ZINC13429387
REMARK  10 active torsions:
REMARK  status: ('A' for Active; 'I' for Inactive)
REMARK    1  A    between atoms: C1_1  and  N1_2
REMARK    2  A    between atoms: C11_13  and  O5_21
REMARK    3  A    between atoms: C11_13  and  O6_23
REMARK    4  A    between atoms: C12_14  and  C13_15
REMARK    5  A    between atoms: C12_14  and  O4_19
REMARK    6  A    between atoms: C13_15  and  O3_17
REMARK    7  A    between atoms: O3_17  and  C14_18
REMARK    8  A    between atoms: O4_19  and  C15_20
REMARK    9  A    between atoms: O5_21  and  C16_22
REMARK   10  A    between atoms: O6_23  and  C17_24
REMARK                            x       y       z     vdW  Elec       q    Type
REMARK                         _______ _______ _______ _____ _____    ______ ____
ROOT
ATOM      1  C   UNL     1      48.845  20.692  19.123  0.00  0.00    +0.309 C 
ATOM      2  N   UNL     1      47.769  19.703  19.224  0.00  0.00    -0.472 N 
ATOM      3  C   UNL     1      46.524  20.113  19.635  0.00  0.00    +0.197 A 
ATOM      4  C   UNL     1      46.271  21.446  19.951  0.00  0.00    -0.033 A 
ATOM      5  C   UNL     1      45.010  21.824  20.356  0.00  0.00    +0.087 A 
ATOM      6  C   UNL     1      43.987  20.892  20.454  0.00  0.00    -0.016 A 
ATOM      7  C   UNL     1      44.213  19.578  20.150  0.00  0.00    +0.121 A 
ATOM      8  C   UNL     1      45.483  19.174  19.737  0.00  0.00    -0.185 A 
ATOM      9  C   UNL     1      45.774  17.772  19.399  0.00  0.00    +0.446 A 
ATOM     10  C   UNL     1      47.093  17.445  18.987  0.00  0.00    -0.264 A 
ATOM     11  C   UNL     1      48.027  16.354  18.536  0.00  0.00    +0.234 C 
ATOM     18  C   UNL     1      49.097  17.431  18.453  0.00  0.00    +0.320 C 
ATOM     23  O   UNL     1      44.907  16.915  19.470  0.00  0.00    -0.469 OA
ATOM     24  C   UNL     1      48.037  18.401  18.915  0.00  0.00    +0.124 A 
ENDROOT
BRANCH  11  12
ATOM     12  O   UNL     1      48.281  15.365  19.536  0.00  0.00    -0.323 OA
ATOM     13  C   UNL     1      47.203  14.451  19.737  0.00  0.00    +0.231 C 
ENDBRANCH  11  12
BRANCH  11  14
ATOM     14  C   UNL     1      47.662  15.758  17.201  0.00  0.00    +0.460 C 
ATOM     17  O   UNL     1      46.684  16.153  16.610  0.00  0.00    -0.460 OA
BRANCH  14  15
ATOM     15  O   UNL     1      48.422  14.788  16.669  0.00  0.00    -0.342 OA
ATOM     16  C   UNL     1      47.729  13.652  16.088  0.00  0.00    +0.270 C 
ENDBRANCH  14  15
ENDBRANCH  11  14
BRANCH  18  19
ATOM     19  O   UNL     1      50.162  17.256  19.389  0.00  0.00    -0.343 OA
ATOM     20  C   UNL     1      51.176  16.350  18.956  0.00  0.00    +0.224 C 
ENDBRANCH  18  19
BRANCH  18  21
ATOM     21  O   UNL     1      49.560  17.678  17.123  0.00  0.00    -0.331 OA
ATOM     22  C   UNL     1      50.686  18.556  17.053  0.00  0.00    +0.215 C 
ENDBRANCH  18  21
TORSDOF 5
ENDMDL
