MODEL 1
REMARK VINA RESULT:      -5.9      0.000      0.000
REMARK  Name = ZINC95486045
REMARK  19 active torsions:
REMARK  status: ('A' for Active; 'I' for Inactive)
REMARK    1  A    between atoms: C1_1  and  C2_2
REMARK    2  A    between atoms: C2_2  and  C3_4
REMARK    3  A    between atoms: C2_2  and  O11_60
REMARK    4  A    between atoms: C3_4  and  C4_5
REMARK    5  A    between atoms: C3_4  and  C33_56
REMARK    6  A    between atoms: C3_4  and  O10_59
REMARK    7  A    between atoms: C6_8  and  C8_13
REMARK    8  A    between atoms: C9_15  and  O9_55
REMARK    9  A    between atoms: C12_20  and  C32_54
REMARK   10  A    between atoms: C20_30  and  C31_53
REMARK   11  A    between atoms: C23_33  and  O3_36
REMARK   12  A    between atoms: O3_36  and  C25_37
REMARK   13  A    between atoms: C26_39  and  O8_52
REMARK   14  A    between atoms: C27_41  and  O7_51
REMARK   15  A    between atoms: C28_43  and  O6_50
REMARK   16  A    between atoms: C29_45  and  C30_48
REMARK   17  A    between atoms: C30_48  and  O5_49
REMARK   18  A    between atoms: C33_56  and  C34_57
REMARK   19  A    between atoms: C33_56  and  C35_58
REMARK                            x       y       z     vdW  Elec       q    Type
REMARK                         _______ _______ _______ _____ _____    ______ ____
ROOT
ATOM     14  C   UNL     1      52.336  12.702  17.753  0.00  0.00    +0.026 C 
ATOM     15  C   UNL     1      51.545  11.688  16.885  0.00  0.00    +0.164 C 
ATOM     18  C   UNL     1      50.134  12.305  16.669  0.00  0.00    +0.002 C 
ATOM     19  C   UNL     1      50.388  13.803  16.853  0.00  0.00    +0.028 C 
ATOM     20  C   UNL     1      49.202  14.636  17.254  0.00  0.00    -0.091 C 
ATOM     21  C   UNL     1      48.006  14.139  17.210  0.00  0.00    -0.055 C 
ATOM     22  C   UNL     1      46.783  14.913  17.609  0.00  0.00    +0.060 C 
ATOM     23  C   UNL     1      47.047  16.412  17.418  0.00  0.00    +0.006 C 
ATOM     24  C   UNL     1      48.318  16.792  18.237  0.00  0.00    -0.043 C 
ATOM     25  C   UNL     1      48.128  16.445  19.715  0.00  0.00    +0.026 C 
ATOM     26  C   UNL     1      48.563  18.299  18.124  0.00  0.00    +0.020 C 
ATOM     27  C   UNL     1      47.365  19.062  18.689  0.00  0.00    +0.020 C 
ATOM     28  C   UNL     1      46.112  18.694  17.891  0.00  0.00    +0.144 C 
ATOM     45  C   UNL     1      45.842  17.190  17.955  0.00  0.00    +0.025 C 
ATOM     46  C   UNL     1      49.529  16.047  17.700  0.00  0.00    +0.030 C 
ATOM     47  C   UNL     1      50.667  16.079  18.717  0.00  0.00    +0.027 C 
ATOM     48  C   UNL     1      51.853  15.208  18.273  0.00  0.00    +0.027 C 
ATOM     49  C   UNL     1      51.339  13.800  18.086  0.00  0.00    -0.052 C 
ATOM     50  C   UNL     1      50.544  13.399  19.330  0.00  0.00    +0.032 C 
ENDROOT
BRANCH  14  13
ATOM     11  C   UNL     1      54.866  13.021  19.811  0.00  0.00    +0.168 C 
ATOM     12  C   UNL     1      53.333  13.092  20.047  0.00  0.00    +0.025 C 
ATOM     13  C   UNL     1      52.834  12.030  19.034  0.00  0.00    +0.001 C 
ATOM     51  C   UNL     1      54.064  11.188  18.752  0.00  0.00    +0.476 C 
ATOM     52  O   UNL     1      54.126  10.278  17.961  0.00  0.00    -0.421 OA
ATOM     53  O   UNL     1      55.081  11.622  19.526  0.00  0.00    -0.332 OA
BRANCH  11   5
ATOM      5  C   UNL     1      55.629  13.441  21.069  0.00  0.00    +0.157 C 
BRANCH   5   8
ATOM      8  C   UNL     1      56.249  14.823  20.850  0.00  0.00    -0.040 C 
ATOM      9  C   UNL     1      55.373  15.886  21.518  0.00  0.00    +0.037 C 
ATOM     10  C   UNL     1      56.343  15.109  19.350  0.00  0.00    +0.031 C 
ENDBRANCH   5   8
BRANCH   5   2
ATOM      1  C   UNL     1      57.877  13.113  22.107  0.00  0.00    +0.020 C 
ATOM      2  C   UNL     1      56.735  12.425  21.356  0.00  0.00    +0.184 C 
BRANCH   2   3
ATOM      3  O   UNL     1      56.211  11.362  22.155  0.00  0.00    -0.558 OA
ATOM      4  H   UNL     1      56.827  10.628  22.284  0.00  0.00    +0.382 HD
ENDBRANCH   2   3
ENDBRANCH   5   2
BRANCH   5   6
ATOM      6  O   UNL     1      54.728  13.493  22.178  0.00  0.00    -0.540 OA
ATOM      7  H   UNL     1      54.903  12.828  22.857  0.00  0.00    +0.379 HD
ENDBRANCH   5   6
ENDBRANCH  11   5
ENDBRANCH  14  13
BRANCH  15  16
ATOM     16  O   UNL     1      51.436  10.437  17.569  0.00  0.00    -0.541 OA
ATOM     17  H   UNL     1      51.242   9.688  16.989  0.00  0.00    +0.374 HD
ENDBRANCH  15  16
BRANCH  28  29
ATOM     29  O   UNL     1      44.990  19.413  18.404  0.00  0.00    -0.360 OA
BRANCH  29  30
ATOM     30  C   UNL     1      45.211  19.995  19.691  0.00  0.00    +0.316 C 
ATOM     31  C   UNL     1      44.443  21.315  19.795  0.00  0.00    +0.140 C 
ATOM     34  C   UNL     1      42.942  21.035  19.663  0.00  0.00    +0.153 C 
ATOM     37  C   UNL     1      42.525  20.032  20.744  0.00  0.00    +0.166 C 
ATOM     40  C   UNL     1      43.367  18.761  20.604  0.00  0.00    +0.200 C 
ATOM     44  O   UNL     1      44.754  19.097  20.704  0.00  0.00    -0.372 OA
BRANCH  31  32
ATOM     32  O   UNL     1      44.859  22.193  18.748  0.00  0.00    -0.548 OA
ATOM     33  H   UNL     1      45.689  22.655  18.928  0.00  0.00    +0.386 HD
ENDBRANCH  31  32
BRANCH  34  35
ATOM     35  O   UNL     1      42.669  20.488  18.371  0.00  0.00    -0.529 OA
ATOM     36  H   UNL     1      43.456  20.189  17.897  0.00  0.00    +0.384 HD
ENDBRANCH  34  35
BRANCH  37  38
ATOM     38  O   UNL     1      41.142  19.709  20.587  0.00  0.00    -0.544 OA
ATOM     39  H   UNL     1      40.962  19.096  19.860  0.00  0.00    +0.384 HD
ENDBRANCH  37  38
BRANCH  40  41
ATOM     41  C   UNL     1      42.998  17.779  21.717  0.00  0.00    +0.207 C 
BRANCH  41  42
ATOM     42  O   UNL     1      43.882  16.657  21.674  0.00  0.00    -0.563 OA
ATOM     43  H   UNL     1      43.479  15.852  21.319  0.00  0.00    +0.380 HD
ENDBRANCH  41  42
ENDBRANCH  40  41
ENDBRANCH  29  30
ENDBRANCH  28  29
TORSDOF 14
ENDMDL
MODEL 2
REMARK VINA RESULT:      -5.8      1.672      2.568
REMARK  Name = ZINC95486045
REMARK  19 active torsions:
REMARK  status: ('A' for Active; 'I' for Inactive)
REMARK    1  A    between atoms: C1_1  and  C2_2
REMARK    2  A    between atoms: C2_2  and  C3_4
REMARK    3  A    between atoms: C2_2  and  O11_60
REMARK    4  A    between atoms: C3_4  and  C4_5
REMARK    5  A    between atoms: C3_4  and  C33_56
REMARK    6  A    between atoms: C3_4  and  O10_59
REMARK    7  A    between atoms: C6_8  and  C8_13
REMARK    8  A    between atoms: C9_15  and  O9_55
REMARK    9  A    between atoms: C12_20  and  C32_54
REMARK   10  A    between atoms: C20_30  and  C31_53
REMARK   11  A    between atoms: C23_33  and  O3_36
REMARK   12  A    between atoms: O3_36  and  C25_37
REMARK   13  A    between atoms: C26_39  and  O8_52
REMARK   14  A    between atoms: C27_41  and  O7_51
REMARK   15  A    between atoms: C28_43  and  O6_50
REMARK   16  A    between atoms: C29_45  and  C30_48
REMARK   17  A    between atoms: C30_48  and  O5_49
REMARK   18  A    between atoms: C33_56  and  C34_57
REMARK   19  A    between atoms: C33_56  and  C35_58
REMARK                            x       y       z     vdW  Elec       q    Type
REMARK                         _______ _______ _______ _____ _____    ______ ____
ROOT
ATOM     14  C   UNL     1      51.972  12.827  17.267  0.00  0.00    +0.026 C 
ATOM     15  C   UNL     1      50.857  12.195  16.392  0.00  0.00    +0.164 C 
ATOM     18  C   UNL     1      49.660  13.187  16.429  0.00  0.00    +0.002 C 
ATOM     19  C   UNL     1      50.336  14.522  16.753  0.00  0.00    +0.028 C 
ATOM     20  C   UNL     1      49.469  15.571  17.394  0.00  0.00    -0.091 C 
ATOM     21  C   UNL     1      48.183  15.418  17.443  0.00  0.00    -0.055 C 
ATOM     22  C   UNL     1      47.264  16.421  18.080  0.00  0.00    +0.060 C 
ATOM     23  C   UNL     1      47.917  17.808  18.033  0.00  0.00    +0.006 C 
ATOM     24  C   UNL     1      49.311  17.716  18.725  0.00  0.00    -0.043 C 
ATOM     25  C   UNL     1      49.165  17.218  20.164  0.00  0.00    +0.026 C 
ATOM     26  C   UNL     1      49.955  19.104  18.757  0.00  0.00    +0.020 C 
ATOM     27  C   UNL     1      49.072  20.065  19.554  0.00  0.00    +0.020 C 
ATOM     28  C   UNL     1      47.700  20.161  18.882  0.00  0.00    +0.144 C 
ATOM     45  C   UNL     1      47.029  18.789  18.804  0.00  0.00    +0.025 C 
ATOM     46  C   UNL     1      50.214  16.764  17.956  0.00  0.00    +0.030 C 
ATOM     47  C   UNL     1      51.402  16.345  18.819  0.00  0.00    +0.027 C 
ATOM     48  C   UNL     1      52.255  15.267  18.131  0.00  0.00    +0.027 C 
ATOM     49  C   UNL     1      51.355  14.088  17.848  0.00  0.00    -0.052 C 
ATOM     50  C   UNL     1      50.594  13.733  19.127  0.00  0.00    +0.032 C 
ENDROOT
BRANCH  14  13
ATOM     11  C   UNL     1      54.449  12.511  19.389  0.00  0.00    +0.168 C 
ATOM     12  C   UNL     1      52.918  12.654  19.608  0.00  0.00    +0.025 C 
ATOM     13  C   UNL     1      52.376  11.867  18.388  0.00  0.00    +0.001 C 
ATOM     51  C   UNL     1      53.548  11.006  17.958  0.00  0.00    +0.476 C 
ATOM     52  O   UNL     1      53.568  10.277  16.995  0.00  0.00    -0.421 OA
ATOM     53  O   UNL     1      54.568  11.188  18.822  0.00  0.00    -0.332 OA
BRANCH  11   5
ATOM      5  C   UNL     1      55.198  12.600  20.720  0.00  0.00    +0.157 C 
BRANCH   5   8
ATOM      8  C   UNL     1      55.832  13.986  20.855  0.00  0.00    -0.040 C 
ATOM      9  C   UNL     1      54.907  14.892  21.671  0.00  0.00    +0.037 C 
ATOM     10  C   UNL     1      56.041  14.590  19.465  0.00  0.00    +0.031 C 
ENDBRANCH   5   8
BRANCH   5   2
ATOM      1  C   UNL     1      57.403  11.976  21.714  0.00  0.00    +0.020 C 
ATOM      2  C   UNL     1      56.293  11.532  20.760  0.00  0.00    +0.184 C 
BRANCH   2   3
ATOM      3  O   UNL     1      55.738  10.297  21.216  0.00  0.00    -0.558 OA
ATOM      4  H   UNL     1      55.549  10.277  22.164  0.00  0.00    +0.382 HD
ENDBRANCH   2   3
ENDBRANCH   5   2
BRANCH   5   6
ATOM      6  O   UNL     1      54.284  12.387  21.797  0.00  0.00    -0.540 OA
ATOM      7  H   UNL     1      54.273  13.099  22.451  0.00  0.00    +0.379 HD
ENDBRANCH   5   6
ENDBRANCH  11   5
ENDBRANCH  14  13
BRANCH  15  16
ATOM     16  O   UNL     1      50.465  10.932  16.934  0.00  0.00    -0.541 OA
ATOM     17  H   UNL     1      50.987  10.186  16.608  0.00  0.00    +0.374 HD
ENDBRANCH  15  16
BRANCH  28  29
ATOM     29  O   UNL     1      46.873  21.068  19.612  0.00  0.00    -0.360 OA
BRANCH  29  30
ATOM     30  C   UNL     1      45.738  20.454  20.228  0.00  0.00    +0.316 C 
ATOM     31  C   UNL     1      45.844  20.592  21.748  0.00  0.00    +0.140 C 
ATOM     34  C   UNL     1      45.826  22.078  22.121  0.00  0.00    +0.153 C 
ATOM     37  C   UNL     1      44.549  22.716  21.566  0.00  0.00    +0.166 C 
ATOM     40  C   UNL     1      44.493  22.496  20.052  0.00  0.00    +0.200 C 
ATOM     44  O   UNL     1      44.545  21.095  19.773  0.00  0.00    -0.372 OA
BRANCH  31  32
ATOM     32  O   UNL     1      47.064  20.000  22.198  0.00  0.00    -0.548 OA
ATOM     33  H   UNL     1      47.674  19.765  21.486  0.00  0.00    +0.386 HD
ENDBRANCH  31  32
BRANCH  34  35
ATOM     35  O   UNL     1      46.969  22.725  21.558  0.00  0.00    -0.529 OA
ATOM     36  H   UNL     1      46.777  23.242  20.764  0.00  0.00    +0.384 HD
ENDBRANCH  34  35
BRANCH  37  38
ATOM     38  O   UNL     1      44.555  24.117  21.845  0.00  0.00    -0.544 OA
ATOM     39  H   UNL     1      43.840  24.607  21.415  0.00  0.00    +0.384 HD
ENDBRANCH  37  38
BRANCH  40  41
ATOM     41  C   UNL     1      43.191  23.079  19.499  0.00  0.00    +0.207 C 
BRANCH  41  42
ATOM     42  O   UNL     1      43.428  24.403  19.018  0.00  0.00    -0.563 OA
ATOM     43  H   UNL     1      43.174  24.537  18.095  0.00  0.00    +0.380 HD
ENDBRANCH  41  42
ENDBRANCH  40  41
ENDBRANCH  29  30
ENDBRANCH  28  29
TORSDOF 14
ENDMDL
MODEL 3
REMARK VINA RESULT:      -5.4      2.511      5.476
REMARK  Name = ZINC95486045
REMARK  19 active torsions:
REMARK  status: ('A' for Active; 'I' for Inactive)
REMARK    1  A    between atoms: C1_1  and  C2_2
REMARK    2  A    between atoms: C2_2  and  C3_4
REMARK    3  A    between atoms: C2_2  and  O11_60
REMARK    4  A    between atoms: C3_4  and  C4_5
REMARK    5  A    between atoms: C3_4  and  C33_56
REMARK    6  A    between atoms: C3_4  and  O10_59
REMARK    7  A    between atoms: C6_8  and  C8_13
REMARK    8  A    between atoms: C9_15  and  O9_55
REMARK    9  A    between atoms: C12_20  and  C32_54
REMARK   10  A    between atoms: C20_30  and  C31_53
REMARK   11  A    between atoms: C23_33  and  O3_36
REMARK   12  A    between atoms: O3_36  and  C25_37
REMARK   13  A    between atoms: C26_39  and  O8_52
REMARK   14  A    between atoms: C27_41  and  O7_51
REMARK   15  A    between atoms: C28_43  and  O6_50
REMARK   16  A    between atoms: C29_45  and  C30_48
REMARK   17  A    between atoms: C30_48  and  O5_49
REMARK   18  A    between atoms: C33_56  and  C34_57
REMARK   19  A    between atoms: C33_56  and  C35_58
REMARK                            x       y       z     vdW  Elec       q    Type
REMARK                         _______ _______ _______ _____ _____    ______ ____
ROOT
ATOM     14  C   UNL     1      51.058  12.897  18.671  0.00  0.00    +0.026 C 
ATOM     15  C   UNL     1      52.175  13.429  19.608  0.00  0.00    +0.164 C 
ATOM     18  C   UNL     1      51.695  14.819  20.112  0.00  0.00    +0.002 C 
ATOM     19  C   UNL     1      50.174  14.723  19.973  0.00  0.00    +0.028 C 
ATOM     20  C   UNL     1      49.432  16.025  19.845  0.00  0.00    -0.091 C 
ATOM     21  C   UNL     1      50.035  17.149  20.077  0.00  0.00    -0.055 C 
ATOM     22  C   UNL     1      49.355  18.482  19.954  0.00  0.00    +0.060 C 
ATOM     23  C   UNL     1      47.849  18.306  20.181  0.00  0.00    +0.006 C 
ATOM     24  C   UNL     1      47.322  17.244  19.168  0.00  0.00    -0.043 C 
ATOM     25  C   UNL     1      47.621  17.678  17.732  0.00  0.00    +0.026 C 
ATOM     26  C   UNL     1      45.806  17.102  19.323  0.00  0.00    +0.020 C 
ATOM     27  C   UNL     1      45.129  18.441  19.031  0.00  0.00    +0.020 C 
ATOM     28  C   UNL     1      45.640  19.490  20.021  0.00  0.00    +0.144 C 
ATOM     45  C   UNL     1      47.158  19.648  19.920  0.00  0.00    +0.025 C 
ATOM     46  C   UNL     1      47.980  15.900  19.431  0.00  0.00    +0.030 C 
ATOM     47  C   UNL     1      47.804  14.977  18.226  0.00  0.00    +0.027 C 
ATOM     48  C   UNL     1      48.585  13.664  18.396  0.00  0.00    +0.027 C 
ATOM     49  C   UNL     1      50.039  14.021  18.590  0.00  0.00    -0.052 C 
ATOM     50  C   UNL     1      50.455  15.000  17.490  0.00  0.00    +0.032 C 
ENDROOT
BRANCH  14  13
ATOM     11  C   UNL     1      49.976  11.636  15.847  0.00  0.00    +0.168 C 
ATOM     12  C   UNL     1      50.621  13.009  16.180  0.00  0.00    +0.025 C 
ATOM     13  C   UNL     1      51.628  12.594  17.283  0.00  0.00    +0.001 C 
ATOM     51  C   UNL     1      51.791  11.099  17.087  0.00  0.00    +0.476 C 
ATOM     52  O   UNL     1      52.451  10.367  17.785  0.00  0.00    -0.421 OA
ATOM     53  O   UNL     1      51.077  10.717  16.008  0.00  0.00    -0.332 OA
BRANCH  11   5
ATOM      5  C   UNL     1      49.458  11.615  14.407  0.00  0.00    +0.157 C 
BRANCH   5   8
ATOM      8  C   UNL     1      50.340  12.512  13.536  0.00  0.00    -0.040 C 
ATOM      9  C   UNL     1      49.483  13.171  12.452  0.00  0.00    +0.037 C 
ATOM     10  C   UNL     1      51.434  11.668  12.879  0.00  0.00    +0.031 C 
ENDBRANCH   5   8
BRANCH   5   2
ATOM      1  C   UNL     1      47.108  11.148  15.117  0.00  0.00    +0.020 C 
ATOM      2  C   UNL     1      48.018  12.130  14.377  0.00  0.00    +0.184 C 
BRANCH   2   3
ATOM      3  O   UNL     1      47.955  13.409  15.011  0.00  0.00    -0.558 OA
ATOM      4  H   UNL     1      47.060  13.686  15.250  0.00  0.00    +0.382 HD
ENDBRANCH   2   3
ENDBRANCH   5   2
BRANCH   5   6
ATOM      6  O   UNL     1      49.497  10.277  13.906  0.00  0.00    -0.540 OA
ATOM      7  H   UNL     1      50.384   9.895  13.875  0.00  0.00    +0.379 HD
ENDBRANCH   5   6
ENDBRANCH  11   5
ENDBRANCH  14  13
BRANCH  15  16
ATOM     16  O   UNL     1      53.400  13.564  18.883  0.00  0.00    -0.541 OA
ATOM     17  H   UNL     1      53.503  14.418  18.442  0.00  0.00    +0.374 HD
ENDBRANCH  15  16
BRANCH  28  29
ATOM     29  O   UNL     1      45.001  20.742  19.764  0.00  0.00    -0.360 OA
BRANCH  29  30
ATOM     30  C   UNL     1      44.008  21.098  20.728  0.00  0.00    +0.316 C 
ATOM     31  C   UNL     1      44.071  22.603  20.995  0.00  0.00    +0.140 C 
ATOM     34  C   UNL     1      43.751  23.357  19.700  0.00  0.00    +0.153 C 
ATOM     37  C   UNL     1      42.376  22.913  19.190  0.00  0.00    +0.166 C 
ATOM     40  C   UNL     1      42.379  21.394  18.993  0.00  0.00    +0.200 C 
ATOM     44  O   UNL     1      42.715  20.756  20.228  0.00  0.00    -0.372 OA
BRANCH  31  32
ATOM     32  O   UNL     1      45.381  22.955  21.443  0.00  0.00    -0.548 OA
ATOM     33  H   UNL     1      46.091  22.651  20.861  0.00  0.00    +0.386 HD
ENDBRANCH  31  32
BRANCH  34  35
ATOM     35  O   UNL     1      44.745  23.061  18.717  0.00  0.00    -0.529 OA
ATOM     36  H   UNL     1      45.624  23.399  18.934  0.00  0.00    +0.384 HD
ENDBRANCH  34  35
BRANCH  37  38
ATOM     38  O   UNL     1      42.098  23.556  17.945  0.00  0.00    -0.544 OA
ATOM     39  H   UNL     1      42.849  24.040  17.576  0.00  0.00    +0.384 HD
ENDBRANCH  37  38
BRANCH  40  41
ATOM     41  C   UNL     1      40.991  20.935  18.541  0.00  0.00    +0.207 C 
BRANCH  41  42
ATOM     42  O   UNL     1      40.050  21.988  18.754  0.00  0.00    -0.563 OA
ATOM     43  H   UNL     1      39.133  21.687  18.823  0.00  0.00    +0.380 HD
ENDBRANCH  41  42
ENDBRANCH  40  41
ENDBRANCH  29  30
ENDBRANCH  28  29
TORSDOF 14
ENDMDL
MODEL 4
REMARK VINA RESULT:      -5.2      1.842      2.678
REMARK  Name = ZINC95486045
REMARK  19 active torsions:
REMARK  status: ('A' for Active; 'I' for Inactive)
REMARK    1  A    between atoms: C1_1  and  C2_2
REMARK    2  A    between atoms: C2_2  and  C3_4
REMARK    3  A    between atoms: C2_2  and  O11_60
REMARK    4  A    between atoms: C3_4  and  C4_5
REMARK    5  A    between atoms: C3_4  and  C33_56
REMARK    6  A    between atoms: C3_4  and  O10_59
REMARK    7  A    between atoms: C6_8  and  C8_13
REMARK    8  A    between atoms: C9_15  and  O9_55
REMARK    9  A    between atoms: C12_20  and  C32_54
REMARK   10  A    between atoms: C20_30  and  C31_53
REMARK   11  A    between atoms: C23_33  and  O3_36
REMARK   12  A    between atoms: O3_36  and  C25_37
REMARK   13  A    between atoms: C26_39  and  O8_52
REMARK   14  A    between atoms: C27_41  and  O7_51
REMARK   15  A    between atoms: C28_43  and  O6_50
REMARK   16  A    between atoms: C29_45  and  C30_48
REMARK   17  A    between atoms: C30_48  and  O5_49
REMARK   18  A    between atoms: C33_56  and  C34_57
REMARK   19  A    between atoms: C33_56  and  C35_58
REMARK                            x       y       z     vdW  Elec       q    Type
REMARK                         _______ _______ _______ _____ _____    ______ ____
ROOT
ATOM     14  C   UNL     1      50.910  12.108  19.952  0.00  0.00    +0.026 C 
ATOM     15  C   UNL     1      49.822  11.062  20.314  0.00  0.00    +0.164 C 
ATOM     18  C   UNL     1      48.460  11.810  20.247  0.00  0.00    +0.002 C 
ATOM     19  C   UNL     1      48.756  12.969  19.292  0.00  0.00    +0.028 C 
ATOM     20  C   UNL     1      47.871  14.179  19.416  0.00  0.00    -0.091 C 
ATOM     21  C   UNL     1      46.788  14.129  20.127  0.00  0.00    -0.055 C 
ATOM     22  C   UNL     1      45.869  15.304  20.301  0.00  0.00    +0.060 C 
ATOM     23  C   UNL     1      46.006  16.238  19.093  0.00  0.00    +0.006 C 
ATOM     24  C   UNL     1      47.507  16.638  18.952  0.00  0.00    -0.043 C 
ATOM     25  C   UNL     1      48.006  17.308  20.233  0.00  0.00    +0.026 C 
ATOM     26  C   UNL     1      47.661  17.631  17.796  0.00  0.00    +0.020 C 
ATOM     27  C   UNL     1      46.840  18.888  18.082  0.00  0.00    +0.020 C 
ATOM     28  C   UNL     1      45.365  18.504  18.222  0.00  0.00    +0.144 C 
ATOM     45  C   UNL     1      45.165  17.492  19.351  0.00  0.00    +0.025 C 
ATOM     46  C   UNL     1      48.352  15.406  18.670  0.00  0.00    +0.030 C 
ATOM     47  C   UNL     1      49.826  15.701  18.937  0.00  0.00    +0.027 C 
ATOM     48  C   UNL     1      50.692  14.438  18.808  0.00  0.00    +0.027 C 
ATOM     49  C   UNL     1      50.161  13.421  19.791  0.00  0.00    -0.052 C 
ATOM     50  C   UNL     1      50.016  14.089  21.159  0.00  0.00    +0.032 C 
ENDROOT
BRANCH  14  13
ATOM     11  C   UNL     1      53.684  13.752  20.528  0.00  0.00    +0.168 C 
ATOM     12  C   UNL     1      52.341  13.696  21.306  0.00  0.00    +0.025 C 
ATOM     13  C   UNL     1      51.938  12.217  21.079  0.00  0.00    +0.001 C 
ATOM     51  C   UNL     1      53.237  11.540  20.686  0.00  0.00    +0.476 C 
ATOM     52  O   UNL     1      53.355  10.382  20.361  0.00  0.00    -0.421 OA
ATOM     53  O   UNL     1      54.240  12.439  20.754  0.00  0.00    -0.332 OA
BRANCH  11   5
ATOM      5  C   UNL     1      54.600  14.835  21.104  0.00  0.00    +0.157 C 
BRANCH   5   8
ATOM      8  C   UNL     1      54.319  16.166  20.403  0.00  0.00    -0.040 C 
ATOM      9  C   UNL     1      53.283  16.956  21.207  0.00  0.00    +0.037 C 
ATOM     10  C   UNL     1      53.777  15.898  18.998  0.00  0.00    +0.031 C 
ENDBRANCH   5   8
BRANCH   5   2
ATOM      1  C   UNL     1      56.928  15.697  20.831  0.00  0.00    +0.020 C 
ATOM      2  C   UNL     1      56.060  14.439  20.880  0.00  0.00    +0.184 C 
BRANCH   2   3
ATOM      3  O   UNL     1      56.497  13.599  21.951  0.00  0.00    -0.558 OA
ATOM      4  H   UNL     1      57.314  13.117  21.764  0.00  0.00    +0.382 HD
ENDBRANCH   2   3
ENDBRANCH   5   2
BRANCH   5   6
ATOM      6  O   UNL     1      54.353  14.972  22.505  0.00  0.00    -0.540 OA
ATOM      7  H   UNL     1      53.973  15.825  22.755  0.00  0.00    +0.379 HD
ENDBRANCH   5   6
ENDBRANCH  11   5
ENDBRANCH  14  13
BRANCH  15  16
ATOM     16  O   UNL     1      50.044  10.561  21.634  0.00  0.00    -0.541 OA
ATOM     17  H   UNL     1      50.732  11.032  22.123  0.00  0.00    +0.374 HD
ENDBRANCH  15  16
BRANCH  28  29
ATOM     29  O   UNL     1      44.588  19.676  18.475  0.00  0.00    -0.360 OA
BRANCH  29  30
ATOM     30  C   UNL     1      43.843  19.629  19.694  0.00  0.00    +0.316 C 
ATOM     31  C   UNL     1      44.276  20.782  20.603  0.00  0.00    +0.140 C 
ATOM     34  C   UNL     1      43.955  22.113  19.914  0.00  0.00    +0.153 C 
ATOM     37  C   UNL     1      42.458  22.158  19.589  0.00  0.00    +0.166 C 
ATOM     40  C   UNL     1      42.096  20.951  18.719  0.00  0.00    +0.200 C 
ATOM     44  O   UNL     1      42.450  19.747  19.405  0.00  0.00    -0.372 OA
BRANCH  31  32
ATOM     32  O   UNL     1      45.681  20.697  20.847  0.00  0.00    -0.548 OA
ATOM     33  H   UNL     1      45.951  21.027  21.714  0.00  0.00    +0.386 HD
ENDBRANCH  31  32
BRANCH  34  35
ATOM     35  O   UNL     1      44.711  22.221  18.706  0.00  0.00    -0.529 OA
ATOM     36  H   UNL     1      45.550  22.691  18.808  0.00  0.00    +0.384 HD
ENDBRANCH  34  35
BRANCH  37  38
ATOM     38  O   UNL     1      42.160  23.363  18.882  0.00  0.00    -0.544 OA
ATOM     39  H   UNL     1      41.712  23.222  18.036  0.00  0.00    +0.384 HD
ENDBRANCH  37  38
BRANCH  40  41
ATOM     41  C   UNL     1      40.592  20.956  18.439  0.00  0.00    +0.207 C 
BRANCH  41  42
ATOM     42  O   UNL     1      40.202  22.244  17.959  0.00  0.00    -0.563 OA
ATOM     43  H   UNL     1      39.457  22.633  18.437  0.00  0.00    +0.380 HD
ENDBRANCH  41  42
ENDBRANCH  40  41
ENDBRANCH  29  30
ENDBRANCH  28  29
TORSDOF 14
ENDMDL
MODEL 5
REMARK VINA RESULT:      -4.6      2.145      4.975
REMARK  Name = ZINC95486045
REMARK  19 active torsions:
REMARK  status: ('A' for Active; 'I' for Inactive)
REMARK    1  A    between atoms: C1_1  and  C2_2
REMARK    2  A    between atoms: C2_2  and  C3_4
REMARK    3  A    between atoms: C2_2  and  O11_60
REMARK    4  A    between atoms: C3_4  and  C4_5
REMARK    5  A    between atoms: C3_4  and  C33_56
REMARK    6  A    between atoms: C3_4  and  O10_59
REMARK    7  A    between atoms: C6_8  and  C8_13
REMARK    8  A    between atoms: C9_15  and  O9_55
REMARK    9  A    between atoms: C12_20  and  C32_54
REMARK   10  A    between atoms: C20_30  and  C31_53
REMARK   11  A    between atoms: C23_33  and  O3_36
REMARK   12  A    between atoms: O3_36  and  C25_37
REMARK   13  A    between atoms: C26_39  and  O8_52
REMARK   14  A    between atoms: C27_41  and  O7_51
REMARK   15  A    between atoms: C28_43  and  O6_50
REMARK   16  A    between atoms: C29_45  and  C30_48
REMARK   17  A    between atoms: C30_48  and  O5_49
REMARK   18  A    between atoms: C33_56  and  C34_57
REMARK   19  A    between atoms: C33_56  and  C35_58
REMARK                            x       y       z     vdW  Elec       q    Type
REMARK                         _______ _______ _______ _____ _____    ______ ____
ROOT
ATOM     14  C   UNL     1      52.133  13.534  19.560  0.00  0.00    +0.026 C 
ATOM     15  C   UNL     1      53.300  14.182  20.350  0.00  0.00    +0.164 C 
ATOM     18  C   UNL     1      52.810  15.597  20.769  0.00  0.00    +0.002 C 
ATOM     19  C   UNL     1      51.288  15.443  20.766  0.00  0.00    +0.028 C 
ATOM     20  C   UNL     1      50.489  16.705  20.587  0.00  0.00    -0.091 C 
ATOM     21  C   UNL     1      51.066  17.863  20.668  0.00  0.00    -0.055 C 
ATOM     22  C   UNL     1      50.328  19.158  20.485  0.00  0.00    +0.060 C 
ATOM     23  C   UNL     1      48.853  18.958  20.852  0.00  0.00    +0.006 C 
ATOM     24  C   UNL     1      48.287  17.793  19.983  0.00  0.00    -0.043 C 
ATOM     25  C   UNL     1      48.453  18.104  18.495  0.00  0.00    +0.026 C 
ATOM     26  C   UNL     1      46.794  17.619  20.276  0.00  0.00    +0.020 C 
ATOM     27  C   UNL     1      46.046  18.905  19.926  0.00  0.00    +0.020 C 
ATOM     28  C   UNL     1      46.595  20.055  20.774  0.00  0.00    +0.144 C 
ATOM     45  C   UNL     1      48.093  20.249  20.533  0.00  0.00    +0.025 C 
ATOM     46  C   UNL     1      49.015  16.498  20.307  0.00  0.00    +0.030 C 
ATOM     47  C   UNL     1      48.777  15.465  19.208  0.00  0.00    +0.027 C 
ATOM     48  C   UNL     1      49.618  14.197  19.425  0.00  0.00    +0.027 C 
ATOM     49  C   UNL     1      51.069  14.615  19.465  0.00  0.00    -0.052 C 
ATOM     50  C   UNL     1      51.358  15.503  18.254  0.00  0.00    +0.032 C 
ENDROOT
BRANCH  14  13
ATOM     11  C   UNL     1      50.954  11.805  17.038  0.00  0.00    +0.168 C 
ATOM     12  C   UNL     1      51.446  13.275  17.137  0.00  0.00    +0.025 C 
ATOM     13  C   UNL     1      52.600  13.125  18.162  0.00  0.00    +0.001 C 
ATOM     51  C   UNL     1      52.935  11.646  18.121  0.00  0.00    +0.476 C 
ATOM     52  O   UNL     1      53.748  11.091  18.821  0.00  0.00    -0.421 OA
ATOM     53  O   UNL     1      52.176  11.048  17.180  0.00  0.00    -0.332 OA
BRANCH  11   5
ATOM      5  C   UNL     1      50.307  11.540  15.677  0.00  0.00    +0.157 C 
BRANCH   5   8
ATOM      8  C   UNL     1      50.680  12.665  14.708  0.00  0.00    -0.040 C 
ATOM      9  C   UNL     1      49.682  12.690  13.548  0.00  0.00    +0.037 C 
ATOM     10  C   UNL     1      52.089  12.424  14.164  0.00  0.00    +0.031 C 
ENDBRANCH   5   8
BRANCH   5   2
ATOM      1  C   UNL     1      48.416  10.379  16.823  0.00  0.00    +0.020 C 
ATOM      2  C   UNL     1      48.787  11.488  15.838  0.00  0.00    +0.184 C 
BRANCH   2   3
ATOM      3  O   UNL     1      48.316  12.743  16.332  0.00  0.00    -0.558 OA
ATOM      4  H   UNL     1      48.691  12.994  17.188  0.00  0.00    +0.382 HD
ENDBRANCH   2   3
ENDBRANCH   5   2
BRANCH   5   6
ATOM      6  O   UNL     1      50.776  10.292  15.161  0.00  0.00    -0.540 OA
ATOM      7  H   UNL     1      51.739  10.206  15.156  0.00  0.00    +0.379 HD
ENDBRANCH   5   6
ENDBRANCH  11   5
ENDBRANCH  14  13
BRANCH  15  16
ATOM     16  O   UNL     1      54.457  14.289  19.516  0.00  0.00    -0.541 OA
ATOM     17  H   UNL     1      54.285  14.696  18.656  0.00  0.00    +0.374 HD
ENDBRANCH  15  16
BRANCH  28  29
ATOM     29  O   UNL     1      45.891  21.258  20.462  0.00  0.00    -0.360 OA
BRANCH  29  30
ATOM     30  C   UNL     1      44.888  21.609  21.418  0.00  0.00    +0.316 C 
ATOM     31  C   UNL     1      44.390  23.029  21.138  0.00  0.00    +0.140 C 
ATOM     34  C   UNL     1      43.742  23.070  19.750  0.00  0.00    +0.153 C 
ATOM     37  C   UNL     1      42.613  22.035  19.695  0.00  0.00    +0.166 C 
ATOM     40  C   UNL     1      43.181  20.653  20.032  0.00  0.00    +0.200 C 
ATOM     44  O   UNL     1      43.796  20.694  21.322  0.00  0.00    -0.372 OA
BRANCH  31  32
ATOM     32  O   UNL     1      45.491  23.939  21.179  0.00  0.00    -0.548 OA
ATOM     33  H   UNL     1      45.641  24.413  20.350  0.00  0.00    +0.386 HD
ENDBRANCH  31  32
BRANCH  34  35
ATOM     35  O   UNL     1      44.722  22.762  18.756  0.00  0.00    -0.529 OA
ATOM     36  H   UNL     1      45.103  23.540  18.326  0.00  0.00    +0.384 HD
ENDBRANCH  34  35
BRANCH  37  38
ATOM     38  O   UNL     1      42.049  22.013  18.383  0.00  0.00    -0.544 OA
ATOM     39  H   UNL     1      41.307  21.400  18.285  0.00  0.00    +0.384 HD
ENDBRANCH  37  38
BRANCH  40  41
ATOM     41  C   UNL     1      42.048  19.624  20.038  0.00  0.00    +0.207 C 
BRANCH  41  42
ATOM     42  O   UNL     1      40.795  20.297  20.166  0.00  0.00    -0.563 OA
ATOM     43  H   UNL     1      40.431  20.614  19.327  0.00  0.00    +0.380 HD
ENDBRANCH  41  42
ENDBRANCH  40  41
ENDBRANCH  29  30
ENDBRANCH  28  29
TORSDOF 14
ENDMDL
MODEL 6
REMARK VINA RESULT:      -4.1      2.399     11.459
REMARK  Name = ZINC95486045
REMARK  19 active torsions:
REMARK  status: ('A' for Active; 'I' for Inactive)
REMARK    1  A    between atoms: C1_1  and  C2_2
REMARK    2  A    between atoms: C2_2  and  C3_4
REMARK    3  A    between atoms: C2_2  and  O11_60
REMARK    4  A    between atoms: C3_4  and  C4_5
REMARK    5  A    between atoms: C3_4  and  C33_56
REMARK    6  A    between atoms: C3_4  and  O10_59
REMARK    7  A    between atoms: C6_8  and  C8_13
REMARK    8  A    between atoms: C9_15  and  O9_55
REMARK    9  A    between atoms: C12_20  and  C32_54
REMARK   10  A    between atoms: C20_30  and  C31_53
REMARK   11  A    between atoms: C23_33  and  O3_36
REMARK   12  A    between atoms: O3_36  and  C25_37
REMARK   13  A    between atoms: C26_39  and  O8_52
REMARK   14  A    between atoms: C27_41  and  O7_51
REMARK   15  A    between atoms: C28_43  and  O6_50
REMARK   16  A    between atoms: C29_45  and  C30_48
REMARK   17  A    between atoms: C30_48  and  O5_49
REMARK   18  A    between atoms: C33_56  and  C34_57
REMARK   19  A    between atoms: C33_56  and  C35_58
REMARK                            x       y       z     vdW  Elec       q    Type
REMARK                         _______ _______ _______ _____ _____    ______ ____
ROOT
ATOM     14  C   UNL     1      44.896  17.606  21.942  0.00  0.00    +0.026 C 
ATOM     15  C   UNL     1      44.071  16.335  22.273  0.00  0.00    +0.164 C 
ATOM     18  C   UNL     1      45.070  15.144  22.232  0.00  0.00    +0.002 C 
ATOM     19  C   UNL     1      46.415  15.820  22.505  0.00  0.00    +0.028 C 
ATOM     20  C   UNL     1      47.638  15.098  22.010  0.00  0.00    -0.091 C 
ATOM     21  C   UNL     1      47.553  13.875  21.591  0.00  0.00    -0.055 C 
ATOM     22  C   UNL     1      48.733  13.104  21.072  0.00  0.00    +0.060 C 
ATOM     23  C   UNL     1      50.017  13.662  21.696  0.00  0.00    +0.006 C 
ATOM     24  C   UNL     1      50.088  15.189  21.387  0.00  0.00    -0.043 C 
ATOM     25  C   UNL     1      50.051  15.433  19.878  0.00  0.00    +0.026 C 
ATOM     26  C   UNL     1      51.399  15.758  21.936  0.00  0.00    +0.020 C 
ATOM     27  C   UNL     1      52.584  15.063  21.267  0.00  0.00    +0.020 C 
ATOM     28  C   UNL     1      52.523  13.563  21.565  0.00  0.00    +0.144 C 
ATOM     45  C   UNL     1      51.215  12.955  21.055  0.00  0.00    +0.025 C 
ATOM     46  C   UNL     1      48.918  15.908  22.039  0.00  0.00    +0.030 C 
ATOM     47  C   UNL     1      48.737  17.294  21.422  0.00  0.00    +0.027 C 
ATOM     48  C   UNL     1      47.472  17.991  21.949  0.00  0.00    +0.027 C 
ATOM     49  C   UNL     1      46.294  17.101  21.628  0.00  0.00    -0.052 C 
ATOM     50  C   UNL     1      46.367  16.705  20.152  0.00  0.00    +0.032 C 
ENDROOT
BRANCH  14  13
ATOM     11  C   UNL     1      44.817  20.656  20.748  0.00  0.00    +0.168 C 
ATOM     12  C   UNL     1      45.327  19.324  20.134  0.00  0.00    +0.025 C 
ATOM     13  C   UNL     1      44.304  18.322  20.727  0.00  0.00    +0.001 C 
ATOM     51  C   UNL     1      43.134  19.196  21.138  0.00  0.00    +0.476 C 
ATOM     52  O   UNL     1      42.137  18.813  21.704  0.00  0.00    -0.421 OA
ATOM     53  O   UNL     1      43.386  20.470  20.774  0.00  0.00    -0.332 OA
BRANCH  11   5
ATOM      5  C   UNL     1      45.193  21.843  19.858  0.00  0.00    +0.157 C 
BRANCH   5   8
ATOM      8  C   UNL     1      46.445  22.523  20.417  0.00  0.00    -0.040 C 
ATOM      9  C   UNL     1      47.642  21.579  20.280  0.00  0.00    +0.037 C 
ATOM     10  C   UNL     1      46.226  22.859  21.893  0.00  0.00    +0.031 C 
ENDBRANCH   5   8
BRANCH   5   2
ATOM      1  C   UNL     1      44.526  24.171  19.245  0.00  0.00    +0.020 C 
ATOM      2  C   UNL     1      44.038  22.845  19.830  0.00  0.00    +0.184 C 
BRANCH   2   3
ATOM      3  O   UNL     1      42.978  22.328  19.022  0.00  0.00    -0.558 OA
ATOM      4  H   UNL     1      43.143  21.439  18.679  0.00  0.00    +0.382 HD
ENDBRANCH   2   3
ENDBRANCH   5   2
BRANCH   5   6
ATOM      6  O   UNL     1      45.455  21.379  18.531  0.00  0.00    -0.540 OA
ATOM      7  H   UNL     1      44.849  21.731  17.865  0.00  0.00    +0.379 HD
ENDBRANCH   5   6
ENDBRANCH  11   5
ENDBRANCH  14  13
BRANCH  15  16
ATOM     16  O   UNL     1      43.043  16.149  21.297  0.00  0.00    -0.541 OA
ATOM     17  H   UNL     1      43.319  16.351  20.393  0.00  0.00    +0.374 HD
ENDBRANCH  15  16
BRANCH  28  29
ATOM     29  O   UNL     1      53.636  12.909  20.953  0.00  0.00    -0.360 OA
BRANCH  29  30
ATOM     30  C   UNL     1      54.605  12.418  21.883  0.00  0.00    +0.316 C 
ATOM     31  C   UNL     1      55.620  11.540  21.148  0.00  0.00    +0.140 C 
ATOM     34  C   UNL     1      56.361  12.390  20.110  0.00  0.00    +0.153 C 
ATOM     37  C   UNL     1      57.023  13.576  20.818  0.00  0.00    +0.166 C 
ATOM     40  C   UNL     1      55.953  14.376  21.566  0.00  0.00    +0.200 C 
ATOM     44  O   UNL     1      55.280  13.519  22.492  0.00  0.00    -0.372 OA
BRANCH  31  32
ATOM     32  O   UNL     1      54.939  10.470  20.491  0.00  0.00    -0.548 OA
ATOM     33  H   UNL     1      55.053   9.609  20.917  0.00  0.00    +0.386 HD
ENDBRANCH  31  32
BRANCH  34  35
ATOM     35  O   UNL     1      55.434  12.869  19.135  0.00  0.00    -0.529 OA
ATOM     36  H   UNL     1      55.461  13.827  19.003  0.00  0.00    +0.384 HD
ENDBRANCH  34  35
BRANCH  37  38
ATOM     38  O   UNL     1      57.657  14.415  19.851  0.00  0.00    -0.544 OA
ATOM     39  H   UNL     1      58.324  13.963  19.316  0.00  0.00    +0.384 HD
ENDBRANCH  37  38
BRANCH  40  41
ATOM     41  C   UNL     1      56.614  15.529  22.324  0.00  0.00    +0.207 C 
BRANCH  41  42
ATOM     42  O   UNL     1      57.064  16.514  21.394  0.00  0.00    -0.563 OA
ATOM     43  H   UNL     1      56.375  17.129  21.107  0.00  0.00    +0.380 HD
ENDBRANCH  41  42
ENDBRANCH  40  41
ENDBRANCH  29  30
ENDBRANCH  28  29
TORSDOF 14
ENDMDL
MODEL 7
REMARK VINA RESULT:      -4.0      2.609     11.292
REMARK  Name = ZINC95486045
REMARK  19 active torsions:
REMARK  status: ('A' for Active; 'I' for Inactive)
REMARK    1  A    between atoms: C1_1  and  C2_2
REMARK    2  A    between atoms: C2_2  and  C3_4
REMARK    3  A    between atoms: C2_2  and  O11_60
REMARK    4  A    between atoms: C3_4  and  C4_5
REMARK    5  A    between atoms: C3_4  and  C33_56
REMARK    6  A    between atoms: C3_4  and  O10_59
REMARK    7  A    between atoms: C6_8  and  C8_13
REMARK    8  A    between atoms: C9_15  and  O9_55
REMARK    9  A    between atoms: C12_20  and  C32_54
REMARK   10  A    between atoms: C20_30  and  C31_53
REMARK   11  A    between atoms: C23_33  and  O3_36
REMARK   12  A    between atoms: O3_36  and  C25_37
REMARK   13  A    between atoms: C26_39  and  O8_52
REMARK   14  A    between atoms: C27_41  and  O7_51
REMARK   15  A    between atoms: C28_43  and  O6_50
REMARK   16  A    between atoms: C29_45  and  C30_48
REMARK   17  A    between atoms: C30_48  and  O5_49
REMARK   18  A    between atoms: C33_56  and  C34_57
REMARK   19  A    between atoms: C33_56  and  C35_58
REMARK                            x       y       z     vdW  Elec       q    Type
REMARK                         _______ _______ _______ _____ _____    ______ ____
ROOT
ATOM     14  C   UNL     1      45.355  17.022  21.826  0.00  0.00    +0.026 C 
ATOM     15  C   UNL     1      44.964  15.522  21.751  0.00  0.00    +0.164 C 
ATOM     18  C   UNL     1      46.296  14.729  21.632  0.00  0.00    +0.002 C 
ATOM     19  C   UNL     1      47.316  15.686  22.253  0.00  0.00    +0.028 C 
ATOM     20  C   UNL     1      48.748  15.504  21.827  0.00  0.00    -0.091 C 
ATOM     21  C   UNL     1      49.105  14.452  21.161  0.00  0.00    -0.055 C 
ATOM     22  C   UNL     1      50.513  14.218  20.695  0.00  0.00    +0.060 C 
ATOM     23  C   UNL     1      51.484  14.962  21.621  0.00  0.00    +0.006 C 
ATOM     24  C   UNL     1      51.079  16.468  21.645  0.00  0.00    -0.043 C 
ATOM     25  C   UNL     1      51.101  17.052  20.232  0.00  0.00    +0.026 C 
ATOM     26  C   UNL     1      52.077  17.248  22.505  0.00  0.00    +0.020 C 
ATOM     27  C   UNL     1      53.480  17.123  21.911  0.00  0.00    +0.020 C 
ATOM     28  C   UNL     1      53.885  15.647  21.883  0.00  0.00    +0.144 C 
ATOM     45  C   UNL     1      52.900  14.822  21.054  0.00  0.00    +0.025 C 
ATOM     46  C   UNL     1      49.685  16.625  22.230  0.00  0.00    +0.030 C 
ATOM     47  C   UNL     1      49.117  18.001  21.887  0.00  0.00    +0.027 C 
ATOM     48  C   UNL     1      47.652  18.139  22.331  0.00  0.00    +0.027 C 
ATOM     49  C   UNL     1      46.864  17.048  21.647  0.00  0.00    -0.052 C 
ATOM     50  C   UNL     1      47.195  17.065  20.154  0.00  0.00    +0.032 C 
ENDROOT
BRANCH  14  13
ATOM     11  C   UNL     1      45.109  20.148  20.877  0.00  0.00    +0.168 C 
ATOM     12  C   UNL     1      45.629  18.886  20.136  0.00  0.00    +0.025 C 
ATOM     13  C   UNL     1      44.674  17.805  20.702  0.00  0.00    +0.001 C 
ATOM     51  C   UNL     1      43.499  18.600  21.239  0.00  0.00    +0.476 C 
ATOM     52  O   UNL     1      42.548  18.138  21.825  0.00  0.00    -0.421 OA
ATOM     53  O   UNL     1      43.688  19.906  20.962  0.00  0.00    -0.332 OA
BRANCH  11   5
ATOM      5  C   UNL     1      45.395  21.412  20.063  0.00  0.00    +0.157 C 
BRANCH   5   8
ATOM      8  C   UNL     1      46.692  22.055  20.560  0.00  0.00    -0.040 C 
ATOM      9  C   UNL     1      47.883  21.189  20.142  0.00  0.00    +0.037 C 
ATOM     10  C   UNL     1      46.653  22.168  22.085  0.00  0.00    +0.031 C 
ENDBRANCH   5   8
BRANCH   5   2
ATOM      1  C   UNL     1      44.637  23.755  19.647  0.00  0.00    +0.020 C 
ATOM      2  C   UNL     1      44.239  22.399  20.231  0.00  0.00    +0.184 C 
BRANCH   2   3
ATOM      3  O   UNL     1      43.086  21.905  19.547  0.00  0.00    -0.558 OA
ATOM      4  H   UNL     1      43.189  21.007  19.201  0.00  0.00    +0.382 HD
ENDBRANCH   2   3
ENDBRANCH   5   2
BRANCH   5   6
ATOM      6  O   UNL     1      45.532  21.069  18.682  0.00  0.00    -0.540 OA
ATOM      7  H   UNL     1      45.842  21.796  18.125  0.00  0.00    +0.379 HD
ENDBRANCH   5   6
ENDBRANCH  11   5
ENDBRANCH  14  13
BRANCH  15  16
ATOM     16  O   UNL     1      44.145  15.285  20.603  0.00  0.00    -0.541 OA
ATOM     17  H   UNL     1      44.182  14.376  20.276  0.00  0.00    +0.374 HD
ENDBRANCH  15  16
BRANCH  28  29
ATOM     29  O   UNL     1      55.201  15.523  21.342  0.00  0.00    -0.360 OA
BRANCH  29  30
ATOM     30  C   UNL     1      55.321  14.524  20.326  0.00  0.00    +0.316 C 
ATOM     31  C   UNL     1      56.710  14.607  19.689  0.00  0.00    +0.140 C 
ATOM     34  C   UNL     1      57.771  14.314  20.755  0.00  0.00    +0.153 C 
ATOM     37  C   UNL     1      57.493  12.938  21.370  0.00  0.00    +0.166 C 
ATOM     40  C   UNL     1      56.073  12.920  21.943  0.00  0.00    +0.200 C 
ATOM     44  O   UNL     1      55.139  13.232  20.906  0.00  0.00    -0.372 OA
BRANCH  31  32
ATOM     32  O   UNL     1      56.915  15.917  19.158  0.00  0.00    -0.548 OA
ATOM     33  H   UNL     1      57.762  16.313  19.403  0.00  0.00    +0.386 HD
ENDBRANCH  31  32
BRANCH  34  35
ATOM     35  O   UNL     1      57.713  15.315  21.774  0.00  0.00    -0.529 OA
ATOM     36  H   UNL     1      58.424  15.968  21.723  0.00  0.00    +0.384 HD
ENDBRANCH  34  35
BRANCH  37  38
ATOM     38  O   UNL     1      58.433  12.684  22.416  0.00  0.00    -0.544 OA
ATOM     39  H   UNL     1      59.033  13.422  22.593  0.00  0.00    +0.384 HD
ENDBRANCH  37  38
BRANCH  40  41
ATOM     41  C   UNL     1      55.767  11.531  22.505  0.00  0.00    +0.207 C 
BRANCH  41  42
ATOM     42  O   UNL     1      56.601  10.564  21.865  0.00  0.00    -0.563 OA
ATOM     43  H   UNL     1      57.430  10.390  22.330  0.00  0.00    +0.380 HD
ENDBRANCH  41  42
ENDBRANCH  40  41
ENDBRANCH  29  30
ENDBRANCH  28  29
TORSDOF 14
ENDMDL
MODEL 8
REMARK VINA RESULT:      -3.5      2.131      3.197
REMARK  Name = ZINC95486045
REMARK  19 active torsions:
REMARK  status: ('A' for Active; 'I' for Inactive)
REMARK    1  A    between atoms: C1_1  and  C2_2
REMARK    2  A    between atoms: C2_2  and  C3_4
REMARK    3  A    between atoms: C2_2  and  O11_60
REMARK    4  A    between atoms: C3_4  and  C4_5
REMARK    5  A    between atoms: C3_4  and  C33_56
REMARK    6  A    between atoms: C3_4  and  O10_59
REMARK    7  A    between atoms: C6_8  and  C8_13
REMARK    8  A    between atoms: C9_15  and  O9_55
REMARK    9  A    between atoms: C12_20  and  C32_54
REMARK   10  A    between atoms: C20_30  and  C31_53
REMARK   11  A    between atoms: C23_33  and  O3_36
REMARK   12  A    between atoms: O3_36  and  C25_37
REMARK   13  A    between atoms: C26_39  and  O8_52
REMARK   14  A    between atoms: C27_41  and  O7_51
REMARK   15  A    between atoms: C28_43  and  O6_50
REMARK   16  A    between atoms: C29_45  and  C30_48
REMARK   17  A    between atoms: C30_48  and  O5_49
REMARK   18  A    between atoms: C33_56  and  C34_57
REMARK   19  A    between atoms: C33_56  and  C35_58
REMARK                            x       y       z     vdW  Elec       q    Type
REMARK                         _______ _______ _______ _____ _____    ______ ____
ROOT
ATOM     14  C   UNL     1      51.118  11.492  19.963  0.00  0.00    +0.026 C 
ATOM     15  C   UNL     1      50.271  10.658  20.960  0.00  0.00    +0.164 C 
ATOM     18  C   UNL     1      49.103  11.578  21.417  0.00  0.00    +0.002 C 
ATOM     19  C   UNL     1      48.981  12.570  20.257  0.00  0.00    +0.028 C 
ATOM     20  C   UNL     1      48.353  13.898  20.579  0.00  0.00    -0.091 C 
ATOM     21  C   UNL     1      47.749  14.082  21.712  0.00  0.00    -0.055 C 
ATOM     22  C   UNL     1      47.115  15.387  22.099  0.00  0.00    +0.060 C 
ATOM     23  C   UNL     1      46.714  16.151  20.831  0.00  0.00    +0.006 C 
ATOM     24  C   UNL     1      47.982  16.317  19.939  0.00  0.00    -0.043 C 
ATOM     25  C   UNL     1      49.085  17.049  20.705  0.00  0.00    +0.026 C 
ATOM     26  C   UNL     1      47.627  17.142  18.699  0.00  0.00    +0.020 C 
ATOM     27  C   UNL     1      47.136  18.526  19.123  0.00  0.00    +0.020 C 
ATOM     28  C   UNL     1      45.891  18.373  20.000  0.00  0.00    +0.144 C 
ATOM     45  C   UNL     1      46.194  17.532  21.241  0.00  0.00    +0.025 C 
ATOM     46  C   UNL     1      48.497  14.954  19.503  0.00  0.00    +0.030 C 
ATOM     47  C   UNL     1      49.932  15.066  18.994  0.00  0.00    +0.027 C 
ATOM     48  C   UNL     1      50.536  13.687  18.686  0.00  0.00    +0.027 C 
ATOM     49  C   UNL     1      50.479  12.871  19.956  0.00  0.00    -0.052 C 
ATOM     50  C   UNL     1      51.061  13.702  21.100  0.00  0.00    +0.032 C 
ENDROOT
BRANCH  14  13
ATOM     11  C   UNL     1      53.568  13.663  19.828  0.00  0.00    +0.168 C 
ATOM     12  C   UNL     1      52.861  12.984  21.032  0.00  0.00    +0.025 C 
ATOM     13  C   UNL     1      52.568  11.581  20.441  0.00  0.00    +0.001 C 
ATOM     51  C   UNL     1      53.525  11.471  19.269  0.00  0.00    +0.476 C 
ATOM     52  O   UNL     1      53.581  10.547  18.493  0.00  0.00    -0.421 OA
ATOM     53  O   UNL     1      54.302  12.573  19.230  0.00  0.00    -0.332 OA
BRANCH  11   5
ATOM      5  C   UNL     1      54.521  14.760  20.307  0.00  0.00    +0.157 C 
BRANCH   5   8
ATOM      8  C   UNL     1      53.973  16.128  19.891  0.00  0.00    -0.040 C 
ATOM      9  C   UNL     1      53.198  16.743  21.059  0.00  0.00    +0.037 C 
ATOM     10  C   UNL     1      53.040  15.960  18.691  0.00  0.00    +0.031 C 
ENDBRANCH   5   8
BRANCH   5   2
ATOM      1  C   UNL     1      56.734  15.820  19.838  0.00  0.00    +0.020 C 
ATOM      2  C   UNL     1      55.898  14.549  19.677  0.00  0.00    +0.184 C 
BRANCH   2   3
ATOM      3  O   UNL     1      56.557  13.460  20.325  0.00  0.00    -0.558 OA
ATOM      4  H   UNL     1      56.307  13.345  21.253  0.00  0.00    +0.382 HD
ENDBRANCH   2   3
ENDBRANCH   5   2
BRANCH   5   6
ATOM      6  O   UNL     1      54.634  14.705  21.731  0.00  0.00    -0.540 OA
ATOM      7  H   UNL     1      53.972  15.233  22.198  0.00  0.00    +0.379 HD
ENDBRANCH   5   6
ENDBRANCH  11   5
ENDBRANCH  14  13
BRANCH  15  16
ATOM     16  O   UNL     1      51.069  10.281  22.085  0.00  0.00    -0.541 OA
ATOM     17  H   UNL     1      50.585   9.794  22.765  0.00  0.00    +0.374 HD
ENDBRANCH  15  16
BRANCH  28  29
ATOM     29  O   UNL     1      45.419  19.664  20.388  0.00  0.00    -0.360 OA
BRANCH  29  30
ATOM     30  C   UNL     1      45.911  20.732  19.577  0.00  0.00    +0.316 C 
ATOM     31  C   UNL     1      44.734  21.543  19.029  0.00  0.00    +0.140 C 
ATOM     34  C   UNL     1      43.964  22.165  20.199  0.00  0.00    +0.153 C 
ATOM     37  C   UNL     1      44.926  23.022  21.029  0.00  0.00    +0.166 C 
ATOM     40  C   UNL     1      46.096  22.154  21.499  0.00  0.00    +0.200 C 
ATOM     44  O   UNL     1      46.748  21.581  20.363  0.00  0.00    -0.372 OA
BRANCH  31  32
ATOM     32  O   UNL     1      43.866  20.683  18.288  0.00  0.00    -0.548 OA
ATOM     33  H   UNL     1      44.312  20.167  17.604  0.00  0.00    +0.386 HD
ENDBRANCH  31  32
BRANCH  34  35
ATOM     35  O   UNL     1      43.419  21.128  21.017  0.00  0.00    -0.529 OA
ATOM     36  H   UNL     1      43.860  21.027  21.871  0.00  0.00    +0.384 HD
ENDBRANCH  34  35
BRANCH  37  38
ATOM     38  O   UNL     1      44.236  23.550  22.163  0.00  0.00    -0.544 OA
ATOM     39  H   UNL     1      44.284  22.989  22.949  0.00  0.00    +0.384 HD
ENDBRANCH  37  38
BRANCH  40  41
ATOM     41  C   UNL     1      47.090  23.017  22.278  0.00  0.00    +0.207 C 
BRANCH  41  42
ATOM     42  O   UNL     1      46.901  24.390  21.934  0.00  0.00    -0.563 OA
ATOM     43  H   UNL     1      47.394  25.008  22.492  0.00  0.00    +0.380 HD
ENDBRANCH  41  42
ENDBRANCH  40  41
ENDBRANCH  29  30
ENDBRANCH  28  29
TORSDOF 14
ENDMDL
MODEL 9
REMARK VINA RESULT:      -3.5      3.856     11.191
REMARK  Name = ZINC95486045
REMARK  19 active torsions:
REMARK  status: ('A' for Active; 'I' for Inactive)
REMARK    1  A    between atoms: C1_1  and  C2_2
REMARK    2  A    between atoms: C2_2  and  C3_4
REMARK    3  A    between atoms: C2_2  and  O11_60
REMARK    4  A    between atoms: C3_4  and  C4_5
REMARK    5  A    between atoms: C3_4  and  C33_56
REMARK    6  A    between atoms: C3_4  and  O10_59
REMARK    7  A    between atoms: C6_8  and  C8_13
REMARK    8  A    between atoms: C9_15  and  O9_55
REMARK    9  A    between atoms: C12_20  and  C32_54
REMARK   10  A    between atoms: C20_30  and  C31_53
REMARK   11  A    between atoms: C23_33  and  O3_36
REMARK   12  A    between atoms: O3_36  and  C25_37
REMARK   13  A    between atoms: C26_39  and  O8_52
REMARK   14  A    between atoms: C27_41  and  O7_51
REMARK   15  A    between atoms: C28_43  and  O6_50
REMARK   16  A    between atoms: C29_45  and  C30_48
REMARK   17  A    between atoms: C30_48  and  O5_49
REMARK   18  A    between atoms: C33_56  and  C34_57
REMARK   19  A    between atoms: C33_56  and  C35_58
REMARK                            x       y       z     vdW  Elec       q    Type
REMARK                         _______ _______ _______ _____ _____    ______ ____
ROOT
ATOM     14  C   UNL     1      45.129  18.518  21.361  0.00  0.00    +0.026 C 
ATOM     15  C   UNL     1      44.230  17.407  21.966  0.00  0.00    +0.164 C 
ATOM     18  C   UNL     1      44.659  16.078  21.281  0.00  0.00    +0.002 C 
ATOM     19  C   UNL     1      46.097  16.370  20.847  0.00  0.00    +0.028 C 
ATOM     20  C   UNL     1      46.629  15.547  19.705  0.00  0.00    -0.091 C 
ATOM     21  C   UNL     1      45.979  14.507  19.288  0.00  0.00    -0.055 C 
ATOM     22  C   UNL     1      46.448  13.653  18.145  0.00  0.00    +0.060 C 
ATOM     23  C   UNL     1      47.973  13.760  18.025  0.00  0.00    +0.006 C 
ATOM     24  C   UNL     1      48.347  15.266  17.870  0.00  0.00    -0.043 C 
ATOM     25  C   UNL     1      47.649  15.869  16.650  0.00  0.00    +0.026 C 
ATOM     26  C   UNL     1      49.859  15.397  17.675  0.00  0.00    +0.020 C 
ATOM     27  C   UNL     1      50.283  14.650  16.410  0.00  0.00    +0.020 C 
ATOM     28  C   UNL     1      49.921  13.171  16.554  0.00  0.00    +0.144 C 
ATOM     45  C   UNL     1      48.418  12.993  16.777  0.00  0.00    +0.025 C 
ATOM     46  C   UNL     1      47.934  16.038  19.113  0.00  0.00    +0.030 C 
ATOM     47  C   UNL     1      47.908  17.537  18.824  0.00  0.00    +0.027 C 
ATOM     48  C   UNL     1      47.350  18.337  20.012  0.00  0.00    +0.027 C 
ATOM     49  C   UNL     1      45.959  17.820  20.296  0.00  0.00    -0.052 C 
ATOM     50  C   UNL     1      45.171  17.784  18.985  0.00  0.00    +0.032 C 
ENDROOT
BRANCH  14  13
ATOM     11  C   UNL     1      44.968  21.790  21.428  0.00  0.00    +0.168 C 
ATOM     12  C   UNL     1      45.154  20.793  20.252  0.00  0.00    +0.025 C 
ATOM     13  C   UNL     1      44.268  19.614  20.730  0.00  0.00    +0.001 C 
ATOM     51  C   UNL     1      43.355  20.239  21.767  0.00  0.00    +0.476 C 
ATOM     52  O   UNL     1      42.542  19.646  22.435  0.00  0.00    -0.421 OA
ATOM     53  O   UNL     1      43.598  21.565  21.825  0.00  0.00    -0.332 OA
BRANCH  11   5
ATOM      5  C   UNL     1      45.165  23.231  20.954  0.00  0.00    +0.157 C 
BRANCH   5   8
ATOM      8  C   UNL     1      44.678  23.363  19.509  0.00  0.00    -0.040 C 
ATOM      9  C   UNL     1      45.063  24.741  18.966  0.00  0.00    +0.037 C 
ATOM     10  C   UNL     1      43.157  23.205  19.468  0.00  0.00    +0.031 C 
ENDBRANCH   5   8
BRANCH   5   2
ATOM      1  C   UNL     1      46.807  24.983  21.645  0.00  0.00    +0.020 C 
ATOM      2  C   UNL     1      46.650  23.592  21.027  0.00  0.00    +0.184 C 
BRANCH   2   3
ATOM      3  O   UNL     1      47.336  22.632  21.832  0.00  0.00    -0.558 OA
ATOM      4  H   UNL     1      47.504  21.792  21.384  0.00  0.00    +0.382 HD
ENDBRANCH   2   3
ENDBRANCH   5   2
BRANCH   5   6
ATOM      6  O   UNL     1      44.417  24.115  21.792  0.00  0.00    -0.540 OA
ATOM      7  H   UNL     1      44.110  23.710  22.615  0.00  0.00    +0.379 HD
ENDBRANCH   5   6
ENDBRANCH  11   5
ENDBRANCH  14  13
BRANCH  15  16
ATOM     16  O   UNL     1      42.855  17.683  21.687  0.00  0.00    -0.541 OA
ATOM     17  H   UNL     1      42.670  18.615  21.508  0.00  0.00    +0.374 HD
ENDBRANCH  15  16
BRANCH  28  29
ATOM     29  O   UNL     1      50.326  12.463  15.381  0.00  0.00    -0.360 OA
BRANCH  29  30
ATOM     30  C   UNL     1      51.682  12.705  14.995  0.00  0.00    +0.316 C 
ATOM     31  C   UNL     1      52.405  11.370  14.807  0.00  0.00    +0.140 C 
ATOM     34  C   UNL     1      51.733  10.588  13.674  0.00  0.00    +0.153 C 
ATOM     37  C   UNL     1      51.747  11.442  12.402  0.00  0.00    +0.166 C 
ATOM     40  C   UNL     1      51.048  12.775  12.683  0.00  0.00    +0.200 C 
ATOM     44  O   UNL     1      51.704  13.436  13.769  0.00  0.00    -0.372 OA
BRANCH  31  32
ATOM     32  O   UNL     1      52.335  10.613  16.017  0.00  0.00    -0.548 OA
ATOM     33  H   UNL     1      51.695  10.953  16.657  0.00  0.00    +0.386 HD
ENDBRANCH  31  32
BRANCH  34  35
ATOM     35  O   UNL     1      50.383  10.289  14.035  0.00  0.00    -0.529 OA
ATOM     36  H   UNL     1      49.742  10.445  13.328  0.00  0.00    +0.384 HD
ENDBRANCH  34  35
BRANCH  37  38
ATOM     38  O   UNL     1      51.059  10.753  11.357  0.00  0.00    -0.544 OA
ATOM     39  H   UNL     1      50.101  10.885  11.364  0.00  0.00    +0.384 HD
ENDBRANCH  37  38
BRANCH  40  41
ATOM     41  C   UNL     1      51.111  13.658  11.435  0.00  0.00    +0.207 C 
BRANCH  41  42
ATOM     42  O   UNL     1      49.787  14.030  11.048  0.00  0.00    -0.563 OA
ATOM     43  H   UNL     1      49.310  13.340  10.567  0.00  0.00    +0.380 HD
ENDBRANCH  41  42
ENDBRANCH  40  41
ENDBRANCH  29  30
ENDBRANCH  28  29
TORSDOF 14
ENDMDL
