MODEL 1
REMARK VINA RESULT:      -4.9      0.000      0.000
REMARK  Name = ZINC95486308
REMARK  10 active torsions:
REMARK  status: ('A' for Active; 'I' for Inactive)
REMARK    1  A    between atoms: C1_1  and  O1_2
REMARK    2  A    between atoms: O1_2  and  C2_3
REMARK    3  A    between atoms: C4_5  and  C8_10
REMARK    4  A    between atoms: C7_8  and  O2_9
REMARK    5  A    between atoms: C9_11  and  C10_12
REMARK    6  A    between atoms: C10_12  and  O4_14
REMARK    7  A    between atoms: O4_14  and  C11_15
REMARK    8  A    between atoms: C11_15  and  C12_16
REMARK    9  A    between atoms: C12_16  and  C13_17
REMARK   10  A    between atoms: C13_17  and  O5_18
REMARK                            x       y       z     vdW  Elec       q    Type
REMARK                         _______ _______ _______ _____ _____    ______ ____
ROOT
ATOM      3  C   UNL     1      44.671  22.198  20.151  0.00  0.00    +0.100 A 
ATOM      4  C   UNL     1      45.632  21.515  19.432  0.00  0.00    -0.026 A 
ATOM      5  C   UNL     1      46.920  21.362  19.960  0.00  0.00    -0.057 A 
ATOM     16  C   UNL     1      47.225  21.902  21.214  0.00  0.00    +0.026 A 
ATOM     17  C   UNL     1      46.260  22.582  21.925  0.00  0.00    +0.033 A 
ATOM     18  C   UNL     1      44.985  22.738  21.397  0.00  0.00    +0.096 A 
ENDROOT
BRANCH   3   2
ATOM      1  C   UNL     1      42.708  21.155  19.305  0.00  0.00    +0.243 C 
ATOM      2  O   UNL     1      43.419  22.348  19.641  0.00  0.00    -0.306 OA
ENDBRANCH   3   2
BRANCH   5   6
ATOM      6  C   UNL     1      47.947  20.637  19.200  0.00  0.00    +0.153 C 
ATOM      7  C   UNL     1      49.231  20.646  19.620  0.00  0.00    -0.060 C 
BRANCH   7   8
ATOM      8  C   UNL     1      50.221  19.946  18.886  0.00  0.00    +0.503 C 
ATOM     15  O   UNL     1      50.108  18.750  18.698  0.00  0.00    -0.513 OA
BRANCH   8   9
ATOM      9  O   UNL     1      51.291  20.608  18.396  0.00  0.00    -0.348 OA
BRANCH   9  10
ATOM     10  C   UNL     1      51.183  21.121  17.067  0.00  0.00    +0.213 C 
BRANCH  10  11
ATOM     11  C   UNL     1      52.317  20.558  16.209  0.00  0.00    +0.043 C 
BRANCH  11  12
ATOM     12  C   UNL     1      51.929  19.169  15.696  0.00  0.00    +0.181 C 
BRANCH  12  13
ATOM     13  O   UNL     1      52.255  18.189  16.683  0.00  0.00    -0.572 OA
ATOM     14  H   UNL     1      51.609  18.121  17.399  0.00  0.00    +0.385 HD
ENDBRANCH  12  13
ENDBRANCH  11  12
ENDBRANCH  10  11
ENDBRANCH   9  10
ENDBRANCH   8   9
ENDBRANCH   7   8
ENDBRANCH   5   6
BRANCH  18  19
ATOM     19  O   UNL     1      44.040  23.412  22.101  0.00  0.00    -0.485 OA
ATOM     20  H   UNL     1      43.411  22.842  22.564  0.00  0.00    +0.392 HD
ENDBRANCH  18  19
TORSDOF 9
ENDMDL
MODEL 2
REMARK VINA RESULT:      -4.7      1.479      2.421
REMARK  Name = ZINC95486308
REMARK  10 active torsions:
REMARK  status: ('A' for Active; 'I' for Inactive)
REMARK    1  A    between atoms: C1_1  and  O1_2
REMARK    2  A    between atoms: O1_2  and  C2_3
REMARK    3  A    between atoms: C4_5  and  C8_10
REMARK    4  A    between atoms: C7_8  and  O2_9
REMARK    5  A    between atoms: C9_11  and  C10_12
REMARK    6  A    between atoms: C10_12  and  O4_14
REMARK    7  A    between atoms: O4_14  and  C11_15
REMARK    8  A    between atoms: C11_15  and  C12_16
REMARK    9  A    between atoms: C12_16  and  C13_17
REMARK   10  A    between atoms: C13_17  and  O5_18
REMARK                            x       y       z     vdW  Elec       q    Type
REMARK                         _______ _______ _______ _____ _____    ______ ____
ROOT
ATOM      3  C   UNL     1      45.274  21.366  19.558  0.00  0.00    +0.100 A 
ATOM      4  C   UNL     1      46.630  21.402  19.819  0.00  0.00    -0.026 A 
ATOM      5  C   UNL     1      47.463  20.396  19.315  0.00  0.00    -0.057 A 
ATOM     16  C   UNL     1      46.917  19.360  18.550  0.00  0.00    +0.026 A 
ATOM     17  C   UNL     1      45.564  19.332  18.294  0.00  0.00    +0.033 A 
ATOM     18  C   UNL     1      44.737  20.327  18.800  0.00  0.00    +0.096 A 
ENDROOT
BRANCH   3   2
ATOM      1  C   UNL     1      44.518  23.616  19.401  0.00  0.00    +0.243 C 
ATOM      2  O   UNL     1      44.463  22.342  20.046  0.00  0.00    -0.306 OA
ENDBRANCH   3   2
BRANCH   5   6
ATOM      6  C   UNL     1      48.907  20.429  19.589  0.00  0.00    +0.153 C 
ATOM      7  C   UNL     1      49.754  20.968  18.685  0.00  0.00    -0.060 C 
BRANCH   7   8
ATOM      8  C   UNL     1      51.146  20.999  18.950  0.00  0.00    +0.503 C 
ATOM     15  O   UNL     1      51.546  21.199  20.081  0.00  0.00    -0.513 OA
BRANCH   8   9
ATOM      9  O   UNL     1      52.028  20.807  17.946  0.00  0.00    -0.348 OA
BRANCH   9  10
ATOM     10  C   UNL     1      51.546  20.999  16.614  0.00  0.00    +0.213 C 
BRANCH  10  11
ATOM     11  C   UNL     1      52.054  19.868  15.719  0.00  0.00    +0.043 C 
BRANCH  11  12
ATOM     12  C   UNL     1      51.474  18.536  16.202  0.00  0.00    +0.181 C 
BRANCH  12  13
ATOM     13  O   UNL     1      52.335  17.974  17.194  0.00  0.00    -0.572 OA
ATOM     14  H   UNL     1      53.084  18.538  17.430  0.00  0.00    +0.385 HD
ENDBRANCH  12  13
ENDBRANCH  11  12
ENDBRANCH  10  11
ENDBRANCH   9  10
ENDBRANCH   8   9
ENDBRANCH   7   8
ENDBRANCH   5   6
BRANCH  18  19
ATOM     19  O   UNL     1      43.403  20.291  18.549  0.00  0.00    -0.485 OA
ATOM     20  H   UNL     1      43.181  20.102  17.627  0.00  0.00    +0.392 HD
ENDBRANCH  18  19
TORSDOF 9
ENDMDL
MODEL 3
REMARK VINA RESULT:      -4.6      4.216      4.967
REMARK  Name = ZINC95486308
REMARK  10 active torsions:
REMARK  status: ('A' for Active; 'I' for Inactive)
REMARK    1  A    between atoms: C1_1  and  O1_2
REMARK    2  A    between atoms: O1_2  and  C2_3
REMARK    3  A    between atoms: C4_5  and  C8_10
REMARK    4  A    between atoms: C7_8  and  O2_9
REMARK    5  A    between atoms: C9_11  and  C10_12
REMARK    6  A    between atoms: C10_12  and  O4_14
REMARK    7  A    between atoms: O4_14  and  C11_15
REMARK    8  A    between atoms: C11_15  and  C12_16
REMARK    9  A    between atoms: C12_16  and  C13_17
REMARK   10  A    between atoms: C13_17  and  O5_18
REMARK                            x       y       z     vdW  Elec       q    Type
REMARK                         _______ _______ _______ _____ _____    ______ ____
ROOT
ATOM      3  C   UNL     1      43.198  20.913  19.255  0.00  0.00    +0.100 A 
ATOM      4  C   UNL     1      43.876  19.863  18.665  0.00  0.00    -0.026 A 
ATOM      5  C   UNL     1      45.268  19.919  18.534  0.00  0.00    -0.057 A 
ATOM     16  C   UNL     1      45.966  21.039  19.000  0.00  0.00    +0.026 A 
ATOM     17  C   UNL     1      45.283  22.081  19.587  0.00  0.00    +0.033 A 
ATOM     18  C   UNL     1      43.901  22.027  19.712  0.00  0.00    +0.096 A 
ENDROOT
BRANCH   3   2
ATOM      1  C   UNL     1      41.115  20.241  18.324  0.00  0.00    +0.243 C 
ATOM      2  O   UNL     1      41.846  20.861  19.384  0.00  0.00    -0.306 OA
ENDBRANCH   3   2
BRANCH   5   6
ATOM      6  C   UNL     1      45.995  18.806  17.908  0.00  0.00    +0.153 C 
ATOM      7  C   UNL     1      45.760  17.537  18.307  0.00  0.00    -0.060 C 
BRANCH   7   8
ATOM      8  C   UNL     1      46.461  16.463  17.703  0.00  0.00    +0.503 C 
ATOM     15  O   UNL     1      47.239  16.679  16.793  0.00  0.00    -0.513 OA
BRANCH   8   9
ATOM      9  O   UNL     1      46.264  15.200  18.137  0.00  0.00    -0.348 OA
BRANCH   9  10
ATOM     10  C   UNL     1      47.373  14.303  18.047  0.00  0.00    +0.213 C 
BRANCH  10  11
ATOM     11  C   UNL     1      46.871  12.907  17.676  0.00  0.00    +0.043 C 
BRANCH  11  12
ATOM     12  C   UNL     1      47.037  12.687  16.171  0.00  0.00    +0.181 C 
BRANCH  12  13
ATOM     13  O   UNL     1      47.137  13.951  15.514  0.00  0.00    -0.572 OA
ATOM     14  H   UNL     1      46.957  13.916  14.564  0.00  0.00    +0.385 HD
ENDBRANCH  12  13
ENDBRANCH  11  12
ENDBRANCH  10  11
ENDBRANCH   9  10
ENDBRANCH   8   9
ENDBRANCH   7   8
ENDBRANCH   5   6
BRANCH  18  19
ATOM     19  O   UNL     1      43.233  23.060  20.287  0.00  0.00    -0.485 OA
ATOM     20  H   UNL     1      43.005  22.914  21.216  0.00  0.00    +0.392 HD
ENDBRANCH  18  19
TORSDOF 9
ENDMDL
MODEL 4
REMARK VINA RESULT:      -4.6      1.898      7.671
REMARK  Name = ZINC95486308
REMARK  10 active torsions:
REMARK  status: ('A' for Active; 'I' for Inactive)
REMARK    1  A    between atoms: C1_1  and  O1_2
REMARK    2  A    between atoms: O1_2  and  C2_3
REMARK    3  A    between atoms: C4_5  and  C8_10
REMARK    4  A    between atoms: C7_8  and  O2_9
REMARK    5  A    between atoms: C9_11  and  C10_12
REMARK    6  A    between atoms: C10_12  and  O4_14
REMARK    7  A    between atoms: O4_14  and  C11_15
REMARK    8  A    between atoms: C11_15  and  C12_16
REMARK    9  A    between atoms: C12_16  and  C13_17
REMARK   10  A    between atoms: C13_17  and  O5_18
REMARK                            x       y       z     vdW  Elec       q    Type
REMARK                         _______ _______ _______ _____ _____    ______ ____
ROOT
ATOM      3  C   UNL     1      51.194  20.253  18.575  0.00  0.00    +0.100 A 
ATOM      4  C   UNL     1      50.014  20.771  19.072  0.00  0.00    -0.026 A 
ATOM      5  C   UNL     1      48.842  20.007  19.019  0.00  0.00    -0.057 A 
ATOM     16  C   UNL     1      48.873  18.724  18.463  0.00  0.00    +0.026 A 
ATOM     17  C   UNL     1      50.054  18.215  17.971  0.00  0.00    +0.033 A 
ATOM     18  C   UNL     1      51.216  18.976  18.018  0.00  0.00    +0.096 A 
ENDROOT
BRANCH   3   2
ATOM      1  C   UNL     1      52.645  21.623  19.870  0.00  0.00    +0.243 C 
ATOM      2  O   UNL     1      52.335  20.993  18.625  0.00  0.00    -0.306 OA
ENDBRANCH   3   2
BRANCH   5   6
ATOM      6  C   UNL     1      47.583  20.553  19.545  0.00  0.00    +0.153 C 
ATOM      7  C   UNL     1      46.558  20.818  18.705  0.00  0.00    -0.060 C 
BRANCH   7   8
ATOM      8  C   UNL     1      45.344  21.344  19.214  0.00  0.00    +0.503 C 
ATOM     15  O   UNL     1      45.160  22.546  19.231  0.00  0.00    -0.513 OA
BRANCH   8   9
ATOM      9  O   UNL     1      44.390  20.508  19.678  0.00  0.00    -0.348 OA
BRANCH   9  10
ATOM     10  C   UNL     1      43.451  20.003  18.726  0.00  0.00    +0.213 C 
BRANCH  10  11
ATOM     11  C   UNL     1      42.035  20.127  19.290  0.00  0.00    +0.043 C 
BRANCH  11  12
ATOM     12  C   UNL     1      41.392  21.418  18.776  0.00  0.00    +0.181 C 
BRANCH  12  13
ATOM     13  O   UNL     1      42.188  22.536  19.170  0.00  0.00    -0.572 OA
ATOM     14  H   UNL     1      43.131  22.435  18.979  0.00  0.00    +0.385 HD
ENDBRANCH  12  13
ENDBRANCH  11  12
ENDBRANCH  10  11
ENDBRANCH   9  10
ENDBRANCH   8   9
ENDBRANCH   7   8
ENDBRANCH   5   6
BRANCH  18  19
ATOM     19  O   UNL     1      52.376  18.470  17.527  0.00  0.00    -0.485 OA
ATOM     20  H   UNL     1      53.045  19.139  17.329  0.00  0.00    +0.392 HD
ENDBRANCH  18  19
TORSDOF 9
ENDMDL
MODEL 5
REMARK VINA RESULT:      -4.6      5.211      5.925
REMARK  Name = ZINC95486308
REMARK  10 active torsions:
REMARK  status: ('A' for Active; 'I' for Inactive)
REMARK    1  A    between atoms: C1_1  and  O1_2
REMARK    2  A    between atoms: O1_2  and  C2_3
REMARK    3  A    between atoms: C4_5  and  C8_10
REMARK    4  A    between atoms: C7_8  and  O2_9
REMARK    5  A    between atoms: C9_11  and  C10_12
REMARK    6  A    between atoms: C10_12  and  O4_14
REMARK    7  A    between atoms: O4_14  and  C11_15
REMARK    8  A    between atoms: C11_15  and  C12_16
REMARK    9  A    between atoms: C12_16  and  C13_17
REMARK   10  A    between atoms: C13_17  and  O5_18
REMARK                            x       y       z     vdW  Elec       q    Type
REMARK                         _______ _______ _______ _____ _____    ______ ____
ROOT
ATOM      3  C   UNL     1      42.049  21.668  19.119  0.00  0.00    +0.100 A 
ATOM      4  C   UNL     1      42.100  20.356  19.548  0.00  0.00    -0.026 A 
ATOM      5  C   UNL     1      43.211  19.902  20.269  0.00  0.00    -0.057 A 
ATOM     16  C   UNL     1      44.264  20.780  20.550  0.00  0.00    +0.026 A 
ATOM     17  C   UNL     1      44.204  22.087  20.118  0.00  0.00    +0.033 A 
ATOM     18  C   UNL     1      43.104  22.535  19.398  0.00  0.00    +0.096 A 
ENDROOT
BRANCH   3   2
ATOM      1  C   UNL     1      39.787  21.314  18.474  0.00  0.00    +0.243 C 
ATOM      2  O   UNL     1      40.971  22.112  18.418  0.00  0.00    -0.306 OA
ENDBRANCH   3   2
BRANCH   5   6
ATOM      6  C   UNL     1      43.272  18.507  20.728  0.00  0.00    +0.153 C 
ATOM      7  C   UNL     1      44.404  17.790  20.561  0.00  0.00    -0.060 C 
BRANCH   7   8
ATOM      8  C   UNL     1      44.462  16.445  21.004  0.00  0.00    +0.503 C 
ATOM     15  O   UNL     1      43.915  16.121  22.041  0.00  0.00    -0.513 OA
BRANCH   8   9
ATOM      9  O   UNL     1      45.125  15.522  20.275  0.00  0.00    -0.348 OA
BRANCH   9  10
ATOM     10  C   UNL     1      45.749  15.974  19.071  0.00  0.00    +0.213 C 
BRANCH  10  11
ATOM     11  C   UNL     1      46.203  14.767  18.248  0.00  0.00    +0.043 C 
BRANCH  11  12
ATOM     12  C   UNL     1      45.855  13.478  18.997  0.00  0.00    +0.181 C 
BRANCH  12  13
ATOM     13  O   UNL     1      44.484  13.150  18.768  0.00  0.00    -0.572 OA
ATOM     14  H   UNL     1      44.005  12.880  19.563  0.00  0.00    +0.385 HD
ENDBRANCH  12  13
ENDBRANCH  11  12
ENDBRANCH  10  11
ENDBRANCH   9  10
ENDBRANCH   8   9
ENDBRANCH   7   8
ENDBRANCH   5   6
BRANCH  18  19
ATOM     19  O   UNL     1      43.054  23.823  18.972  0.00  0.00    -0.485 OA
ATOM     20  H   UNL     1      43.836  24.344  19.199  0.00  0.00    +0.392 HD
ENDBRANCH  18  19
TORSDOF 9
ENDMDL
MODEL 6
REMARK VINA RESULT:      -4.6      1.784      7.247
REMARK  Name = ZINC95486308
REMARK  10 active torsions:
REMARK  status: ('A' for Active; 'I' for Inactive)
REMARK    1  A    between atoms: C1_1  and  O1_2
REMARK    2  A    between atoms: O1_2  and  C2_3
REMARK    3  A    between atoms: C4_5  and  C8_10
REMARK    4  A    between atoms: C7_8  and  O2_9
REMARK    5  A    between atoms: C9_11  and  C10_12
REMARK    6  A    between atoms: C10_12  and  O4_14
REMARK    7  A    between atoms: O4_14  and  C11_15
REMARK    8  A    between atoms: C11_15  and  C12_16
REMARK    9  A    between atoms: C12_16  and  C13_17
REMARK   10  A    between atoms: C13_17  and  O5_18
REMARK                            x       y       z     vdW  Elec       q    Type
REMARK                         _______ _______ _______ _____ _____    ______ ____
ROOT
ATOM      3  C   UNL     1      51.177  21.116  18.108  0.00  0.00    +0.100 A 
ATOM      4  C   UNL     1      49.824  20.878  18.247  0.00  0.00    -0.026 A 
ATOM      5  C   UNL     1      49.269  20.740  19.526  0.00  0.00    -0.057 A 
ATOM     16  C   UNL     1      50.089  20.844  20.654  0.00  0.00    +0.026 A 
ATOM     17  C   UNL     1      51.438  21.082  20.507  0.00  0.00    +0.033 A 
ATOM     18  C   UNL     1      51.988  21.213  19.238  0.00  0.00    +0.096 A 
ENDROOT
BRANCH   3   2
ATOM      1  C   UNL     1      51.913  20.055  16.111  0.00  0.00    +0.243 C 
ATOM      2  O   UNL     1      51.719  21.251  16.868  0.00  0.00    -0.306 OA
ENDBRANCH   3   2
BRANCH   5   6
ATOM      6  C   UNL     1      47.830  20.486  19.681  0.00  0.00    +0.153 C 
ATOM      7  C   UNL     1      47.127  21.140  20.631  0.00  0.00    -0.060 C 
BRANCH   7   8
ATOM      8  C   UNL     1      45.739  20.895  20.780  0.00  0.00    +0.503 C 
ATOM     15  O   UNL     1      45.225  20.951  21.881  0.00  0.00    -0.513 OA
BRANCH   8   9
ATOM      9  O   UNL     1      44.987  20.600  19.698  0.00  0.00    -0.348 OA
BRANCH   9  10
ATOM     10  C   UNL     1      43.749  21.299  19.559  0.00  0.00    +0.213 C 
BRANCH  10  11
ATOM     11  C   UNL     1      42.700  20.364  18.953  0.00  0.00    +0.043 C 
BRANCH  11  12
ATOM     12  C   UNL     1      42.295  19.312  19.988  0.00  0.00    +0.181 C 
BRANCH  12  13
ATOM     13  O   UNL     1      42.509  19.829  21.302  0.00  0.00    -0.572 OA
ATOM     14  H   UNL     1      42.208  20.740  21.419  0.00  0.00    +0.385 HD
ENDBRANCH  12  13
ENDBRANCH  11  12
ENDBRANCH  10  11
ENDBRANCH   9  10
ENDBRANCH   8   9
ENDBRANCH   7   8
ENDBRANCH   5   6
BRANCH  18  19
ATOM     19  O   UNL     1      53.319  21.443  19.099  0.00  0.00    -0.485 OA
ATOM     20  H   UNL     1      53.832  20.660  18.857  0.00  0.00    +0.392 HD
ENDBRANCH  18  19
TORSDOF 9
ENDMDL
MODEL 7
REMARK VINA RESULT:      -4.6      1.588      2.163
REMARK  Name = ZINC95486308
REMARK  10 active torsions:
REMARK  status: ('A' for Active; 'I' for Inactive)
REMARK    1  A    between atoms: C1_1  and  O1_2
REMARK    2  A    between atoms: O1_2  and  C2_3
REMARK    3  A    between atoms: C4_5  and  C8_10
REMARK    4  A    between atoms: C7_8  and  O2_9
REMARK    5  A    between atoms: C9_11  and  C10_12
REMARK    6  A    between atoms: C10_12  and  O4_14
REMARK    7  A    between atoms: O4_14  and  C11_15
REMARK    8  A    between atoms: C11_15  and  C12_16
REMARK    9  A    between atoms: C12_16  and  C13_17
REMARK   10  A    between atoms: C13_17  and  O5_18
REMARK                            x       y       z     vdW  Elec       q    Type
REMARK                         _______ _______ _______ _____ _____    ______ ____
ROOT
ATOM      3  C   UNL     1      43.341  20.757  19.341  0.00  0.00    +0.100 A 
ATOM      4  C   UNL     1      44.275  19.816  18.952  0.00  0.00    -0.026 A 
ATOM      5  C   UNL     1      45.619  20.185  18.817  0.00  0.00    -0.057 A 
ATOM     16  C   UNL     1      46.008  21.503  19.076  0.00  0.00    +0.026 A 
ATOM     17  C   UNL     1      45.071  22.435  19.464  0.00  0.00    +0.033 A 
ATOM     18  C   UNL     1      43.736  22.070  19.592  0.00  0.00    +0.096 A 
ENDROOT
BRANCH   3   2
ATOM      1  C   UNL     1      41.270  20.280  18.272  0.00  0.00    +0.243 C 
ATOM      2  O   UNL     1      42.035  20.403  19.474  0.00  0.00    -0.306 OA
ENDBRANCH   3   2
BRANCH   5   6
ATOM      6  C   UNL     1      46.617  19.189  18.403  0.00  0.00    +0.153 C 
ATOM      7  C   UNL     1      47.895  19.296  18.830  0.00  0.00    -0.060 C 
BRANCH   7   8
ATOM      8  C   UNL     1      48.857  18.334  18.431  0.00  0.00    +0.503 C 
ATOM     15  O   UNL     1      48.668  17.154  18.654  0.00  0.00    -0.513 OA
BRANCH   8   9
ATOM      9  O   UNL     1      49.984  18.730  17.802  0.00  0.00    -0.348 OA
BRANCH   9  10
ATOM     10  C   UNL     1      50.831  19.644  18.502  0.00  0.00    +0.213 C 
BRANCH  10  11
ATOM     11  C   UNL     1      51.038  20.900  17.654  0.00  0.00    +0.043 C 
BRANCH  11  12
ATOM     12  C   UNL     1      51.821  20.538  16.389  0.00  0.00    +0.181 C 
BRANCH  12  13
ATOM     13  O   UNL     1      52.534  19.318  16.604  0.00  0.00    -0.572 OA
ATOM     14  H   UNL     1      53.431  19.441  16.942  0.00  0.00    +0.385 HD
ENDBRANCH  12  13
ENDBRANCH  11  12
ENDBRANCH  10  11
ENDBRANCH   9  10
ENDBRANCH   8   9
ENDBRANCH   7   8
ENDBRANCH   5   6
BRANCH  18  19
ATOM     19  O   UNL     1      42.816  22.994  19.970  0.00  0.00    -0.485 OA
ATOM     20  H   UNL     1      42.463  23.521  19.240  0.00  0.00    +0.392 HD
ENDBRANCH  18  19
TORSDOF 9
ENDMDL
MODEL 8
REMARK VINA RESULT:      -4.4      1.870      7.516
REMARK  Name = ZINC95486308
REMARK  10 active torsions:
REMARK  status: ('A' for Active; 'I' for Inactive)
REMARK    1  A    between atoms: C1_1  and  O1_2
REMARK    2  A    between atoms: O1_2  and  C2_3
REMARK    3  A    between atoms: C4_5  and  C8_10
REMARK    4  A    between atoms: C7_8  and  O2_9
REMARK    5  A    between atoms: C9_11  and  C10_12
REMARK    6  A    between atoms: C10_12  and  O4_14
REMARK    7  A    between atoms: O4_14  and  C11_15
REMARK    8  A    between atoms: C11_15  and  C12_16
REMARK    9  A    between atoms: C12_16  and  C13_17
REMARK   10  A    between atoms: C13_17  and  O5_18
REMARK                            x       y       z     vdW  Elec       q    Type
REMARK                         _______ _______ _______ _____ _____    ______ ____
ROOT
ATOM      3  C   UNL     1      50.926  18.346  17.091  0.00  0.00    +0.100 A 
ATOM      4  C   UNL     1      50.152  18.894  18.096  0.00  0.00    -0.026 A 
ATOM      5  C   UNL     1      50.237  20.264  18.372  0.00  0.00    -0.057 A 
ATOM     16  C   UNL     1      51.105  21.070  17.628  0.00  0.00    +0.026 A 
ATOM     17  C   UNL     1      51.873  20.516  16.627  0.00  0.00    +0.033 A 
ATOM     18  C   UNL     1      51.792  19.156  16.359  0.00  0.00    +0.096 A 
ENDROOT
BRANCH   3   2
ATOM      1  C   UNL     1      49.980  16.236  17.648  0.00  0.00    +0.243 C 
ATOM      2  O   UNL     1      50.846  17.016  16.821  0.00  0.00    -0.306 OA
ENDBRANCH   3   2
BRANCH   5   6
ATOM      6  C   UNL     1      49.417  20.852  19.439  0.00  0.00    +0.153 C 
ATOM      7  C   UNL     1      48.093  20.590  19.496  0.00  0.00    -0.060 C 
BRANCH   7   8
ATOM      8  C   UNL     1      47.302  21.158  20.527  0.00  0.00    +0.503 C 
ATOM     15  O   UNL     1      47.821  21.852  21.380  0.00  0.00    -0.513 OA
BRANCH   8   9
ATOM      9  O   UNL     1      45.972  20.928  20.560  0.00  0.00    -0.348 OA
BRANCH   9  10
ATOM     10  C   UNL     1      45.196  21.450  19.480  0.00  0.00    +0.213 C 
BRANCH  10  11
ATOM     11  C   UNL     1      44.752  22.875  19.814  0.00  0.00    +0.043 C 
BRANCH  11  12
ATOM     12  C   UNL     1      43.244  23.006  19.589  0.00  0.00    +0.181 C 
BRANCH  12  13
ATOM     13  O   UNL     1      42.978  24.173  18.809  0.00  0.00    -0.572 OA
ATOM     14  H   UNL     1      42.476  24.000  18.001  0.00  0.00    +0.385 HD
ENDBRANCH  12  13
ENDBRANCH  11  12
ENDBRANCH  10  11
ENDBRANCH   9  10
ENDBRANCH   8   9
ENDBRANCH   7   8
ENDBRANCH   5   6
BRANCH  18  19
ATOM     19  O   UNL     1      52.556  18.615  15.374  0.00  0.00    -0.485 OA
ATOM     20  H   UNL     1      52.430  19.024  14.507  0.00  0.00    +0.392 HD
ENDBRANCH  18  19
TORSDOF 9
ENDMDL
MODEL 9
REMARK VINA RESULT:      -4.3      4.394      8.417
REMARK  Name = ZINC95486308
REMARK  10 active torsions:
REMARK  status: ('A' for Active; 'I' for Inactive)
REMARK    1  A    between atoms: C1_1  and  O1_2
REMARK    2  A    between atoms: O1_2  and  C2_3
REMARK    3  A    between atoms: C4_5  and  C8_10
REMARK    4  A    between atoms: C7_8  and  O2_9
REMARK    5  A    between atoms: C9_11  and  C10_12
REMARK    6  A    between atoms: C10_12  and  O4_14
REMARK    7  A    between atoms: O4_14  and  C11_15
REMARK    8  A    between atoms: C11_15  and  C12_16
REMARK    9  A    between atoms: C12_16  and  C13_17
REMARK   10  A    between atoms: C13_17  and  O5_18
REMARK                            x       y       z     vdW  Elec       q    Type
REMARK                         _______ _______ _______ _____ _____    ______ ____
ROOT
ATOM      3  C   UNL     1      45.818  15.234  18.767  0.00  0.00    +0.100 A 
ATOM      4  C   UNL     1      45.541  16.523  19.183  0.00  0.00    -0.026 A 
ATOM      5  C   UNL     1      45.984  17.610  18.419  0.00  0.00    -0.057 A 
ATOM     16  C   UNL     1      46.703  17.385  17.240  0.00  0.00    +0.026 A 
ATOM     17  C   UNL     1      46.974  16.098  16.833  0.00  0.00    +0.033 A 
ATOM     18  C   UNL     1      46.539  15.020  17.594  0.00  0.00    +0.096 A 
ENDROOT
BRANCH   3   2
ATOM      1  C   UNL     1      46.022  13.969  20.770  0.00  0.00    +0.243 C 
ATOM      2  O   UNL     1      45.389  14.176  19.506  0.00  0.00    -0.306 OA
ENDBRANCH   3   2
BRANCH   5   6
ATOM      6  C   UNL     1      45.694  18.983  18.856  0.00  0.00    +0.153 C 
ATOM      7  C   UNL     1      44.448  19.487  18.716  0.00  0.00    -0.060 C 
BRANCH   7   8
ATOM      8  C   UNL     1      44.169  20.811  19.138  0.00  0.00    +0.503 C 
ATOM     15  O   UNL     1      45.075  21.544  19.485  0.00  0.00    -0.513 OA
BRANCH   8   9
ATOM      9  O   UNL     1      42.895  21.259  19.154  0.00  0.00    -0.348 OA
BRANCH   9  10
ATOM     10  C   UNL     1      41.910  20.434  18.528  0.00  0.00    +0.213 C 
BRANCH  10  11
ATOM     11  C   UNL     1      40.618  20.474  19.346  0.00  0.00    +0.043 C 
BRANCH  11  12
ATOM     12  C   UNL     1      39.617  21.417  18.673  0.00  0.00    +0.181 C 
BRANCH  12  13
ATOM     13  O   UNL     1      40.322  22.479  18.030  0.00  0.00    -0.572 OA
ATOM     14  H   UNL     1      40.678  23.141  18.638  0.00  0.00    +0.385 HD
ENDBRANCH  12  13
ENDBRANCH  11  12
ENDBRANCH  10  11
ENDBRANCH   9  10
ENDBRANCH   8   9
ENDBRANCH   7   8
ENDBRANCH   5   6
BRANCH  18  19
ATOM     19  O   UNL     1      46.814  13.753  17.190  0.00  0.00    -0.485 OA
ATOM     20  H   UNL     1      47.653  13.662  16.719  0.00  0.00    +0.392 HD
ENDBRANCH  18  19
TORSDOF 9
ENDMDL
