MODEL 1
REMARK VINA RESULT:      -5.6      0.000      0.000
REMARK  Name = ZINC95485967
REMARK  12 active torsions:
REMARK  status: ('A' for Active; 'I' for Inactive)
REMARK    1  A    between atoms: C1_1  and  C2_2
REMARK    2  A    between atoms: C4_4  and  O4_32
REMARK    3  A    between atoms: C7_7  and  C8_8
REMARK    4  A    between atoms: C8_8  and  C9_9
REMARK    5  A    between atoms: C9_9  and  C10_10
REMARK    6  A    between atoms: C11_11  and  C12_12
REMARK    7  A    between atoms: C11_11  and  C13_13
REMARK    8  A    between atoms: C21_23  and  C22_25
REMARK    9  A    between atoms: C22_25  and  C23_26
REMARK   10  A    between atoms: C23_26  and  C24_27
REMARK   11  A    between atoms: C25_28  and  C26_29
REMARK   12  A    between atoms: C25_28  and  C27_30
REMARK                            x       y       z     vdW  Elec       q    Type
REMARK                         _______ _______ _______ _____ _____    ______ ____
ROOT
ATOM      1  C   UNL     1      51.162  13.607  16.448  0.00  0.00    +0.076 C 
ATOM      2  C   UNL     1      49.964  14.268  17.079  0.00  0.00    -0.048 A 
ATOM      3  C   UNL     1      48.857  13.498  17.417  0.00  0.00    -0.101 A 
ATOM      4  C   UNL     1      47.747  14.076  17.995  0.00  0.00    +0.180 A 
ATOM      7  C   UNL     1      47.739  15.464  18.239  0.00  0.00    -0.179 A 
ATOM      8  C   UNL     1      48.873  16.240  17.894  0.00  0.00    +0.055 A 
ATOM      9  C   UNL     1      48.873  17.625  18.146  0.00  0.00    -0.160 A 
ATOM     10  C   UNL     1      47.796  18.229  18.716  0.00  0.00    +0.051 A 
ATOM     11  C   UNL     1      47.877  19.711  18.985  0.00  0.00    +0.004 C 
ATOM     18  C   UNL     1      46.502  20.274  19.236  0.00  0.00    +0.386 C 
ATOM     19  O   UNL     1      46.137  21.294  18.701  0.00  0.00    -0.461 OA
ATOM     20  C   UNL     1      45.589  19.516  20.181  0.00  0.00    +0.004 C 
ATOM     21  C   UNL     1      45.464  18.112  19.629  0.00  0.00    +0.405 C 
ATOM     22  O   UNL     1      44.403  17.525  19.664  0.00  0.00    -0.455 OA
ATOM     23  C   UNL     1      46.654  17.477  19.049  0.00  0.00    -0.381 A 
ATOM     24  C   UNL     1      46.624  16.095  18.819  0.00  0.00    +0.343 A 
ATOM     25  O   UNL     1      45.530  15.372  19.155  0.00  0.00    -0.615 OA
ATOM     26  C   UNL     1      49.984  15.610  17.312  0.00  0.00    -0.133 A 
ENDROOT
BRANCH   4   5
ATOM      5  O   UNL     1      46.671  13.317  18.322  0.00  0.00    -0.477 OA
ATOM      6  H   UNL     1      46.414  13.380  19.253  0.00  0.00    +0.384 HD
ENDBRANCH   4   5
BRANCH  11  12
ATOM     12  C   UNL     1      48.756  19.955  20.212  0.00  0.00    +0.061 C 
BRANCH  12  13
ATOM     13  C   UNL     1      49.868  20.943  19.856  0.00  0.00    +0.042 C 
BRANCH  13  14
ATOM     14  C   UNL     1      50.121  20.901  18.370  0.00  0.00    -0.046 C 
ATOM     15  C   UNL     1      51.343  21.004  17.910  0.00  0.00    -0.142 C 
ATOM     16  C   UNL     1      51.581  21.154  16.430  0.00  0.00    +0.069 C 
ATOM     17  C   UNL     1      52.512  20.974  18.862  0.00  0.00    +0.070 C 
ENDBRANCH  13  14
ENDBRANCH  12  13
ENDBRANCH  11  12
BRANCH  26  27
ATOM     27  C   UNL     1      51.199  16.421  16.939  0.00  0.00    +0.073 C 
BRANCH  27  28
ATOM     28  C   UNL     1      52.285  16.229  17.999  0.00  0.00    +0.052 C 
BRANCH  28  29
ATOM     29  C   UNL     1      52.228  17.363  18.990  0.00  0.00    -0.055 C 
ATOM     30  C   UNL     1      51.861  17.134  20.228  0.00  0.00    -0.140 C 
ATOM     31  C   UNL     1      51.929  18.238  21.250  0.00  0.00    +0.066 C 
ATOM     32  C   UNL     1      51.370  15.766  20.627  0.00  0.00    +0.071 C 
ENDBRANCH  28  29
ENDBRANCH  27  28
ENDBRANCH  26  27
TORSDOF 7
ENDMDL
MODEL 2
REMARK VINA RESULT:      -5.4      1.757      2.989
REMARK  Name = ZINC95485967
REMARK  12 active torsions:
REMARK  status: ('A' for Active; 'I' for Inactive)
REMARK    1  A    between atoms: C1_1  and  C2_2
REMARK    2  A    between atoms: C4_4  and  O4_32
REMARK    3  A    between atoms: C7_7  and  C8_8
REMARK    4  A    between atoms: C8_8  and  C9_9
REMARK    5  A    between atoms: C9_9  and  C10_10
REMARK    6  A    between atoms: C11_11  and  C12_12
REMARK    7  A    between atoms: C11_11  and  C13_13
REMARK    8  A    between atoms: C21_23  and  C22_25
REMARK    9  A    between atoms: C22_25  and  C23_26
REMARK   10  A    between atoms: C23_26  and  C24_27
REMARK   11  A    between atoms: C25_28  and  C26_29
REMARK   12  A    between atoms: C25_28  and  C27_30
REMARK                            x       y       z     vdW  Elec       q    Type
REMARK                         _______ _______ _______ _____ _____    ______ ____
ROOT
ATOM      1  C   UNL     1      47.732  13.649  17.495  0.00  0.00    +0.076 C 
ATOM      2  C   UNL     1      46.937  14.571  18.384  0.00  0.00    -0.048 A 
ATOM      3  C   UNL     1      46.123  14.033  19.374  0.00  0.00    -0.101 A 
ATOM      4  C   UNL     1      45.385  14.852  20.201  0.00  0.00    +0.180 A 
ATOM      7  C   UNL     1      45.459  16.249  20.035  0.00  0.00    -0.179 A 
ATOM      8  C   UNL     1      46.294  16.789  19.025  0.00  0.00    +0.055 A 
ATOM      9  C   UNL     1      46.379  18.185  18.862  0.00  0.00    -0.160 A 
ATOM     10  C   UNL     1      45.666  19.023  19.662  0.00  0.00    +0.051 A 
ATOM     11  C   UNL     1      45.828  20.508  19.451  0.00  0.00    +0.004 C 
ATOM     18  C   UNL     1      44.706  21.258  20.121  0.00  0.00    +0.386 C 
ATOM     19  O   UNL     1      44.116  22.143  19.549  0.00  0.00    -0.461 OA
ATOM     20  C   UNL     1      44.340  20.864  21.540  0.00  0.00    +0.004 C 
ATOM     21  C   UNL     1      44.008  19.388  21.507  0.00  0.00    +0.405 C 
ATOM     22  O   UNL     1      43.093  18.944  22.167  0.00  0.00    -0.455 OA
ATOM     23  C   UNL     1      44.817  18.505  20.657  0.00  0.00    -0.381 A 
ATOM     24  C   UNL     1      44.717  17.120  20.852  0.00  0.00    +0.343 A 
ATOM     25  O   UNL     1      43.911  16.625  21.820  0.00  0.00    -0.615 OA
ATOM     26  C   UNL     1      47.032  15.919  18.208  0.00  0.00    -0.133 A 
ENDROOT
BRANCH   4   5
ATOM      5  O   UNL     1      44.592  14.318  21.164  0.00  0.00    -0.477 OA
ATOM      6  H   UNL     1      44.502  13.356  21.111  0.00  0.00    +0.384 HD
ENDBRANCH   4   5
BRANCH  11  12
ATOM     12  C   UNL     1      47.164  20.960  20.043  0.00  0.00    +0.061 C 
BRANCH  12  13
ATOM     13  C   UNL     1      48.283  20.709  19.031  0.00  0.00    +0.042 C 
BRANCH  13  14
ATOM     14  C   UNL     1      49.569  20.424  19.763  0.00  0.00    -0.046 C 
ATOM     15  C   UNL     1      50.720  20.658  19.182  0.00  0.00    -0.142 C 
ATOM     16  C   UNL     1      51.999  20.197  19.832  0.00  0.00    +0.069 C 
ATOM     17  C   UNL     1      50.764  21.385  17.862  0.00  0.00    +0.070 C 
ENDBRANCH  13  14
ENDBRANCH  12  13
ENDBRANCH  11  12
BRANCH  26  27
ATOM     27  C   UNL     1      47.926  16.477  17.130  0.00  0.00    +0.073 C 
BRANCH  27  28
ATOM     28  C   UNL     1      49.273  16.871  17.739  0.00  0.00    +0.052 C 
BRANCH  28  29
ATOM     29  C   UNL     1      49.976  17.838  16.821  0.00  0.00    -0.055 C 
ATOM     30  C   UNL     1      51.286  17.873  16.785  0.00  0.00    -0.140 C 
ATOM     31  C   UNL     1      51.989  18.744  15.776  0.00  0.00    +0.066 C 
ATOM     32  C   UNL     1      52.089  17.043  17.753  0.00  0.00    +0.071 C 
ENDBRANCH  28  29
ENDBRANCH  27  28
ENDBRANCH  26  27
TORSDOF 7
ENDMDL
MODEL 3
REMARK VINA RESULT:      -5.4      2.465      6.562
REMARK  Name = ZINC95485967
REMARK  12 active torsions:
REMARK  status: ('A' for Active; 'I' for Inactive)
REMARK    1  A    between atoms: C1_1  and  C2_2
REMARK    2  A    between atoms: C4_4  and  O4_32
REMARK    3  A    between atoms: C7_7  and  C8_8
REMARK    4  A    between atoms: C8_8  and  C9_9
REMARK    5  A    between atoms: C9_9  and  C10_10
REMARK    6  A    between atoms: C11_11  and  C12_12
REMARK    7  A    between atoms: C11_11  and  C13_13
REMARK    8  A    between atoms: C21_23  and  C22_25
REMARK    9  A    between atoms: C22_25  and  C23_26
REMARK   10  A    between atoms: C23_26  and  C24_27
REMARK   11  A    between atoms: C25_28  and  C26_29
REMARK   12  A    between atoms: C25_28  and  C27_30
REMARK                            x       y       z     vdW  Elec       q    Type
REMARK                         _______ _______ _______ _____ _____    ______ ____
ROOT
ATOM      1  C   UNL     1      50.007  20.815  18.750  0.00  0.00    +0.076 C 
ATOM      2  C   UNL     1      49.958  19.369  18.330  0.00  0.00    -0.048 A 
ATOM      3  C   UNL     1      51.003  18.838  17.583  0.00  0.00    -0.101 A 
ATOM      4  C   UNL     1      50.984  17.518  17.185  0.00  0.00    +0.180 A 
ATOM      7  C   UNL     1      49.889  16.705  17.539  0.00  0.00    -0.179 A 
ATOM      8  C   UNL     1      48.830  17.254  18.303  0.00  0.00    +0.055 A 
ATOM      9  C   UNL     1      47.739  16.443  18.667  0.00  0.00    -0.160 A 
ATOM     10  C   UNL     1      47.688  15.136  18.293  0.00  0.00    +0.051 A 
ATOM     11  C   UNL     1      46.504  14.318  18.744  0.00  0.00    +0.004 C 
ATOM     18  C   UNL     1      46.404  13.050  17.936  0.00  0.00    +0.386 C 
ATOM     19  O   UNL     1      45.350  12.684  17.473  0.00  0.00    -0.461 OA
ATOM     20  C   UNL     1      47.674  12.247  17.720  0.00  0.00    +0.004 C 
ATOM     21  C   UNL     1      48.671  13.182  17.069  0.00  0.00    +0.405 C 
ATOM     22  O   UNL     1      49.411  12.785  16.194  0.00  0.00    -0.455 OA
ATOM     23  C   UNL     1      48.722  14.578  17.518  0.00  0.00    -0.381 A 
ATOM     24  C   UNL     1      49.827  15.356  17.146  0.00  0.00    +0.343 A 
ATOM     25  O   UNL     1      50.827  14.813  16.414  0.00  0.00    -0.615 OA
ATOM     26  C   UNL     1      48.892  18.602  18.692  0.00  0.00    -0.133 A 
ENDROOT
BRANCH   4   5
ATOM      5  O   UNL     1      52.009  17.008  16.456  0.00  0.00    -0.477 OA
ATOM      6  H   UNL     1      51.912  16.069  16.246  0.00  0.00    +0.384 HD
ENDBRANCH   4   5
BRANCH  11  12
ATOM     12  C   UNL     1      46.668  13.964  20.223  0.00  0.00    +0.061 C 
BRANCH  12  13
ATOM     13  C   UNL     1      45.438  14.437  21.001  0.00  0.00    +0.042 C 
BRANCH  13  14
ATOM     14  C   UNL     1      45.825  15.579  21.906  0.00  0.00    -0.046 C 
ATOM     15  C   UNL     1      45.489  16.806  21.593  0.00  0.00    -0.142 C 
ATOM     16  C   UNL     1      46.034  17.963  22.389  0.00  0.00    +0.069 C 
ATOM     17  C   UNL     1      44.558  17.060  20.434  0.00  0.00    +0.070 C 
ENDBRANCH  13  14
ENDBRANCH  12  13
ENDBRANCH  11  12
BRANCH  26  27
ATOM     27  C   UNL     1      47.774  19.201  19.506  0.00  0.00    +0.073 C 
BRANCH  27  28
ATOM     28  C   UNL     1      46.645  19.646  18.573  0.00  0.00    +0.052 C 
BRANCH  28  29
ATOM     29  C   UNL     1      46.302  21.087  18.850  0.00  0.00    -0.055 C 
ATOM     30  C   UNL     1      45.067  21.423  19.131  0.00  0.00    -0.140 C 
ATOM     31  C   UNL     1      44.745  22.839  19.536  0.00  0.00    +0.066 C 
ATOM     32  C   UNL     1      43.968  20.395  19.048  0.00  0.00    +0.071 C 
ENDBRANCH  28  29
ENDBRANCH  27  28
ENDBRANCH  26  27
TORSDOF 7
ENDMDL
MODEL 4
REMARK VINA RESULT:      -5.3      2.651      5.267
REMARK  Name = ZINC95485967
REMARK  12 active torsions:
REMARK  status: ('A' for Active; 'I' for Inactive)
REMARK    1  A    between atoms: C1_1  and  C2_2
REMARK    2  A    between atoms: C4_4  and  O4_32
REMARK    3  A    between atoms: C7_7  and  C8_8
REMARK    4  A    between atoms: C8_8  and  C9_9
REMARK    5  A    between atoms: C9_9  and  C10_10
REMARK    6  A    between atoms: C11_11  and  C12_12
REMARK    7  A    between atoms: C11_11  and  C13_13
REMARK    8  A    between atoms: C21_23  and  C22_25
REMARK    9  A    between atoms: C22_25  and  C23_26
REMARK   10  A    between atoms: C23_26  and  C24_27
REMARK   11  A    between atoms: C25_28  and  C26_29
REMARK   12  A    between atoms: C25_28  and  C27_30
REMARK                            x       y       z     vdW  Elec       q    Type
REMARK                         _______ _______ _______ _____ _____    ______ ____
ROOT
ATOM      1  C   UNL     1      47.581  12.683  18.627  0.00  0.00    +0.076 C 
ATOM      2  C   UNL     1      48.436  13.873  18.276  0.00  0.00    -0.048 A 
ATOM      3  C   UNL     1      49.422  13.744  17.305  0.00  0.00    -0.101 A 
ATOM      4  C   UNL     1      50.219  14.817  16.965  0.00  0.00    +0.180 A 
ATOM      7  C   UNL     1      50.029  16.053  17.614  0.00  0.00    -0.179 A 
ATOM      8  C   UNL     1      49.019  16.175  18.600  0.00  0.00    +0.055 A 
ATOM      9  C   UNL     1      48.819  17.411  19.244  0.00  0.00    -0.160 A 
ATOM     10  C   UNL     1      49.585  18.491  18.932  0.00  0.00    +0.051 A 
ATOM     11  C   UNL     1      49.295  19.791  19.639  0.00  0.00    +0.004 C 
ATOM     18  C   UNL     1      50.453  20.743  19.480  0.00  0.00    +0.386 C 
ATOM     19  O   UNL     1      50.892  21.357  20.423  0.00  0.00    -0.461 OA
ATOM     20  C   UNL     1      51.051  20.904  18.095  0.00  0.00    +0.004 C 
ATOM     21  C   UNL     1      51.471  19.523  17.642  0.00  0.00    +0.405 C 
ATOM     22  O   UNL     1      52.502  19.360  17.024  0.00  0.00    -0.455 OA
ATOM     23  C   UNL     1      50.605  18.383  17.968  0.00  0.00    -0.381 A 
ATOM     24  C   UNL     1      50.825  17.169  17.302  0.00  0.00    +0.343 A 
ATOM     25  O   UNL     1      51.797  17.073  16.365  0.00  0.00    -0.615 OA
ATOM     26  C   UNL     1      48.227  15.060  18.913  0.00  0.00    -0.133 A 
ENDROOT
BRANCH   4   5
ATOM      5  O   UNL     1      51.179  14.682  16.016  0.00  0.00    -0.477 OA
ATOM      6  H   UNL     1      51.587  15.517  15.748  0.00  0.00    +0.384 HD
ENDBRANCH   4   5
BRANCH  11  12
ATOM     12  C   UNL     1      48.036  20.421  19.043  0.00  0.00    +0.061 C 
BRANCH  12  13
ATOM     13  C   UNL     1      47.142  20.940  20.171  0.00  0.00    +0.042 C 
BRANCH  13  14
ATOM     14  C   UNL     1      45.925  21.606  19.582  0.00  0.00    -0.046 C 
ATOM     15  C   UNL     1      45.072  22.222  20.364  0.00  0.00    -0.142 C 
ATOM     16  C   UNL     1      43.764  22.720  19.806  0.00  0.00    +0.069 C 
ATOM     17  C   UNL     1      45.399  22.430  21.820  0.00  0.00    +0.070 C 
ENDBRANCH  13  14
ENDBRANCH  12  13
ENDBRANCH  11  12
BRANCH  26  27
ATOM     27  C   UNL     1      47.147  15.173  19.959  0.00  0.00    +0.073 C 
BRANCH  27  28
ATOM     28  C   UNL     1      45.810  15.477  19.281  0.00  0.00    +0.052 C 
BRANCH  28  29
ATOM     29  C   UNL     1      45.037  16.468  20.113  0.00  0.00    -0.055 C 
ATOM     30  C   UNL     1      44.812  17.674  19.653  0.00  0.00    -0.140 C 
ATOM     31  C   UNL     1      43.929  18.621  20.424  0.00  0.00    +0.066 C 
ATOM     32  C   UNL     1      45.436  18.114  18.354  0.00  0.00    +0.071 C 
ENDBRANCH  28  29
ENDBRANCH  27  28
ENDBRANCH  26  27
TORSDOF 7
ENDMDL
MODEL 5
REMARK VINA RESULT:      -5.3     20.700     23.109
REMARK  Name = ZINC95485967
REMARK  12 active torsions:
REMARK  status: ('A' for Active; 'I' for Inactive)
REMARK    1  A    between atoms: C1_1  and  C2_2
REMARK    2  A    between atoms: C4_4  and  O4_32
REMARK    3  A    between atoms: C7_7  and  C8_8
REMARK    4  A    between atoms: C8_8  and  C9_9
REMARK    5  A    between atoms: C9_9  and  C10_10
REMARK    6  A    between atoms: C11_11  and  C12_12
REMARK    7  A    between atoms: C11_11  and  C13_13
REMARK    8  A    between atoms: C21_23  and  C22_25
REMARK    9  A    between atoms: C22_25  and  C23_26
REMARK   10  A    between atoms: C23_26  and  C24_27
REMARK   11  A    between atoms: C25_28  and  C26_29
REMARK   12  A    between atoms: C25_28  and  C27_30
REMARK                            x       y       z     vdW  Elec       q    Type
REMARK                         _______ _______ _______ _____ _____    ______ ____
ROOT
ATOM      1  C   UNL     1      51.151  33.437   6.633  0.00  0.00    +0.076 C 
ATOM      2  C   UNL     1      51.540  33.236   5.191  0.00  0.00    -0.048 A 
ATOM      3  C   UNL     1      50.631  33.554   4.187  0.00  0.00    -0.101 A 
ATOM      4  C   UNL     1      50.961  33.379   2.860  0.00  0.00    +0.180 A 
ATOM      7  C   UNL     1      52.231  32.871   2.523  0.00  0.00    -0.179 A 
ATOM      8  C   UNL     1      53.151  32.553   3.554  0.00  0.00    +0.055 A 
ATOM      9  C   UNL     1      54.424  32.054   3.221  0.00  0.00    -0.160 A 
ATOM     10  C   UNL     1      54.784  31.871   1.923  0.00  0.00    +0.051 A 
ATOM     11  C   UNL     1      56.175  31.362   1.639  0.00  0.00    +0.004 C 
ATOM     18  C   UNL     1      56.268  30.851   0.224  0.00  0.00    +0.386 C 
ATOM     19  O   UNL     1      56.791  29.791  -0.024  0.00  0.00    -0.461 OA
ATOM     20  C   UNL     1      55.679  31.710  -0.879  0.00  0.00    +0.004 C 
ATOM     21  C   UNL     1      54.226  31.938  -0.521  0.00  0.00    +0.405 C 
ATOM     22  O   UNL     1      53.369  31.933  -1.379  0.00  0.00    -0.455 OA
ATOM     23  C   UNL     1      53.876  32.164   0.887  0.00  0.00    -0.381 A 
ATOM     24  C   UNL     1      52.603  32.671   1.183  0.00  0.00    +0.343 A 
ATOM     25  O   UNL     1      51.739  32.965   0.184  0.00  0.00    -0.615 OA
ATOM     26  C   UNL     1      52.777  32.750   4.892  0.00  0.00    -0.133 A 
ENDROOT
BRANCH   4   5
ATOM      5  O   UNL     1      50.068  33.692   1.886  0.00  0.00    -0.477 OA
ATOM      6  H   UNL     1      49.161  33.797   2.204  0.00  0.00    +0.384 HD
ENDBRANCH   4   5
BRANCH  11  12
ATOM     12  C   UNL     1      57.179  32.500   1.833  0.00  0.00    +0.061 C 
BRANCH  12  13
ATOM     13  C   UNL     1      58.600  31.932   1.829  0.00  0.00    +0.042 C 
BRANCH  13  14
ATOM     14  C   UNL     1      58.935  31.407   3.202  0.00  0.00    -0.046 C 
ATOM     15  C   UNL     1      59.187  30.133   3.372  0.00  0.00    -0.142 C 
ATOM     16  C   UNL     1      59.333  29.574   4.764  0.00  0.00    +0.069 C 
ATOM     17  C   UNL     1      59.329  29.226   2.177  0.00  0.00    +0.070 C 
ENDBRANCH  13  14
ENDBRANCH  12  13
ENDBRANCH  11  12
BRANCH  26  27
ATOM     27  C   UNL     1      53.744  32.418   6.000  0.00  0.00    +0.073 C 
BRANCH  27  28
ATOM     28  C   UNL     1      54.473  33.690   6.437  0.00  0.00    +0.052 C 
BRANCH  28  29
ATOM     29  C   UNL     1      55.950  33.538   6.176  0.00  0.00    -0.055 C 
ATOM     30  C   UNL     1      56.546  34.323   5.313  0.00  0.00    -0.140 C 
ATOM     31  C   UNL     1      58.043  34.261   5.147  0.00  0.00    +0.066 C 
ATOM     32  C   UNL     1      55.736  35.286   4.484  0.00  0.00    +0.071 C 
ENDBRANCH  28  29
ENDBRANCH  27  28
ENDBRANCH  26  27
TORSDOF 7
ENDMDL
MODEL 6
REMARK VINA RESULT:      -5.2      1.936      4.115
REMARK  Name = ZINC95485967
REMARK  12 active torsions:
REMARK  status: ('A' for Active; 'I' for Inactive)
REMARK    1  A    between atoms: C1_1  and  C2_2
REMARK    2  A    between atoms: C4_4  and  O4_32
REMARK    3  A    between atoms: C7_7  and  C8_8
REMARK    4  A    between atoms: C8_8  and  C9_9
REMARK    5  A    between atoms: C9_9  and  C10_10
REMARK    6  A    between atoms: C11_11  and  C12_12
REMARK    7  A    between atoms: C11_11  and  C13_13
REMARK    8  A    between atoms: C21_23  and  C22_25
REMARK    9  A    between atoms: C22_25  and  C23_26
REMARK   10  A    between atoms: C23_26  and  C24_27
REMARK   11  A    between atoms: C25_28  and  C26_29
REMARK   12  A    between atoms: C25_28  and  C27_30
REMARK                            x       y       z     vdW  Elec       q    Type
REMARK                         _______ _______ _______ _____ _____    ______ ____
ROOT
ATOM      1  C   UNL     1      52.125  19.893  17.106  0.00  0.00    +0.076 C 
ATOM      2  C   UNL     1      51.003  18.954  17.467  0.00  0.00    -0.048 A 
ATOM      3  C   UNL     1      51.049  17.634  17.032  0.00  0.00    -0.101 A 
ATOM      4  C   UNL     1      50.037  16.753  17.347  0.00  0.00    +0.180 A 
ATOM      7  C   UNL     1      48.944  17.202  18.115  0.00  0.00    -0.179 A 
ATOM      8  C   UNL     1      48.908  18.548  18.557  0.00  0.00    +0.055 A 
ATOM      9  C   UNL     1      47.823  18.998  19.333  0.00  0.00    -0.160 A 
ATOM     10  C   UNL     1      46.807  18.156  19.665  0.00  0.00    +0.051 A 
ATOM     11  C   UNL     1      45.693  18.697  20.524  0.00  0.00    +0.004 C 
ATOM     18  C   UNL     1      44.493  17.786  20.463  0.00  0.00    +0.386 C 
ATOM     19  O   UNL     1      43.381  18.227  20.300  0.00  0.00    -0.461 OA
ATOM     20  C   UNL     1      44.730  16.295  20.612  0.00  0.00    +0.004 C 
ATOM     21  C   UNL     1      45.715  15.903  19.530  0.00  0.00    +0.405 C 
ATOM     22  O   UNL     1      45.594  14.855  18.933  0.00  0.00    -0.455 OA
ATOM     23  C   UNL     1      46.818  16.821  19.219  0.00  0.00    -0.381 A 
ATOM     24  C   UNL     1      47.887  16.338  18.452  0.00  0.00    +0.343 A 
ATOM     25  O   UNL     1      47.902  15.050  18.038  0.00  0.00    -0.615 OA
ATOM     26  C   UNL     1      49.962  19.410  18.218  0.00  0.00    -0.133 A 
ENDROOT
BRANCH   4   5
ATOM      5  O   UNL     1      50.090  15.467  16.918  0.00  0.00    -0.477 OA
ATOM      6  H   UNL     1      50.987  15.141  16.762  0.00  0.00    +0.384 HD
ENDBRANCH   4   5
BRANCH  11  12
ATOM     12  C   UNL     1      46.175  18.802  21.972  0.00  0.00    +0.061 C 
BRANCH  12  13
ATOM     13  C   UNL     1      46.121  20.262  22.424  0.00  0.00    +0.042 C 
BRANCH  13  14
ATOM     14  C   UNL     1      45.464  21.096  21.354  0.00  0.00    -0.046 C 
ATOM     15  C   UNL     1      45.847  22.333  21.160  0.00  0.00    -0.142 C 
ATOM     16  C   UNL     1      45.069  23.225  20.228  0.00  0.00    +0.069 C 
ATOM     17  C   UNL     1      47.065  22.865  21.871  0.00  0.00    +0.070 C 
ENDBRANCH  13  14
ENDBRANCH  12  13
ENDBRANCH  11  12
BRANCH  26  27
ATOM     27  C   UNL     1      49.939  20.845  18.680  0.00  0.00    +0.073 C 
BRANCH  27  28
ATOM     28  C   UNL     1      49.935  20.887  20.210  0.00  0.00    +0.052 C 
BRANCH  28  29
ATOM     29  C   UNL     1      51.274  20.432  20.729  0.00  0.00    -0.055 C 
ATOM     30  C   UNL     1      51.340  19.469  21.615  0.00  0.00    -0.140 C 
ATOM     31  C   UNL     1      52.680  18.924  22.037  0.00  0.00    +0.066 C 
ATOM     32  C   UNL     1      50.076  18.908  22.214  0.00  0.00    +0.071 C 
ENDBRANCH  28  29
ENDBRANCH  27  28
ENDBRANCH  26  27
TORSDOF 7
ENDMDL
MODEL 7
REMARK VINA RESULT:      -5.1      2.199      5.542
REMARK  Name = ZINC95485967
REMARK  12 active torsions:
REMARK  status: ('A' for Active; 'I' for Inactive)
REMARK    1  A    between atoms: C1_1  and  C2_2
REMARK    2  A    between atoms: C4_4  and  O4_32
REMARK    3  A    between atoms: C7_7  and  C8_8
REMARK    4  A    between atoms: C8_8  and  C9_9
REMARK    5  A    between atoms: C9_9  and  C10_10
REMARK    6  A    between atoms: C11_11  and  C12_12
REMARK    7  A    between atoms: C11_11  and  C13_13
REMARK    8  A    between atoms: C21_23  and  C22_25
REMARK    9  A    between atoms: C22_25  and  C23_26
REMARK   10  A    between atoms: C23_26  and  C24_27
REMARK   11  A    between atoms: C25_28  and  C26_29
REMARK   12  A    between atoms: C25_28  and  C27_30
REMARK                            x       y       z     vdW  Elec       q    Type
REMARK                         _______ _______ _______ _____ _____    ______ ____
ROOT
ATOM      1  C   UNL     1      51.286  21.157  17.688  0.00  0.00    +0.076 C 
ATOM      2  C   UNL     1      50.961  19.691  17.567  0.00  0.00    -0.048 A 
ATOM      3  C   UNL     1      51.765  18.874  16.780  0.00  0.00    -0.101 A 
ATOM      4  C   UNL     1      51.491  17.529  16.652  0.00  0.00    +0.180 A 
ATOM      7  C   UNL     1      50.381  16.983  17.325  0.00  0.00    -0.179 A 
ATOM      8  C   UNL     1      49.568  17.822  18.127  0.00  0.00    +0.055 A 
ATOM      9  C   UNL     1      48.463  17.278  18.809  0.00  0.00    -0.160 A 
ATOM     10  C   UNL     1      48.164  15.956  18.707  0.00  0.00    +0.051 A 
ATOM     11  C   UNL     1      46.984  15.435  19.489  0.00  0.00    +0.004 C 
ATOM     18  C   UNL     1      46.562  14.086  18.966  0.00  0.00    +0.386 C 
ATOM     19  O   UNL     1      45.401  13.832  18.756  0.00  0.00    -0.461 OA
ATOM     20  C   UNL     1      47.647  13.056  18.711  0.00  0.00    +0.004 C 
ATOM     21  C   UNL     1      48.624  13.687  17.742  0.00  0.00    +0.405 C 
ATOM     22  O   UNL     1      49.126  13.032  16.854  0.00  0.00    -0.455 OA
ATOM     23  C   UNL     1      48.949  15.110  17.900  0.00  0.00    -0.381 A 
ATOM     24  C   UNL     1      50.061  15.618  17.215  0.00  0.00    +0.343 A 
ATOM     25  O   UNL     1      50.823  14.800  16.452  0.00  0.00    -0.615 OA
ATOM     26  C   UNL     1      49.885  19.185  18.234  0.00  0.00    -0.133 A 
ENDROOT
BRANCH   4   5
ATOM      5  O   UNL     1      52.282  16.740  15.882  0.00  0.00    -0.477 OA
ATOM      6  H   UNL     1      51.800  16.235  15.212  0.00  0.00    +0.384 HD
ENDBRANCH   4   5
BRANCH  11  12
ATOM     12  C   UNL     1      47.371  15.309  20.964  0.00  0.00    +0.061 C 
BRANCH  12  13
ATOM     13  C   UNL     1      46.278  15.931  21.833  0.00  0.00    +0.042 C 
BRANCH  13  14
ATOM     14  C   UNL     1      46.429  17.431  21.834  0.00  0.00    -0.046 C 
ATOM     15  C   UNL     1      45.505  18.183  21.288  0.00  0.00    -0.142 C 
ATOM     16  C   UNL     1      45.741  19.662  21.117  0.00  0.00    +0.069 C 
ATOM     17  C   UNL     1      44.206  17.569  20.832  0.00  0.00    +0.070 C 
ENDBRANCH  13  14
ENDBRANCH  12  13
ENDBRANCH  11  12
BRANCH  26  27
ATOM     27  C   UNL     1      49.032  20.092  19.084  0.00  0.00    +0.073 C 
BRANCH  27  28
ATOM     28  C   UNL     1      49.312  19.817  20.563  0.00  0.00    +0.052 C 
BRANCH  28  29
ATOM     29  C   UNL     1      50.276  20.848  21.092  0.00  0.00    -0.055 C 
ATOM     30  C   UNL     1      51.519  20.515  21.341  0.00  0.00    -0.140 C 
ATOM     31  C   UNL     1      52.515  21.572  21.744  0.00  0.00    +0.066 C 
ATOM     32  C   UNL     1      51.952  19.077  21.226  0.00  0.00    +0.071 C 
ENDBRANCH  28  29
ENDBRANCH  27  28
ENDBRANCH  26  27
TORSDOF 7
ENDMDL
MODEL 8
REMARK VINA RESULT:      -5.1      2.700      7.491
REMARK  Name = ZINC95485967
REMARK  12 active torsions:
REMARK  status: ('A' for Active; 'I' for Inactive)
REMARK    1  A    between atoms: C1_1  and  C2_2
REMARK    2  A    between atoms: C4_4  and  O4_32
REMARK    3  A    between atoms: C7_7  and  C8_8
REMARK    4  A    between atoms: C8_8  and  C9_9
REMARK    5  A    between atoms: C9_9  and  C10_10
REMARK    6  A    between atoms: C11_11  and  C12_12
REMARK    7  A    between atoms: C11_11  and  C13_13
REMARK    8  A    between atoms: C21_23  and  C22_25
REMARK    9  A    between atoms: C22_25  and  C23_26
REMARK   10  A    between atoms: C23_26  and  C24_27
REMARK   11  A    between atoms: C25_28  and  C26_29
REMARK   12  A    between atoms: C25_28  and  C27_30
REMARK                            x       y       z     vdW  Elec       q    Type
REMARK                         _______ _______ _______ _____ _____    ______ ____
ROOT
ATOM      1  C   UNL     1      45.864  21.472  19.387  0.00  0.00    +0.076 C 
ATOM      2  C   UNL     1      46.933  20.465  19.047  0.00  0.00    -0.048 A 
ATOM      3  C   UNL     1      48.271  20.818  19.178  0.00  0.00    -0.101 A 
ATOM      4  C   UNL     1      49.270  19.917  18.873  0.00  0.00    +0.180 A 
ATOM      7  C   UNL     1      48.924  18.628  18.423  0.00  0.00    -0.179 A 
ATOM      8  C   UNL     1      47.557  18.276  18.297  0.00  0.00    +0.055 A 
ATOM      9  C   UNL     1      47.207  16.986  17.857  0.00  0.00    -0.160 A 
ATOM     10  C   UNL     1      48.165  16.071  17.550  0.00  0.00    +0.051 A 
ATOM     11  C   UNL     1      47.718  14.698  17.114  0.00  0.00    +0.004 C 
ATOM     18  C   UNL     1      48.853  13.963  16.448  0.00  0.00    +0.386 C 
ATOM     19  O   UNL     1      48.690  13.372  15.408  0.00  0.00    -0.461 OA
ATOM     20  C   UNL     1      50.209  13.993  17.128  0.00  0.00    +0.004 C 
ATOM     21  C   UNL     1      50.581  15.452  17.289  0.00  0.00    +0.405 C 
ATOM     22  O   UNL     1      51.723  15.823  17.121  0.00  0.00    -0.455 OA
ATOM     23  C   UNL     1      49.528  16.409  17.652  0.00  0.00    -0.381 A 
ATOM     24  C   UNL     1      49.911  17.682  18.095  0.00  0.00    +0.343 A 
ATOM     25  O   UNL     1      51.222  17.999  18.207  0.00  0.00    -0.615 OA
ATOM     26  C   UNL     1      46.572  19.222  18.621  0.00  0.00    -0.133 A 
ENDROOT
BRANCH   4   5
ATOM      5  O   UNL     1      50.574  20.270  19.004  0.00  0.00    -0.477 OA
ATOM      6  H   UNL     1      50.985  19.959  19.822  0.00  0.00    +0.384 HD
ENDBRANCH   4   5
BRANCH  11  12
ATOM     12  C   UNL     1      47.251  13.906  18.337  0.00  0.00    +0.061 C 
BRANCH  12  13
ATOM     13  C   UNL     1      45.738  14.067  18.501  0.00  0.00    +0.042 C 
BRANCH  13  14
ATOM     14  C   UNL     1      45.294  13.376  19.766  0.00  0.00    -0.046 C 
ATOM     15  C   UNL     1      45.436  13.973  20.923  0.00  0.00    -0.142 C 
ATOM     16  C   UNL     1      45.173  13.215  22.199  0.00  0.00    +0.069 C 
ATOM     17  C   UNL     1      45.862  15.418  20.978  0.00  0.00    +0.070 C 
ENDBRANCH  13  14
ENDBRANCH  12  13
ENDBRANCH  11  12
BRANCH  26  27
ATOM     27  C   UNL     1      45.114  18.864  18.493  0.00  0.00    +0.073 C 
BRANCH  27  28
ATOM     28  C   UNL     1      44.564  18.467  19.865  0.00  0.00    +0.052 C 
BRANCH  28  29
ATOM     29  C   UNL     1      43.126  18.905  19.976  0.00  0.00    -0.055 C 
ATOM     30  C   UNL     1      42.412  18.550  21.016  0.00  0.00    -0.140 C 
ATOM     31  C   UNL     1      41.017  19.094  21.194  0.00  0.00    +0.066 C 
ATOM     32  C   UNL     1      42.984  17.597  22.033  0.00  0.00    +0.071 C 
ENDBRANCH  28  29
ENDBRANCH  27  28
ENDBRANCH  26  27
TORSDOF 7
ENDMDL
MODEL 9
REMARK VINA RESULT:      -5.1      2.427      6.287
REMARK  Name = ZINC95485967
REMARK  12 active torsions:
REMARK  status: ('A' for Active; 'I' for Inactive)
REMARK    1  A    between atoms: C1_1  and  C2_2
REMARK    2  A    between atoms: C4_4  and  O4_32
REMARK    3  A    between atoms: C7_7  and  C8_8
REMARK    4  A    between atoms: C8_8  and  C9_9
REMARK    5  A    between atoms: C9_9  and  C10_10
REMARK    6  A    between atoms: C11_11  and  C12_12
REMARK    7  A    between atoms: C11_11  and  C13_13
REMARK    8  A    between atoms: C21_23  and  C22_25
REMARK    9  A    between atoms: C22_25  and  C23_26
REMARK   10  A    between atoms: C23_26  and  C24_27
REMARK   11  A    between atoms: C25_28  and  C26_29
REMARK   12  A    between atoms: C25_28  and  C27_30
REMARK                            x       y       z     vdW  Elec       q    Type
REMARK                         _______ _______ _______ _____ _____    ______ ____
ROOT
ATOM      1  C   UNL     1      51.997  21.524  19.555  0.00  0.00    +0.076 C 
ATOM      2  C   UNL     1      51.607  20.150  19.072  0.00  0.00    -0.048 A 
ATOM      3  C   UNL     1      52.585  19.174  18.924  0.00  0.00    -0.101 A 
ATOM      4  C   UNL     1      52.257  17.910  18.484  0.00  0.00    +0.180 A 
ATOM      7  C   UNL     1      50.914  17.611  18.178  0.00  0.00    -0.179 A 
ATOM      8  C   UNL     1      49.923  18.612  18.335  0.00  0.00    +0.055 A 
ATOM      9  C   UNL     1      48.579  18.315  18.040  0.00  0.00    -0.160 A 
ATOM     10  C   UNL     1      48.219  17.077  17.605  0.00  0.00    +0.051 A 
ATOM     11  C   UNL     1      46.757  16.821  17.337  0.00  0.00    +0.004 C 
ATOM     18  C   UNL     1      46.587  15.574  16.507  0.00  0.00    +0.386 C 
ATOM     19  O   UNL     1      45.851  15.556  15.550  0.00  0.00    -0.461 OA
ATOM     20  C   UNL     1      47.375  14.342  16.912  0.00  0.00    +0.004 C 
ATOM     21  C   UNL     1      48.834  14.745  16.920  0.00  0.00    +0.405 C 
ATOM     22  O   UNL     1      49.689  13.985  16.517  0.00  0.00    -0.455 OA
ATOM     23  C   UNL     1      49.192  16.076  17.426  0.00  0.00    -0.381 A 
ATOM     24  C   UNL     1      50.538  16.336  17.719  0.00  0.00    +0.343 A 
ATOM     25  O   UNL     1      51.469  15.367  17.560  0.00  0.00    -0.615 OA
ATOM     26  C   UNL     1      50.300  19.885  18.790  0.00  0.00    -0.133 A 
ENDROOT
BRANCH   4   5
ATOM      5  O   UNL     1      53.218  16.962  18.343  0.00  0.00    -0.477 OA
ATOM      6  H   UNL     1      52.875  16.060  18.285  0.00  0.00    +0.384 HD
ENDBRANCH   4   5
BRANCH  11  12
ATOM     12  C   UNL     1      46.022  16.647  18.667  0.00  0.00    +0.061 C 
BRANCH  12  13
ATOM     13  C   UNL     1      45.221  17.912  18.977  0.00  0.00    +0.042 C 
BRANCH  13  14
ATOM     14  C   UNL     1      44.525  17.754  20.305  0.00  0.00    -0.046 C 
ATOM     15  C   UNL     1      43.466  18.475  20.579  0.00  0.00    -0.142 C 
ATOM     16  C   UNL     1      42.884  18.460  21.969  0.00  0.00    +0.069 C 
ATOM     17  C   UNL     1      42.830  19.320  19.505  0.00  0.00    +0.070 C 
ENDBRANCH  13  14
ENDBRANCH  12  13
ENDBRANCH  11  12
BRANCH  26  27
ATOM     27  C   UNL     1      49.259  20.960  18.963  0.00  0.00    +0.073 C 
BRANCH  27  28
ATOM     28  C   UNL     1      48.426  20.668  20.213  0.00  0.00    +0.052 C 
BRANCH  28  29
ATOM     29  C   UNL     1      47.068  21.306  20.073  0.00  0.00    -0.055 C 
ATOM     30  C   UNL     1      46.184  21.180  21.032  0.00  0.00    -0.140 C 
ATOM     31  C   UNL     1      44.876  21.925  20.954  0.00  0.00    +0.066 C 
ATOM     32  C   UNL     1      46.473  20.288  22.212  0.00  0.00    +0.071 C 
ENDBRANCH  28  29
ENDBRANCH  27  28
ENDBRANCH  26  27
TORSDOF 7
ENDMDL
