MODEL 1
REMARK VINA RESULT:      -3.9      0.000      0.000
REMARK  Name = ZINC95485925
REMARK  40 active torsions:
REMARK  status: ('A' for Active; 'I' for Inactive)
REMARK    1  A    between atoms: C1_1  and  C2_2
REMARK    2  A    between atoms: C2_2  and  C3_3
REMARK    3  A    between atoms: C3_3  and  C4_4
REMARK    4  A    between atoms: C4_4  and  C5_5
REMARK    5  A    between atoms: C5_5  and  C6_6
REMARK    6  A    between atoms: C6_6  and  C7_7
REMARK    7  A    between atoms: C7_7  and  C8_8
REMARK    8  A    between atoms: C8_8  and  C9_9
REMARK    9  A    between atoms: C9_9  and  C10_10
REMARK   10  A    between atoms: C10_10  and  C11_11
REMARK   11  A    between atoms: C11_11  and  C12_12
REMARK   12  A    between atoms: C12_12  and  C13_13
REMARK   13  A    between atoms: C13_13  and  C14_14
REMARK   14  A    between atoms: C14_14  and  C15_15
REMARK   15  A    between atoms: C15_15  and  C16_16
REMARK   16  A    between atoms: C16_16  and  C17_17
REMARK   17  A    between atoms: C17_17  and  C18_18
REMARK   18  A    between atoms: C18_18  and  C19_19
REMARK   19  A    between atoms: C19_19  and  C20_20
REMARK   20  A    between atoms: C20_20  and  C21_21
REMARK   21  A    between atoms: C21_21  and  C22_22
REMARK   22  A    between atoms: C22_22  and  C23_23
REMARK   23  A    between atoms: C23_23  and  C24_24
REMARK   24  A    between atoms: C24_24  and  C25_25
REMARK   25  A    between atoms: C25_25  and  C26_27
REMARK   26  A    between atoms: C25_25  and  O2_29
REMARK   27  A    between atoms: C26_27  and  O1_28
REMARK   28  A    between atoms: O2_29  and  C27_30
REMARK   29  A    between atoms: C30_33  and  C33_36
REMARK   30  A    between atoms: C36_40  and  C47_54
REMARK   31  A    between atoms: C37_41  and  O6_53
REMARK   32  A    between atoms: C38_42  and  C42_48
REMARK   33  A    between atoms: C39_43  and  O5_47
REMARK   34  A    between atoms: C42_48  and  C43_49
REMARK   35  A    between atoms: C44_50  and  C45_51
REMARK   36  A    between atoms: C44_50  and  C46_52
REMARK   37  A    between atoms: C47_54  and  C48_55
REMARK   38  A    between atoms: C48_55  and  C49_57
REMARK   39  A    between atoms: C48_55  and  O7_60
REMARK   40  A    between atoms: C49_57  and  C51_59
REMARK                            x       y       z     vdW  Elec       q    Type
REMARK                         _______ _______ _______ _____ _____    ______ ____
ROOT
ATOM     27  C   UNL     1      52.398  17.185  21.686  0.00  0.00    +0.141 A 
ATOM     28  C   UNL     1      51.097  16.782  21.954  0.00  0.00    -0.086 A 
ATOM     29  C   UNL     1      50.049  17.658  21.766  0.00  0.00    +0.061 A 
ATOM     30  C   UNL     1      50.296  18.951  21.306  0.00  0.00    -0.070 A 
ATOM     58  C   UNL     1      51.603  19.353  21.038  0.00  0.00    +0.084 A 
ATOM     59  C   UNL     1      52.648  18.473  21.232  0.00  0.00    -0.017 A 
ENDROOT
BRANCH  30  31
ATOM     31  C   UNL     1      49.171  19.895  21.103  0.00  0.00    -0.229 A 
ATOM     32  C   UNL     1      49.133  21.087  21.753  0.00  0.00    +0.318 A 
ATOM     33  O   UNL     1      48.146  21.970  21.585  0.00  0.00    -0.214 OA
ATOM     34  C   UNL     1      46.977  21.626  21.010  0.00  0.00    +0.168 A 
ATOM     35  C   UNL     1      45.864  22.445  21.131  0.00  0.00    -0.135 A 
ATOM     43  C   UNL     1      44.669  22.086  20.529  0.00  0.00    +0.200 A 
ATOM     46  C   UNL     1      44.566  20.908  19.796  0.00  0.00    -0.152 A 
ATOM     52  C   UNL     1      45.663  20.076  19.667  0.00  0.00    +0.214 A 
ATOM     55  C   UNL     1      46.871  20.429  20.280  0.00  0.00    -0.253 A 
ATOM     56  C   UNL     1      48.063  19.568  20.183  0.00  0.00    +0.432 A 
ATOM     57  O   UNL     1      48.130  18.640  19.395  0.00  0.00    -0.437 OA
BRANCH  52  53
ATOM     53  O   UNL     1      45.568  18.926  18.951  0.00  0.00    -0.471 OA
ATOM     54  H   UNL     1      45.097  18.216  19.408  0.00  0.00    +0.401 HD
ENDBRANCH  52  53
BRANCH  43  44
ATOM     44  O   UNL     1      43.584  22.894  20.654  0.00  0.00    -0.483 OA
ATOM     45  H   UNL     1      42.914  22.761  19.971  0.00  0.00    +0.399 HD
ENDBRANCH  43  44
BRANCH  35  36
ATOM     36  C   UNL     1      45.954  23.727  21.918  0.00  0.00    +0.082 C 
BRANCH  36  37
ATOM     37  C   UNL     1      46.434  24.855  21.002  0.00  0.00    +0.256 C 
BRANCH  37  40
ATOM     40  C   UNL     1      47.305  25.803  21.786  0.00  0.00    -0.165 C 
ATOM     41  C   UNL     1      47.034  27.285  21.745  0.00  0.00    +0.079 C 
ATOM     42  C   UNL     1      48.297  25.339  22.505  0.00  0.00    +0.030 C 
ENDBRANCH  37  40
BRANCH  37  38
ATOM     38  O   UNL     1      45.305  25.563  20.486  0.00  0.00    -0.555 OA
ATOM     39  H   UNL     1      45.122  26.396  20.940  0.00  0.00    +0.372 HD
ENDBRANCH  37  38
ENDBRANCH  36  37
ENDBRANCH  35  36
BRANCH  46  47
ATOM     47  C   UNL     1      43.259  20.537  19.145  0.00  0.00    +0.134 C 
BRANCH  47  48
ATOM     48  C   UNL     1      42.462  19.662  20.079  0.00  0.00    -0.061 C 
ATOM     49  C   UNL     1      41.155  19.739  20.093  0.00  0.00    -0.122 C 
ATOM     50  C   UNL     1      40.357  18.825  20.987  0.00  0.00    +0.074 C 
ATOM     51  C   UNL     1      40.449  20.742  19.218  0.00  0.00    +0.076 C 
ENDBRANCH  47  48
ENDBRANCH  46  47
ENDBRANCH  30  31
BRANCH  27  26
ATOM     26  O   UNL     1      53.429  16.320  21.872  0.00  0.00    -0.294 OA
BRANCH  26  25
ATOM     25  C   UNL     1      53.678  15.375  20.829  0.00  0.00    +0.173 C 
BRANCH  25  24
ATOM     24  C   UNL     1      54.094  14.036  21.442  0.00  0.00    +0.055 C 
BRANCH  24  23
ATOM     23  C   UNL     1      52.959  13.025  21.275  0.00  0.00    +0.007 C 
BRANCH  23  22
ATOM     22  C   UNL     1      52.678  12.814  19.786  0.00  0.00    +0.004 C 
BRANCH  22  21
ATOM     21  C   UNL     1      53.575  11.696  19.250  0.00  0.00    +0.001 C 
BRANCH  21  20
ATOM     20  C   UNL     1      53.018  11.189  17.919  0.00  0.00    +0.001 C 
BRANCH  20  19
ATOM     19  C   UNL     1      52.192  12.295  17.257  0.00  0.00    +0.000 C 
BRANCH  19  18
ATOM     18  C   UNL     1      51.505  11.740  16.007  0.00  0.00    +0.000 C 
BRANCH  18  17
ATOM     17  C   UNL     1      50.634  10.543  16.394  0.00  0.00    -0.000 C 
BRANCH  17  16
ATOM     16  C   UNL     1      49.552  10.335  15.332  0.00  0.00    +0.000 C 
BRANCH  16  15
ATOM     15  C   UNL     1      49.386  11.619  14.515  0.00  0.00    +0.000 C 
BRANCH  15  14
ATOM     14  C   UNL     1      47.962  12.152  14.687  0.00  0.00    +0.000 C 
BRANCH  14  13
ATOM     13  C   UNL     1      47.971  13.322  15.673  0.00  0.00    +0.000 C 
BRANCH  13  12
ATOM     12  C   UNL     1      46.833  13.148  16.681  0.00  0.00    +0.000 C 
BRANCH  12  11
ATOM     11  C   UNL     1      47.298  12.243  17.823  0.00  0.00    +0.000 C 
BRANCH  11  10
ATOM     10  C   UNL     1      47.732  13.102  19.011  0.00  0.00    +0.000 C 
BRANCH  10   9
ATOM      9  C   UNL     1      49.238  13.361  18.931  0.00  0.00    +0.000 C 
BRANCH   9   8
ATOM      8  C   UNL     1      49.529  14.810  19.329  0.00  0.00    +0.000 C 
BRANCH   8   7
ATOM      7  C   UNL     1      49.928  15.609  18.087  0.00  0.00    +0.000 C 
BRANCH   7   6
ATOM      6  C   UNL     1      51.454  15.697  18.007  0.00  0.00    +0.000 C 
BRANCH   6   5
ATOM      5  C   UNL     1      51.872  17.163  17.870  0.00  0.00    +0.000 C 
BRANCH   5   4
ATOM      4  C   UNL     1      50.729  17.963  17.241  0.00  0.00    -0.000 C 
BRANCH   4   3
ATOM      3  C   UNL     1      50.962  19.456  17.475  0.00  0.00    -0.000 C 
BRANCH   3   2
ATOM      1  C   UNL     1      51.569  21.408  16.037  0.00  0.00    +0.006 C 
ATOM      2  C   UNL     1      51.959  19.985  16.441  0.00  0.00    -0.006 C 
ENDBRANCH   3   2
ENDBRANCH   4   3
ENDBRANCH   5   4
ENDBRANCH   6   5
ENDBRANCH   7   6
ENDBRANCH   8   7
ENDBRANCH   9   8
ENDBRANCH  10   9
ENDBRANCH  11  10
ENDBRANCH  12  11
ENDBRANCH  13  12
ENDBRANCH  14  13
ENDBRANCH  15  14
ENDBRANCH  16  15
ENDBRANCH  17  16
ENDBRANCH  18  17
ENDBRANCH  19  18
ENDBRANCH  20  19
ENDBRANCH  21  20
ENDBRANCH  22  21
ENDBRANCH  23  22
ENDBRANCH  24  23
ENDBRANCH  25  24
BRANCH  25  60
ATOM     60  C   UNL     1      54.802  15.895  19.929  0.00  0.00    +0.161 C 
BRANCH  60  61
ATOM     61  O   UNL     1      55.602  14.797  19.485  0.00  0.00    -0.559 OA
ATOM     62  H   UNL     1      55.315  14.415  18.644  0.00  0.00    +0.380 HD
ENDBRANCH  60  61
ENDBRANCH  25  60
ENDBRANCH  26  25
ENDBRANCH  27  26
TORSDOF 36
ENDMDL
MODEL 2
REMARK VINA RESULT:      -3.8      2.117      5.168
REMARK  Name = ZINC95485925
REMARK  40 active torsions:
REMARK  status: ('A' for Active; 'I' for Inactive)
REMARK    1  A    between atoms: C1_1  and  C2_2
REMARK    2  A    between atoms: C2_2  and  C3_3
REMARK    3  A    between atoms: C3_3  and  C4_4
REMARK    4  A    between atoms: C4_4  and  C5_5
REMARK    5  A    between atoms: C5_5  and  C6_6
REMARK    6  A    between atoms: C6_6  and  C7_7
REMARK    7  A    between atoms: C7_7  and  C8_8
REMARK    8  A    between atoms: C8_8  and  C9_9
REMARK    9  A    between atoms: C9_9  and  C10_10
REMARK   10  A    between atoms: C10_10  and  C11_11
REMARK   11  A    between atoms: C11_11  and  C12_12
REMARK   12  A    between atoms: C12_12  and  C13_13
REMARK   13  A    between atoms: C13_13  and  C14_14
REMARK   14  A    between atoms: C14_14  and  C15_15
REMARK   15  A    between atoms: C15_15  and  C16_16
REMARK   16  A    between atoms: C16_16  and  C17_17
REMARK   17  A    between atoms: C17_17  and  C18_18
REMARK   18  A    between atoms: C18_18  and  C19_19
REMARK   19  A    between atoms: C19_19  and  C20_20
REMARK   20  A    between atoms: C20_20  and  C21_21
REMARK   21  A    between atoms: C21_21  and  C22_22
REMARK   22  A    between atoms: C22_22  and  C23_23
REMARK   23  A    between atoms: C23_23  and  C24_24
REMARK   24  A    between atoms: C24_24  and  C25_25
REMARK   25  A    between atoms: C25_25  and  C26_27
REMARK   26  A    between atoms: C25_25  and  O2_29
REMARK   27  A    between atoms: C26_27  and  O1_28
REMARK   28  A    between atoms: O2_29  and  C27_30
REMARK   29  A    between atoms: C30_33  and  C33_36
REMARK   30  A    between atoms: C36_40  and  C47_54
REMARK   31  A    between atoms: C37_41  and  O6_53
REMARK   32  A    between atoms: C38_42  and  C42_48
REMARK   33  A    between atoms: C39_43  and  O5_47
REMARK   34  A    between atoms: C42_48  and  C43_49
REMARK   35  A    between atoms: C44_50  and  C45_51
REMARK   36  A    between atoms: C44_50  and  C46_52
REMARK   37  A    between atoms: C47_54  and  C48_55
REMARK   38  A    between atoms: C48_55  and  C49_57
REMARK   39  A    between atoms: C48_55  and  O7_60
REMARK   40  A    between atoms: C49_57  and  C51_59
REMARK                            x       y       z     vdW  Elec       q    Type
REMARK                         _______ _______ _______ _____ _____    ______ ____
ROOT
ATOM     27  C   UNL     1      50.633  13.682  21.013  0.00  0.00    +0.141 A 
ATOM     28  C   UNL     1      50.410  14.699  20.096  0.00  0.00    -0.086 A 
ATOM     29  C   UNL     1      49.500  15.697  20.378  0.00  0.00    +0.061 A 
ATOM     30  C   UNL     1      48.804  15.683  21.585  0.00  0.00    -0.070 A 
ATOM     58  C   UNL     1      49.031  14.660  22.505  0.00  0.00    +0.084 A 
ATOM     59  C   UNL     1      49.939  13.663  22.215  0.00  0.00    -0.017 A 
ENDROOT
BRANCH  30  31
ATOM     31  C   UNL     1      47.826  16.754  21.891  0.00  0.00    -0.229 A 
ATOM     32  C   UNL     1      46.530  16.459  22.168  0.00  0.00    +0.318 A 
ATOM     33  O   UNL     1      45.623  17.392  22.464  0.00  0.00    -0.214 OA
ATOM     34  C   UNL     1      45.841  18.697  22.210  0.00  0.00    +0.168 A 
ATOM     35  C   UNL     1      44.789  19.603  22.219  0.00  0.00    -0.135 A 
ATOM     43  C   UNL     1      45.026  20.944  21.966  0.00  0.00    +0.200 A 
ATOM     46  C   UNL     1      46.312  21.403  21.701  0.00  0.00    -0.152 A 
ATOM     52  C   UNL     1      47.373  20.517  21.684  0.00  0.00    +0.214 A 
ATOM     55  C   UNL     1      47.139  19.158  21.931  0.00  0.00    -0.253 A 
ATOM     56  C   UNL     1      48.235  18.173  21.909  0.00  0.00    +0.432 A 
ATOM     57  O   UNL     1      49.407  18.507  21.902  0.00  0.00    -0.437 OA
BRANCH  52  53
ATOM     53  O   UNL     1      48.630  20.960  21.428  0.00  0.00    -0.471 OA
ATOM     54  H   UNL     1      48.962  20.719  20.553  0.00  0.00    +0.401 HD
ENDBRANCH  52  53
BRANCH  43  44
ATOM     44  O   UNL     1      43.989  21.822  21.975  0.00  0.00    -0.483 OA
ATOM     45  H   UNL     1      43.687  22.082  21.095  0.00  0.00    +0.399 HD
ENDBRANCH  43  44
BRANCH  35  36
ATOM     36  C   UNL     1      43.388  19.127  22.505  0.00  0.00    +0.082 C 
BRANCH  36  37
ATOM     37  C   UNL     1      42.851  18.365  21.292  0.00  0.00    +0.256 C 
BRANCH  37  40
ATOM     40  C   UNL     1      41.537  18.965  20.863  0.00  0.00    -0.165 C 
ATOM     41  C   UNL     1      41.327  19.375  19.428  0.00  0.00    +0.079 C 
ATOM     42  C   UNL     1      40.576  19.130  21.737  0.00  0.00    +0.030 C 
ENDBRANCH  37  40
BRANCH  37  38
ATOM     38  O   UNL     1      42.657  16.992  21.638  0.00  0.00    -0.555 OA
ATOM     39  H   UNL     1      42.287  16.858  22.520  0.00  0.00    +0.372 HD
ENDBRANCH  37  38
ENDBRANCH  36  37
ENDBRANCH  35  36
BRANCH  46  47
ATOM     47  C   UNL     1      46.549  22.866  21.432  0.00  0.00    +0.134 C 
BRANCH  47  48
ATOM     48  C   UNL     1      45.635  23.329  20.326  0.00  0.00    -0.061 C 
ATOM     49  C   UNL     1      45.447  24.609  20.124  0.00  0.00    -0.122 C 
ATOM     50  C   UNL     1      44.577  25.072  18.983  0.00  0.00    +0.074 C 
ATOM     51  C   UNL     1      46.100  25.620  21.032  0.00  0.00    +0.076 C 
ENDBRANCH  47  48
ENDBRANCH  46  47
ENDBRANCH  30  31
BRANCH  27  26
ATOM     26  O   UNL     1      51.530  12.701  20.733  0.00  0.00    -0.294 OA
BRANCH  26  25
ATOM     25  C   UNL     1      52.833  12.830  21.307  0.00  0.00    +0.173 C 
BRANCH  25  24
ATOM     24  C   UNL     1      52.955  14.192  21.994  0.00  0.00    +0.055 C 
BRANCH  24  23
ATOM     23  C   UNL     1      53.844  15.109  21.153  0.00  0.00    +0.007 C 
BRANCH  23  22
ATOM     22  C   UNL     1      53.880  16.503  21.782  0.00  0.00    +0.004 C 
BRANCH  22  21
ATOM     21  C   UNL     1      52.710  17.333  21.249  0.00  0.00    +0.001 C 
BRANCH  21  20
ATOM     20  C   UNL     1      52.811  17.439  19.726  0.00  0.00    +0.001 C 
BRANCH  20  19
ATOM     19  C   UNL     1      51.883  18.550  19.229  0.00  0.00    +0.000 C 
BRANCH  19  18
ATOM     18  C   UNL     1      51.295  18.156  17.872  0.00  0.00    +0.000 C 
BRANCH  18  17
ATOM     17  C   UNL     1      51.796  16.763  17.486  0.00  0.00    -0.000 C 
BRANCH  17  16
ATOM     16  C   UNL     1      50.722  16.044  16.667  0.00  0.00    +0.000 C 
BRANCH  16  15
ATOM     15  C   UNL     1      51.072  14.558  16.560  0.00  0.00    +0.000 C 
BRANCH  15  14
ATOM     14  C   UNL     1      49.784  13.739  16.453  0.00  0.00    +0.000 C 
BRANCH  14  13
ATOM     13  C   UNL     1      49.914  12.472  17.301  0.00  0.00    +0.000 C 
BRANCH  13  12
ATOM     12  C   UNL     1      48.989  11.388  16.744  0.00  0.00    +0.000 C 
BRANCH  12  11
ATOM     11  C   UNL     1      48.287  11.911  15.490  0.00  0.00    +0.000 C 
BRANCH  11  10
ATOM     10  C   UNL     1      46.821  11.477  15.506  0.00  0.00    +0.000 C 
BRANCH  10   9
ATOM      9  C   UNL     1      46.329  11.393  16.953  0.00  0.00    +0.000 C 
BRANCH   9   8
ATOM      8  C   UNL     1      45.448  12.605  17.264  0.00  0.00    +0.000 C 
BRANCH   8   7
ATOM      7  C   UNL     1      45.568  12.955  18.748  0.00  0.00    +0.000 C 
BRANCH   7   6
ATOM      6  C   UNL     1      46.556  14.110  18.920  0.00  0.00    +0.000 C 
BRANCH   6   5
ATOM      5  C   UNL     1      46.653  14.896  17.610  0.00  0.00    +0.000 C 
BRANCH   5   4
ATOM      4  C   UNL     1      47.124  16.322  17.905  0.00  0.00    -0.000 C 
BRANCH   4   3
ATOM      3  C   UNL     1      45.924  17.182  18.309  0.00  0.00    -0.000 C 
BRANCH   3   2
ATOM      1  C   UNL     1      45.179  19.550  18.601  0.00  0.00    +0.006 C 
ATOM      2  C   UNL     1      46.168  18.630  17.880  0.00  0.00    -0.006 C 
ENDBRANCH   3   2
ENDBRANCH   4   3
ENDBRANCH   5   4
ENDBRANCH   6   5
ENDBRANCH   7   6
ENDBRANCH   8   7
ENDBRANCH   9   8
ENDBRANCH  10   9
ENDBRANCH  11  10
ENDBRANCH  12  11
ENDBRANCH  13  12
ENDBRANCH  14  13
ENDBRANCH  15  14
ENDBRANCH  16  15
ENDBRANCH  17  16
ENDBRANCH  18  17
ENDBRANCH  19  18
ENDBRANCH  20  19
ENDBRANCH  21  20
ENDBRANCH  22  21
ENDBRANCH  23  22
ENDBRANCH  24  23
ENDBRANCH  25  24
BRANCH  25  60
ATOM     60  C   UNL     1      53.889  12.717  20.206  0.00  0.00    +0.161 C 
BRANCH  60  61
ATOM     61  O   UNL     1      53.260  12.342  18.979  0.00  0.00    -0.559 OA
ATOM     62  H   UNL     1      52.742  13.051  18.570  0.00  0.00    +0.380 HD
ENDBRANCH  60  61
ENDBRANCH  25  60
ENDBRANCH  26  25
ENDBRANCH  27  26
TORSDOF 36
ENDMDL
MODEL 3
REMARK VINA RESULT:      -3.6      2.315      5.002
REMARK  Name = ZINC95485925
REMARK  40 active torsions:
REMARK  status: ('A' for Active; 'I' for Inactive)
REMARK    1  A    between atoms: C1_1  and  C2_2
REMARK    2  A    between atoms: C2_2  and  C3_3
REMARK    3  A    between atoms: C3_3  and  C4_4
REMARK    4  A    between atoms: C4_4  and  C5_5
REMARK    5  A    between atoms: C5_5  and  C6_6
REMARK    6  A    between atoms: C6_6  and  C7_7
REMARK    7  A    between atoms: C7_7  and  C8_8
REMARK    8  A    between atoms: C8_8  and  C9_9
REMARK    9  A    between atoms: C9_9  and  C10_10
REMARK   10  A    between atoms: C10_10  and  C11_11
REMARK   11  A    between atoms: C11_11  and  C12_12
REMARK   12  A    between atoms: C12_12  and  C13_13
REMARK   13  A    between atoms: C13_13  and  C14_14
REMARK   14  A    between atoms: C14_14  and  C15_15
REMARK   15  A    between atoms: C15_15  and  C16_16
REMARK   16  A    between atoms: C16_16  and  C17_17
REMARK   17  A    between atoms: C17_17  and  C18_18
REMARK   18  A    between atoms: C18_18  and  C19_19
REMARK   19  A    between atoms: C19_19  and  C20_20
REMARK   20  A    between atoms: C20_20  and  C21_21
REMARK   21  A    between atoms: C21_21  and  C22_22
REMARK   22  A    between atoms: C22_22  and  C23_23
REMARK   23  A    between atoms: C23_23  and  C24_24
REMARK   24  A    between atoms: C24_24  and  C25_25
REMARK   25  A    between atoms: C25_25  and  C26_27
REMARK   26  A    between atoms: C25_25  and  O2_29
REMARK   27  A    between atoms: C26_27  and  O1_28
REMARK   28  A    between atoms: O2_29  and  C27_30
REMARK   29  A    between atoms: C30_33  and  C33_36
REMARK   30  A    between atoms: C36_40  and  C47_54
REMARK   31  A    between atoms: C37_41  and  O6_53
REMARK   32  A    between atoms: C38_42  and  C42_48
REMARK   33  A    between atoms: C39_43  and  O5_47
REMARK   34  A    between atoms: C42_48  and  C43_49
REMARK   35  A    between atoms: C44_50  and  C45_51
REMARK   36  A    between atoms: C44_50  and  C46_52
REMARK   37  A    between atoms: C47_54  and  C48_55
REMARK   38  A    between atoms: C48_55  and  C49_57
REMARK   39  A    between atoms: C48_55  and  O7_60
REMARK   40  A    between atoms: C49_57  and  C51_59
REMARK                            x       y       z     vdW  Elec       q    Type
REMARK                         _______ _______ _______ _____ _____    ______ ____
ROOT
ATOM     27  C   UNL     1      49.301  13.228  20.980  0.00  0.00    +0.141 A 
ATOM     28  C   UNL     1      48.033  13.024  20.454  0.00  0.00    -0.086 A 
ATOM     29  C   UNL     1      47.109  14.049  20.460  0.00  0.00    +0.061 A 
ATOM     30  C   UNL     1      47.451  15.290  20.994  0.00  0.00    -0.070 A 
ATOM     58  C   UNL     1      48.725  15.492  21.521  0.00  0.00    +0.084 A 
ATOM     59  C   UNL     1      49.643  14.462  21.517  0.00  0.00    -0.017 A 
ENDROOT
BRANCH  30  31
ATOM     31  C   UNL     1      46.459  16.393  21.002  0.00  0.00    -0.229 A 
ATOM     32  C   UNL     1      45.240  16.240  20.426  0.00  0.00    +0.318 A 
ATOM     33  O   UNL     1      44.315  17.203  20.425  0.00  0.00    -0.214 OA
ATOM     34  C   UNL     1      44.624  18.482  20.714  0.00  0.00    +0.168 A 
ATOM     35  C   UNL     1      43.743  19.508  20.402  0.00  0.00    -0.135 A 
ATOM     43  C   UNL     1      44.066  20.819  20.711  0.00  0.00    +0.200 A 
ATOM     46  C   UNL     1      45.270  21.127  21.338  0.00  0.00    -0.152 A 
ATOM     52  C   UNL     1      46.162  20.120  21.656  0.00  0.00    +0.214 A 
ATOM     55  C   UNL     1      45.845  18.793  21.338  0.00  0.00    -0.253 A 
ATOM     56  C   UNL     1      46.770  17.687  21.642  0.00  0.00    +0.432 A 
ATOM     57  O   UNL     1      47.734  17.831  22.374  0.00  0.00    -0.437 OA
BRANCH  52  53
ATOM     53  O   UNL     1      47.336  20.415  22.270  0.00  0.00    -0.471 OA
ATOM     54  H   UNL     1      47.998  20.810  21.685  0.00  0.00    +0.401 HD
ENDBRANCH  52  53
BRANCH  43  44
ATOM     44  O   UNL     1      43.199  21.817  20.399  0.00  0.00    -0.483 OA
ATOM     45  H   UNL     1      43.239  22.098  19.476  0.00  0.00    +0.399 HD
ENDBRANCH  43  44
BRANCH  35  36
ATOM     36  C   UNL     1      42.434  19.196  19.724  0.00  0.00    +0.082 C 
BRANCH  36  37
ATOM     37  C   UNL     1      42.167  20.232  18.630  0.00  0.00    +0.256 C 
BRANCH  37  40
ATOM     40  C   UNL     1      40.697  20.244  18.297  0.00  0.00    -0.165 C 
ATOM     41  C   UNL     1      40.015  18.976  17.849  0.00  0.00    +0.079 C 
ATOM     42  C   UNL     1      40.011  21.355  18.397  0.00  0.00    +0.030 C 
ENDBRANCH  37  40
BRANCH  37  38
ATOM     38  O   UNL     1      42.917  19.895  17.461  0.00  0.00    -0.555 OA
ATOM     39  H   UNL     1      42.560  20.268  16.643  0.00  0.00    +0.372 HD
ENDBRANCH  37  38
ENDBRANCH  36  37
ENDBRANCH  35  36
BRANCH  46  47
ATOM     47  C   UNL     1      45.601  22.558  21.671  0.00  0.00    +0.134 C 
BRANCH  47  48
ATOM     48  C   UNL     1      45.077  23.461  20.583  0.00  0.00    -0.061 C 
ATOM     49  C   UNL     1      45.545  24.678  20.460  0.00  0.00    -0.122 C 
ATOM     50  C   UNL     1      45.061  25.562  19.339  0.00  0.00    +0.074 C 
ATOM     51  C   UNL     1      46.567  25.196  21.440  0.00  0.00    +0.076 C 
ENDBRANCH  47  48
ENDBRANCH  46  47
ENDBRANCH  30  31
BRANCH  27  26
ATOM     26  O   UNL     1      50.209  12.217  20.973  0.00  0.00    -0.294 OA
BRANCH  26  25
ATOM     25  C   UNL     1      50.681  11.761  22.243  0.00  0.00    +0.173 C 
BRANCH  25  24
ATOM     24  C   UNL     1      52.211  11.744  22.242  0.00  0.00    +0.055 C 
BRANCH  24  23
ATOM     23  C   UNL     1      52.732  12.725  21.191  0.00  0.00    +0.007 C 
BRANCH  23  22
ATOM     22  C   UNL     1      54.254  12.605  21.090  0.00  0.00    +0.004 C 
BRANCH  22  21
ATOM     21  C   UNL     1      54.618  11.693  19.916  0.00  0.00    +0.001 C 
BRANCH  21  20
ATOM     20  C   UNL     1      53.781  12.075  18.694  0.00  0.00    +0.001 C 
BRANCH  20  19
ATOM     19  C   UNL     1      53.355  10.807  17.951  0.00  0.00    +0.000 C 
BRANCH  19  18
ATOM     18  C   UNL     1      51.918  10.968  17.449  0.00  0.00    +0.000 C 
BRANCH  18  17
ATOM     17  C   UNL     1      51.439  12.394  17.725  0.00  0.00    -0.000 C 
BRANCH  17  16
ATOM     16  C   UNL     1      51.228  13.127  16.399  0.00  0.00    +0.000 C 
BRANCH  16  15
ATOM     15  C   UNL     1      51.061  14.624  16.665  0.00  0.00    +0.000 C 
BRANCH  15  14
ATOM     14  C   UNL     1      49.878  14.844  17.610  0.00  0.00    +0.000 C 
BRANCH  14  13
ATOM     13  C   UNL     1      48.573  14.524  16.877  0.00  0.00    +0.000 C 
BRANCH  13  12
ATOM     12  C   UNL     1      47.465  15.453  17.380  0.00  0.00    +0.000 C 
BRANCH  12  11
ATOM     11  C   UNL     1      47.775  16.890  16.960  0.00  0.00    +0.000 C 
BRANCH  11  10
ATOM     10  C   UNL     1      46.689  17.824  17.496  0.00  0.00    +0.000 C 
BRANCH  10   9
ATOM      9  C   UNL     1      47.341  19.047  18.145  0.00  0.00    +0.000 C 
BRANCH   9   8
ATOM      8  C   UNL     1      48.739  18.674  18.646  0.00  0.00    +0.000 C 
BRANCH   8   7
ATOM      7  C   UNL     1      49.213  19.720  19.657  0.00  0.00    +0.000 C 
BRANCH   7   6
ATOM      6  C   UNL     1      49.954  20.839  18.921  0.00  0.00    +0.000 C 
BRANCH   6   5
ATOM      5  C   UNL     1      51.443  20.778  19.270  0.00  0.00    +0.000 C 
BRANCH   5   4
ATOM      4  C   UNL     1      52.273  20.945  17.995  0.00  0.00    -0.000 C 
BRANCH   4   3
ATOM      3  C   UNL     1      51.400  20.639  16.776  0.00  0.00    -0.000 C 
BRANCH   3   2
ATOM      1  C   UNL     1      51.452  18.174  16.367  0.00  0.00    +0.006 C 
ATOM      2  C   UNL     1      52.047  19.522  15.954  0.00  0.00    -0.006 C 
ENDBRANCH   3   2
ENDBRANCH   4   3
ENDBRANCH   5   4
ENDBRANCH   6   5
ENDBRANCH   7   6
ENDBRANCH   8   7
ENDBRANCH   9   8
ENDBRANCH  10   9
ENDBRANCH  11  10
ENDBRANCH  12  11
ENDBRANCH  13  12
ENDBRANCH  14  13
ENDBRANCH  15  14
ENDBRANCH  16  15
ENDBRANCH  17  16
ENDBRANCH  18  17
ENDBRANCH  19  18
ENDBRANCH  20  19
ENDBRANCH  21  20
ENDBRANCH  22  21
ENDBRANCH  23  22
ENDBRANCH  24  23
ENDBRANCH  25  24
BRANCH  25  60
ATOM     60  C   UNL     1      50.155  10.349  22.505  0.00  0.00    +0.161 C 
BRANCH  60  61
ATOM     61  O   UNL     1      48.729  10.347  22.412  0.00  0.00    -0.559 OA
ATOM     62  H   UNL     1      48.278  10.320  23.268  0.00  0.00    +0.380 HD
ENDBRANCH  60  61
ENDBRANCH  25  60
ENDBRANCH  26  25
ENDBRANCH  27  26
TORSDOF 36
ENDMDL
MODEL 4
REMARK VINA RESULT:      -3.2      1.571      2.737
REMARK  Name = ZINC95485925
REMARK  40 active torsions:
REMARK  status: ('A' for Active; 'I' for Inactive)
REMARK    1  A    between atoms: C1_1  and  C2_2
REMARK    2  A    between atoms: C2_2  and  C3_3
REMARK    3  A    between atoms: C3_3  and  C4_4
REMARK    4  A    between atoms: C4_4  and  C5_5
REMARK    5  A    between atoms: C5_5  and  C6_6
REMARK    6  A    between atoms: C6_6  and  C7_7
REMARK    7  A    between atoms: C7_7  and  C8_8
REMARK    8  A    between atoms: C8_8  and  C9_9
REMARK    9  A    between atoms: C9_9  and  C10_10
REMARK   10  A    between atoms: C10_10  and  C11_11
REMARK   11  A    between atoms: C11_11  and  C12_12
REMARK   12  A    between atoms: C12_12  and  C13_13
REMARK   13  A    between atoms: C13_13  and  C14_14
REMARK   14  A    between atoms: C14_14  and  C15_15
REMARK   15  A    between atoms: C15_15  and  C16_16
REMARK   16  A    between atoms: C16_16  and  C17_17
REMARK   17  A    between atoms: C17_17  and  C18_18
REMARK   18  A    between atoms: C18_18  and  C19_19
REMARK   19  A    between atoms: C19_19  and  C20_20
REMARK   20  A    between atoms: C20_20  and  C21_21
REMARK   21  A    between atoms: C21_21  and  C22_22
REMARK   22  A    between atoms: C22_22  and  C23_23
REMARK   23  A    between atoms: C23_23  and  C24_24
REMARK   24  A    between atoms: C24_24  and  C25_25
REMARK   25  A    between atoms: C25_25  and  C26_27
REMARK   26  A    between atoms: C25_25  and  O2_29
REMARK   27  A    between atoms: C26_27  and  O1_28
REMARK   28  A    between atoms: O2_29  and  C27_30
REMARK   29  A    between atoms: C30_33  and  C33_36
REMARK   30  A    between atoms: C36_40  and  C47_54
REMARK   31  A    between atoms: C37_41  and  O6_53
REMARK   32  A    between atoms: C38_42  and  C42_48
REMARK   33  A    between atoms: C39_43  and  O5_47
REMARK   34  A    between atoms: C42_48  and  C43_49
REMARK   35  A    between atoms: C44_50  and  C45_51
REMARK   36  A    between atoms: C44_50  and  C46_52
REMARK   37  A    between atoms: C47_54  and  C48_55
REMARK   38  A    between atoms: C48_55  and  C49_57
REMARK   39  A    between atoms: C48_55  and  O7_60
REMARK   40  A    between atoms: C49_57  and  C51_59
REMARK                            x       y       z     vdW  Elec       q    Type
REMARK                         _______ _______ _______ _____ _____    ______ ____
ROOT
ATOM     27  C   UNL     1      53.022  16.692  21.594  0.00  0.00    +0.141 A 
ATOM     28  C   UNL     1      51.973  16.703  22.502  0.00  0.00    -0.086 A 
ATOM     29  C   UNL     1      50.925  17.585  22.337  0.00  0.00    +0.061 A 
ATOM     30  C   UNL     1      50.921  18.466  21.257  0.00  0.00    -0.070 A 
ATOM     58  C   UNL     1      51.976  18.453  20.347  0.00  0.00    +0.084 A 
ATOM     59  C   UNL     1      53.024  17.571  20.520  0.00  0.00    -0.017 A 
ENDROOT
BRANCH  30  31
ATOM     31  C   UNL     1      49.795  19.414  21.077  0.00  0.00    -0.229 A 
ATOM     32  C   UNL     1      49.704  20.541  21.829  0.00  0.00    +0.318 A 
ATOM     33  O   UNL     1      48.716  21.427  21.686  0.00  0.00    -0.214 OA
ATOM     34  C   UNL     1      47.586  21.126  21.017  0.00  0.00    +0.168 A 
ATOM     35  C   UNL     1      46.456  21.921  21.148  0.00  0.00    -0.135 A 
ATOM     43  C   UNL     1      45.301  21.608  20.449  0.00  0.00    +0.200 A 
ATOM     46  C   UNL     1      45.257  20.501  19.608  0.00  0.00    -0.152 A 
ATOM     52  C   UNL     1      46.371  19.695  19.465  0.00  0.00    +0.214 A 
ATOM     55  C   UNL     1      47.538  20.001  20.176  0.00  0.00    -0.253 A 
ATOM     56  C   UNL     1      48.745  19.163  20.069  0.00  0.00    +0.432 A 
ATOM     57  O   UNL     1      48.869  18.312  19.205  0.00  0.00    -0.437 OA
BRANCH  52  53
ATOM     53  O   UNL     1      46.332  18.614  18.644  0.00  0.00    -0.471 OA
ATOM     54  H   UNL     1      45.483  18.488  18.199  0.00  0.00    +0.401 HD
ENDBRANCH  52  53
BRANCH  43  44
ATOM     44  O   UNL     1      44.200  22.391  20.585  0.00  0.00    -0.483 OA
ATOM     45  H   UNL     1      44.217  23.191  20.043  0.00  0.00    +0.399 HD
ENDBRANCH  43  44
BRANCH  35  36
ATOM     36  C   UNL     1      46.484  23.126  22.053  0.00  0.00    +0.082 C 
BRANCH  36  37
ATOM     37  C   UNL     1      46.578  24.397  21.206  0.00  0.00    +0.256 C 
BRANCH  37  40
ATOM     40  C   UNL     1      47.573  25.343  21.829  0.00  0.00    -0.165 C 
ATOM     41  C   UNL     1      47.395  26.832  21.675  0.00  0.00    +0.079 C 
ATOM     42  C   UNL     1      48.591  24.872  22.506  0.00  0.00    +0.030 C 
ENDBRANCH  37  40
BRANCH  37  38
ATOM     38  O   UNL     1      45.297  25.027  21.146  0.00  0.00    -0.555 OA
ATOM     39  H   UNL     1      45.286  25.850  20.639  0.00  0.00    +0.372 HD
ENDBRANCH  37  38
ENDBRANCH  36  37
ENDBRANCH  35  36
BRANCH  46  47
ATOM     47  C   UNL     1      43.994  20.180  18.852  0.00  0.00    +0.134 C 
BRANCH  47  48
ATOM     48  C   UNL     1      43.078  19.362  19.727  0.00  0.00    -0.061 C 
ATOM     49  C   UNL     1      41.816  19.692  19.844  0.00  0.00    -0.122 C 
ATOM     50  C   UNL     1      40.889  18.842  20.675  0.00  0.00    +0.074 C 
ATOM     51  C   UNL     1      41.291  20.922  19.149  0.00  0.00    +0.076 C 
ENDBRANCH  47  48
ENDBRANCH  46  47
ENDBRANCH  30  31
BRANCH  27  26
ATOM     26  O   UNL     1      54.053  15.823  21.759  0.00  0.00    -0.294 OA
BRANCH  26  25
ATOM     25  C   UNL     1      54.500  15.118  20.598  0.00  0.00    +0.173 C 
BRANCH  25  24
ATOM     24  C   UNL     1      54.581  13.622  20.909  0.00  0.00    +0.055 C 
BRANCH  24  23
ATOM     23  C   UNL     1      53.537  12.871  20.082  0.00  0.00    +0.007 C 
BRANCH  23  22
ATOM     22  C   UNL     1      54.221  12.187  18.897  0.00  0.00    +0.004 C 
BRANCH  22  21
ATOM     21  C   UNL     1      53.515  10.864  18.594  0.00  0.00    +0.001 C 
BRANCH  21  20
ATOM     20  C   UNL     1      52.042  10.968  18.991  0.00  0.00    +0.001 C 
BRANCH  20  19
ATOM     19  C   UNL     1      51.225  11.466  17.796  0.00  0.00    +0.000 C 
BRANCH  19  18
ATOM     18  C   UNL     1      50.025  10.541  17.579  0.00  0.00    +0.000 C 
BRANCH  18  17
ATOM     17  C   UNL     1      49.130  10.568  18.818  0.00  0.00    -0.000 C 
BRANCH  17  16
ATOM     16  C   UNL     1      47.787  11.211  18.464  0.00  0.00    +0.000 C 
BRANCH  16  15
ATOM     15  C   UNL     1      47.370  10.778  17.056  0.00  0.00    +0.000 C 
BRANCH  15  14
ATOM     14  C   UNL     1      46.687  11.947  16.344  0.00  0.00    +0.000 C 
BRANCH  14  13
ATOM     13  C   UNL     1      46.833  13.214  17.190  0.00  0.00    +0.000 C 
BRANCH  13  12
ATOM     12  C   UNL     1      46.940  14.432  16.270  0.00  0.00    +0.000 C 
BRANCH  12  11
ATOM     11  C   UNL     1      47.423  15.639  17.075  0.00  0.00    +0.000 C 
BRANCH  11  10
ATOM     10  C   UNL     1      48.945  15.581  17.219  0.00  0.00    +0.000 C 
BRANCH  10   9
ATOM      9  C   UNL     1      49.325  14.443  18.169  0.00  0.00    +0.000 C 
BRANCH   9   8
ATOM      8  C   UNL     1      50.574  14.835  18.961  0.00  0.00    +0.000 C 
BRANCH   8   7
ATOM      7  C   UNL     1      50.486  14.254  20.374  0.00  0.00    +0.000 C 
BRANCH   7   6
ATOM      6  C   UNL     1      49.332  14.920  21.127  0.00  0.00    +0.000 C 
BRANCH   6   5
ATOM      5  C   UNL     1      48.477  13.845  21.801  0.00  0.00    +0.000 C 
BRANCH   5   4
ATOM      4  C   UNL     1      47.126  13.748  21.090  0.00  0.00    -0.000 C 
BRANCH   4   3
ATOM      3  C   UNL     1      46.714  15.133  20.587  0.00  0.00    -0.000 C 
BRANCH   3   2
ATOM      1  C   UNL     1      45.563  17.100  21.613  0.00  0.00    +0.006 C 
ATOM      2  C   UNL     1      45.464  15.598  21.337  0.00  0.00    -0.006 C 
ENDBRANCH   3   2
ENDBRANCH   4   3
ENDBRANCH   5   4
ENDBRANCH   6   5
ENDBRANCH   7   6
ENDBRANCH   8   7
ENDBRANCH   9   8
ENDBRANCH  10   9
ENDBRANCH  11  10
ENDBRANCH  12  11
ENDBRANCH  13  12
ENDBRANCH  14  13
ENDBRANCH  15  14
ENDBRANCH  16  15
ENDBRANCH  17  16
ENDBRANCH  18  17
ENDBRANCH  19  18
ENDBRANCH  20  19
ENDBRANCH  21  20
ENDBRANCH  22  21
ENDBRANCH  23  22
ENDBRANCH  24  23
ENDBRANCH  25  24
BRANCH  25  60
ATOM     60  C   UNL     1      55.883  15.631  20.191  0.00  0.00    +0.161 C 
BRANCH  60  61
ATOM     61  O   UNL     1      55.885  15.936  18.795  0.00  0.00    -0.559 OA
ATOM     62  H   UNL     1      55.187  16.550  18.525  0.00  0.00    +0.380 HD
ENDBRANCH  60  61
ENDBRANCH  25  60
ENDBRANCH  26  25
ENDBRANCH  27  26
TORSDOF 36
ENDMDL
MODEL 5
REMARK VINA RESULT:      -3.2      1.614      3.112
REMARK  Name = ZINC95485925
REMARK  40 active torsions:
REMARK  status: ('A' for Active; 'I' for Inactive)
REMARK    1  A    between atoms: C1_1  and  C2_2
REMARK    2  A    between atoms: C2_2  and  C3_3
REMARK    3  A    between atoms: C3_3  and  C4_4
REMARK    4  A    between atoms: C4_4  and  C5_5
REMARK    5  A    between atoms: C5_5  and  C6_6
REMARK    6  A    between atoms: C6_6  and  C7_7
REMARK    7  A    between atoms: C7_7  and  C8_8
REMARK    8  A    between atoms: C8_8  and  C9_9
REMARK    9  A    between atoms: C9_9  and  C10_10
REMARK   10  A    between atoms: C10_10  and  C11_11
REMARK   11  A    between atoms: C11_11  and  C12_12
REMARK   12  A    between atoms: C12_12  and  C13_13
REMARK   13  A    between atoms: C13_13  and  C14_14
REMARK   14  A    between atoms: C14_14  and  C15_15
REMARK   15  A    between atoms: C15_15  and  C16_16
REMARK   16  A    between atoms: C16_16  and  C17_17
REMARK   17  A    between atoms: C17_17  and  C18_18
REMARK   18  A    between atoms: C18_18  and  C19_19
REMARK   19  A    between atoms: C19_19  and  C20_20
REMARK   20  A    between atoms: C20_20  and  C21_21
REMARK   21  A    between atoms: C21_21  and  C22_22
REMARK   22  A    between atoms: C22_22  and  C23_23
REMARK   23  A    between atoms: C23_23  and  C24_24
REMARK   24  A    between atoms: C24_24  and  C25_25
REMARK   25  A    between atoms: C25_25  and  C26_27
REMARK   26  A    between atoms: C25_25  and  O2_29
REMARK   27  A    between atoms: C26_27  and  O1_28
REMARK   28  A    between atoms: O2_29  and  C27_30
REMARK   29  A    between atoms: C30_33  and  C33_36
REMARK   30  A    between atoms: C36_40  and  C47_54
REMARK   31  A    between atoms: C37_41  and  O6_53
REMARK   32  A    between atoms: C38_42  and  C42_48
REMARK   33  A    between atoms: C39_43  and  O5_47
REMARK   34  A    between atoms: C42_48  and  C43_49
REMARK   35  A    between atoms: C44_50  and  C45_51
REMARK   36  A    between atoms: C44_50  and  C46_52
REMARK   37  A    between atoms: C47_54  and  C48_55
REMARK   38  A    between atoms: C48_55  and  C49_57
REMARK   39  A    between atoms: C48_55  and  O7_60
REMARK   40  A    between atoms: C49_57  and  C51_59
REMARK                            x       y       z     vdW  Elec       q    Type
REMARK                         _______ _______ _______ _____ _____    ______ ____
ROOT
ATOM     27  C   UNL     1      53.328  16.890  21.683  0.00  0.00    +0.141 A 
ATOM     28  C   UNL     1      52.220  16.743  22.505  0.00  0.00    -0.086 A 
ATOM     29  C   UNL     1      51.076  17.474  22.260  0.00  0.00    +0.061 A 
ATOM     30  C   UNL     1      51.034  18.361  21.186  0.00  0.00    -0.070 A 
ATOM     58  C   UNL     1      52.149  18.506  20.362  0.00  0.00    +0.084 A 
ATOM     59  C   UNL     1      53.291  17.776  20.615  0.00  0.00    -0.017 A 
ENDROOT
BRANCH  30  31
ATOM     31  C   UNL     1      49.806  19.148  20.920  0.00  0.00    -0.229 A 
ATOM     32  C   UNL     1      49.662  20.406  21.411  0.00  0.00    +0.318 A 
ATOM     33  O   UNL     1      48.579  21.152  21.181  0.00  0.00    -0.214 OA
ATOM     34  C   UNL     1      47.434  20.615  20.716  0.00  0.00    +0.168 A 
ATOM     35  C   UNL     1      46.243  21.324  20.787  0.00  0.00    -0.135 A 
ATOM     43  C   UNL     1      45.073  20.766  20.298  0.00  0.00    +0.200 A 
ATOM     46  C   UNL     1      45.072  19.496  19.731  0.00  0.00    -0.152 A 
ATOM     52  C   UNL     1      46.248  18.772  19.654  0.00  0.00    +0.214 A 
ATOM     55  C   UNL     1      47.432  19.327  20.154  0.00  0.00    -0.253 A 
ATOM     56  C   UNL     1      48.707  18.588  20.108  0.00  0.00    +0.432 A 
ATOM     57  O   UNL     1      48.845  17.575  19.445  0.00  0.00    -0.437 OA
BRANCH  52  53
ATOM     53  O   UNL     1      46.252  17.533  19.100  0.00  0.00    -0.471 OA
ATOM     54  H   UNL     1      47.077  17.045  19.232  0.00  0.00    +0.401 HD
ENDBRANCH  52  53
BRANCH  43  44
ATOM     44  O   UNL     1      43.912  21.467  20.374  0.00  0.00    -0.483 OA
ATOM     45  H   UNL     1      43.797  21.947  21.204  0.00  0.00    +0.399 HD
ENDBRANCH  43  44
BRANCH  35  36
ATOM     36  C   UNL     1      46.223  22.703  21.396  0.00  0.00    +0.082 C 
BRANCH  36  37
ATOM     37  C   UNL     1      44.936  23.422  20.985  0.00  0.00    +0.256 C 
BRANCH  37  40
ATOM     40  C   UNL     1      45.281  24.739  20.339  0.00  0.00    -0.165 C 
ATOM     41  C   UNL     1      46.178  25.717  21.054  0.00  0.00    +0.079 C 
ATOM     42  C   UNL     1      44.804  25.034  19.156  0.00  0.00    +0.030 C 
ENDBRANCH  37  40
BRANCH  37  38
ATOM     38  O   UNL     1      44.130  23.656  22.142  0.00  0.00    -0.555 OA
ATOM     39  H   UNL     1      44.596  24.103  22.862  0.00  0.00    +0.372 HD
ENDBRANCH  37  38
ENDBRANCH  36  37
ENDBRANCH  35  36
BRANCH  46  47
ATOM     47  C   UNL     1      43.790  18.909  19.202  0.00  0.00    +0.134 C 
BRANCH  47  48
ATOM     48  C   UNL     1      42.837  18.667  20.345  0.00  0.00    -0.061 C 
ATOM     49  C   UNL     1      41.612  19.127  20.285  0.00  0.00    -0.122 C 
ATOM     50  C   UNL     1      40.644  18.839  21.403  0.00  0.00    +0.074 C 
ATOM     51  C   UNL     1      41.172  19.946  19.099  0.00  0.00    +0.076 C 
ENDBRANCH  47  48
ENDBRANCH  46  47
ENDBRANCH  30  31
BRANCH  27  26
ATOM     26  O   UNL     1      54.453  16.168  21.927  0.00  0.00    -0.294 OA
BRANCH  26  25
ATOM     25  C   UNL     1      54.837  15.212  20.936  0.00  0.00    +0.173 C 
BRANCH  25  24
ATOM     24  C   UNL     1      55.114  13.865  21.608  0.00  0.00    +0.055 C 
BRANCH  24  23
ATOM     23  C   UNL     1      54.304  12.771  20.910  0.00  0.00    +0.007 C 
BRANCH  23  22
ATOM     22  C   UNL     1      55.255  11.810  20.195  0.00  0.00    +0.004 C 
BRANCH  22  21
ATOM     21  C   UNL     1      54.446  10.713  19.501  0.00  0.00    +0.001 C 
BRANCH  21  20
ATOM     20  C   UNL     1      53.024  11.213  19.243  0.00  0.00    +0.001 C 
BRANCH  20  19
ATOM     19  C   UNL     1      52.871  11.577  17.764  0.00  0.00    +0.000 C 
BRANCH  19  18
ATOM     18  C   UNL     1      52.133  10.451  17.036  0.00  0.00    +0.000 C 
BRANCH  18  17
ATOM     17  C   UNL     1      50.741  10.278  17.644  0.00  0.00    -0.000 C 
BRANCH  17  16
ATOM     16  C   UNL     1      49.743  11.165  16.896  0.00  0.00    +0.000 C 
BRANCH  16  15
ATOM     15  C   UNL     1      50.150  11.260  15.424  0.00  0.00    +0.000 C 
BRANCH  15  14
ATOM     14  C   UNL     1      49.975  12.701  14.939  0.00  0.00    +0.000 C 
BRANCH  14  13
ATOM     13  C   UNL     1      49.932  13.642  16.144  0.00  0.00    +0.000 C 
BRANCH  13  12
ATOM     12  C   UNL     1      51.211  14.482  16.181  0.00  0.00    +0.000 C 
BRANCH  12  11
ATOM     11  C   UNL     1      51.133  15.481  17.336  0.00  0.00    +0.000 C 
BRANCH  11  10
ATOM     10  C   UNL     1      51.783  14.874  18.581  0.00  0.00    +0.000 C 
BRANCH  10   9
ATOM      9  C   UNL     1      50.754  14.805  19.711  0.00  0.00    +0.000 C 
BRANCH   9   8
ATOM      8  C   UNL     1      50.433  13.341  20.021  0.00  0.00    +0.000 C 
BRANCH   8   7
ATOM      7  C   UNL     1      49.714  13.251  21.369  0.00  0.00    +0.000 C 
BRANCH   7   6
ATOM      6  C   UNL     1      48.333  13.900  21.253  0.00  0.00    +0.000 C 
BRANCH   6   5
ATOM      5  C   UNL     1      47.539  13.209  20.142  0.00  0.00    +0.000 C 
BRANCH   5   4
ATOM      4  C   UNL     1      46.501  14.182  19.578  0.00  0.00    -0.000 C 
BRANCH   4   3
ATOM      3  C   UNL     1      46.662  14.275  18.059  0.00  0.00    -0.000 C 
BRANCH   3   2
ATOM      1  C   UNL     1      45.314  12.314  17.294  0.00  0.00    +0.006 C 
ATOM      2  C   UNL     1      46.731  12.865  17.467  0.00  0.00    -0.006 C 
ENDBRANCH   3   2
ENDBRANCH   4   3
ENDBRANCH   5   4
ENDBRANCH   6   5
ENDBRANCH   7   6
ENDBRANCH   8   7
ENDBRANCH   9   8
ENDBRANCH  10   9
ENDBRANCH  11  10
ENDBRANCH  12  11
ENDBRANCH  13  12
ENDBRANCH  14  13
ENDBRANCH  15  14
ENDBRANCH  16  15
ENDBRANCH  17  16
ENDBRANCH  18  17
ENDBRANCH  19  18
ENDBRANCH  20  19
ENDBRANCH  21  20
ENDBRANCH  22  21
ENDBRANCH  23  22
ENDBRANCH  24  23
ENDBRANCH  25  24
BRANCH  25  60
ATOM     60  C   UNL     1      56.102  15.696  20.224  0.00  0.00    +0.161 C 
BRANCH  60  61
ATOM     61  O   UNL     1      56.395  14.825  19.129  0.00  0.00    -0.559 OA
ATOM     62  H   UNL     1      56.898  14.036  19.377  0.00  0.00    +0.380 HD
ENDBRANCH  60  61
ENDBRANCH  25  60
ENDBRANCH  26  25
ENDBRANCH  27  26
TORSDOF 36
ENDMDL
MODEL 6
REMARK VINA RESULT:      -3.2      2.629      5.905
REMARK  Name = ZINC95485925
REMARK  40 active torsions:
REMARK  status: ('A' for Active; 'I' for Inactive)
REMARK    1  A    between atoms: C1_1  and  C2_2
REMARK    2  A    between atoms: C2_2  and  C3_3
REMARK    3  A    between atoms: C3_3  and  C4_4
REMARK    4  A    between atoms: C4_4  and  C5_5
REMARK    5  A    between atoms: C5_5  and  C6_6
REMARK    6  A    between atoms: C6_6  and  C7_7
REMARK    7  A    between atoms: C7_7  and  C8_8
REMARK    8  A    between atoms: C8_8  and  C9_9
REMARK    9  A    between atoms: C9_9  and  C10_10
REMARK   10  A    between atoms: C10_10  and  C11_11
REMARK   11  A    between atoms: C11_11  and  C12_12
REMARK   12  A    between atoms: C12_12  and  C13_13
REMARK   13  A    between atoms: C13_13  and  C14_14
REMARK   14  A    between atoms: C14_14  and  C15_15
REMARK   15  A    between atoms: C15_15  and  C16_16
REMARK   16  A    between atoms: C16_16  and  C17_17
REMARK   17  A    between atoms: C17_17  and  C18_18
REMARK   18  A    between atoms: C18_18  and  C19_19
REMARK   19  A    between atoms: C19_19  and  C20_20
REMARK   20  A    between atoms: C20_20  and  C21_21
REMARK   21  A    between atoms: C21_21  and  C22_22
REMARK   22  A    between atoms: C22_22  and  C23_23
REMARK   23  A    between atoms: C23_23  and  C24_24
REMARK   24  A    between atoms: C24_24  and  C25_25
REMARK   25  A    between atoms: C25_25  and  C26_27
REMARK   26  A    between atoms: C25_25  and  O2_29
REMARK   27  A    between atoms: C26_27  and  O1_28
REMARK   28  A    between atoms: O2_29  and  C27_30
REMARK   29  A    between atoms: C30_33  and  C33_36
REMARK   30  A    between atoms: C36_40  and  C47_54
REMARK   31  A    between atoms: C37_41  and  O6_53
REMARK   32  A    between atoms: C38_42  and  C42_48
REMARK   33  A    between atoms: C39_43  and  O5_47
REMARK   34  A    between atoms: C42_48  and  C43_49
REMARK   35  A    between atoms: C44_50  and  C45_51
REMARK   36  A    between atoms: C44_50  and  C46_52
REMARK   37  A    between atoms: C47_54  and  C48_55
REMARK   38  A    between atoms: C48_55  and  C49_57
REMARK   39  A    between atoms: C48_55  and  O7_60
REMARK   40  A    between atoms: C49_57  and  C51_59
REMARK                            x       y       z     vdW  Elec       q    Type
REMARK                         _______ _______ _______ _____ _____    ______ ____
ROOT
ATOM     27  C   UNL     1      51.277  13.799  15.167  0.00  0.00    +0.141 A 
ATOM     28  C   UNL     1      51.950  14.943  15.572  0.00  0.00    -0.086 A 
ATOM     29  C   UNL     1      51.369  15.800  16.484  0.00  0.00    +0.061 A 
ATOM     30  C   UNL     1      50.105  15.517  16.997  0.00  0.00    -0.070 A 
ATOM     58  C   UNL     1      49.431  14.367  16.589  0.00  0.00    +0.084 A 
ATOM     59  C   UNL     1      50.015  13.516  15.673  0.00  0.00    -0.017 A 
ENDROOT
BRANCH  30  31
ATOM     31  C   UNL     1      49.478  16.437  17.977  0.00  0.00    -0.229 A 
ATOM     32  C   UNL     1      50.153  16.847  19.081  0.00  0.00    +0.318 A 
ATOM     33  O   UNL     1      49.630  17.686  19.978  0.00  0.00    -0.214 OA
ATOM     34  C   UNL     1      48.308  17.942  20.022  0.00  0.00    +0.168 A 
ATOM     35  C   UNL     1      47.744  18.547  21.136  0.00  0.00    -0.135 A 
ATOM     43  C   UNL     1      46.385  18.813  21.169  0.00  0.00    +0.200 A 
ATOM     46  C   UNL     1      45.569  18.482  20.092  0.00  0.00    -0.152 A 
ATOM     52  C   UNL     1      46.110  17.875  18.974  0.00  0.00    +0.214 A 
ATOM     55  C   UNL     1      47.482  17.596  18.939  0.00  0.00    -0.253 A 
ATOM     56  C   UNL     1      48.103  16.937  17.776  0.00  0.00    +0.432 A 
ATOM     57  O   UNL     1      47.518  16.808  16.714  0.00  0.00    -0.437 OA
BRANCH  52  53
ATOM     53  O   UNL     1      45.318  17.552  17.920  0.00  0.00    -0.471 OA
ATOM     54  H   UNL     1      44.466  18.009  17.913  0.00  0.00    +0.401 HD
ENDBRANCH  52  53
BRANCH  43  44
ATOM     44  O   UNL     1      45.842  19.405  22.264  0.00  0.00    -0.483 OA
ATOM     45  H   UNL     1      46.443  19.461  23.019  0.00  0.00    +0.399 HD
ENDBRANCH  43  44
BRANCH  35  36
ATOM     36  C   UNL     1      48.611  18.916  22.313  0.00  0.00    +0.082 C 
BRANCH  36  37
ATOM     37  C   UNL     1      49.383  20.198  21.995  0.00  0.00    +0.256 C 
BRANCH  37  40
ATOM     40  C   UNL     1      48.513  21.119  21.178  0.00  0.00    -0.165 C 
ATOM     41  C   UNL     1      47.609  22.110  21.866  0.00  0.00    +0.079 C 
ATOM     42  C   UNL     1      48.542  21.059  19.870  0.00  0.00    +0.030 C 
ENDBRANCH  37  40
BRANCH  37  38
ATOM     38  O   UNL     1      50.560  19.875  21.252  0.00  0.00    -0.555 OA
ATOM     39  H   UNL     1      51.066  19.136  21.618  0.00  0.00    +0.372 HD
ENDBRANCH  37  38
ENDBRANCH  36  37
ENDBRANCH  35  36
BRANCH  46  47
ATOM     47  C   UNL     1      44.094  18.783  20.145  0.00  0.00    +0.134 C 
BRANCH  47  48
ATOM     48  C   UNL     1      43.868  20.244  19.847  0.00  0.00    -0.061 C 
ATOM     49  C   UNL     1      42.676  20.667  19.505  0.00  0.00    -0.122 C 
ATOM     50  C   UNL     1      42.439  22.135  19.261  0.00  0.00    +0.074 C 
ATOM     51  C   UNL     1      41.543  19.685  19.354  0.00  0.00    +0.076 C 
ENDBRANCH  47  48
ENDBRANCH  46  47
ENDBRANCH  30  31
BRANCH  27  26
ATOM     26  O   UNL     1      51.851  12.956  14.269  0.00  0.00    -0.294 OA
BRANCH  26  25
ATOM     25  C   UNL     1      50.994  12.005  13.633  0.00  0.00    +0.173 C 
BRANCH  25  24
ATOM     24  C   UNL     1      51.354  10.596  14.108  0.00  0.00    +0.055 C 
BRANCH  24  23
ATOM     23  C   UNL     1      52.624  10.653  14.959  0.00  0.00    +0.007 C 
BRANCH  23  22
ATOM     22  C   UNL     1      52.257  10.491  16.435  0.00  0.00    +0.004 C 
BRANCH  22  21
ATOM     21  C   UNL     1      53.530  10.280  17.257  0.00  0.00    +0.001 C 
BRANCH  21  20
ATOM     20  C   UNL     1      53.533  11.239  18.448  0.00  0.00    +0.001 C 
BRANCH  20  19
ATOM     19  C   UNL     1      52.375  12.230  18.310  0.00  0.00    +0.000 C 
BRANCH  19  18
ATOM     18  C   UNL     1      52.822  13.609  18.799  0.00  0.00    +0.000 C 
BRANCH  18  17
ATOM     17  C   UNL     1      54.188  13.491  19.476  0.00  0.00    -0.000 C 
BRANCH  17  16
ATOM     16  C   UNL     1      54.315  14.564  20.560  0.00  0.00    +0.000 C 
BRANCH  16  15
ATOM     15  C   UNL     1      54.097  13.927  21.935  0.00  0.00    +0.000 C 
BRANCH  15  14
ATOM     14  C   UNL     1      52.740  14.365  22.490  0.00  0.00    +0.000 C 
BRANCH  14  13
ATOM     13  C   UNL     1      51.786  13.169  22.504  0.00  0.00    +0.000 C 
BRANCH  13  12
ATOM     12  C   UNL     1      52.537  11.912  22.062  0.00  0.00    +0.000 C 
BRANCH  12  11
ATOM     11  C   UNL     1      51.533  10.807  21.728  0.00  0.00    +0.000 C 
BRANCH  11  10
ATOM     10  C   UNL     1      50.235  11.049  22.499  0.00  0.00    +0.000 C 
BRANCH  10   9
ATOM      9  C   UNL     1      49.039  10.775  21.584  0.00  0.00    +0.000 C 
BRANCH   9   8
ATOM      8  C   UNL     1      49.476  10.899  20.123  0.00  0.00    +0.000 C 
BRANCH   8   7
ATOM      7  C   UNL     1      48.873  12.169  19.517  0.00  0.00    +0.000 C 
BRANCH   7   6
ATOM      6  C   UNL     1      49.120  13.349  20.459  0.00  0.00    +0.000 C 
BRANCH   6   5
ATOM      5  C   UNL     1      47.930  14.309  20.394  0.00  0.00    +0.000 C 
BRANCH   5   4
ATOM      4  C   UNL     1      46.939  13.822  19.335  0.00  0.00    -0.000 C 
BRANCH   4   3
ATOM      3  C   UNL     1      45.605  13.482  20.003  0.00  0.00    -0.000 C 
BRANCH   3   2
ATOM      1  C   UNL     1      45.238  14.875  22.045  0.00  0.00    +0.006 C 
ATOM      2  C   UNL     1      44.965  14.762  20.544  0.00  0.00    -0.006 C 
ENDBRANCH   3   2
ENDBRANCH   4   3
ENDBRANCH   5   4
ENDBRANCH   6   5
ENDBRANCH   7   6
ENDBRANCH   8   7
ENDBRANCH   9   8
ENDBRANCH  10   9
ENDBRANCH  11  10
ENDBRANCH  12  11
ENDBRANCH  13  12
ENDBRANCH  14  13
ENDBRANCH  15  14
ENDBRANCH  16  15
ENDBRANCH  17  16
ENDBRANCH  18  17
ENDBRANCH  19  18
ENDBRANCH  20  19
ENDBRANCH  21  20
ENDBRANCH  22  21
ENDBRANCH  23  22
ENDBRANCH  24  23
ENDBRANCH  25  24
BRANCH  25  60
ATOM     60  C   UNL     1      51.174  12.093  12.116  0.00  0.00    +0.161 C 
BRANCH  60  61
ATOM     61  O   UNL     1      51.475  13.441  11.749  0.00  0.00    -0.559 OA
ATOM     62  H   UNL     1      50.695  14.005  11.645  0.00  0.00    +0.380 HD
ENDBRANCH  60  61
ENDBRANCH  25  60
ENDBRANCH  26  25
ENDBRANCH  27  26
TORSDOF 36
ENDMDL
MODEL 7
REMARK VINA RESULT:      -3.1      2.630      6.047
REMARK  Name = ZINC95485925
REMARK  40 active torsions:
REMARK  status: ('A' for Active; 'I' for Inactive)
REMARK    1  A    between atoms: C1_1  and  C2_2
REMARK    2  A    between atoms: C2_2  and  C3_3
REMARK    3  A    between atoms: C3_3  and  C4_4
REMARK    4  A    between atoms: C4_4  and  C5_5
REMARK    5  A    between atoms: C5_5  and  C6_6
REMARK    6  A    between atoms: C6_6  and  C7_7
REMARK    7  A    between atoms: C7_7  and  C8_8
REMARK    8  A    between atoms: C8_8  and  C9_9
REMARK    9  A    between atoms: C9_9  and  C10_10
REMARK   10  A    between atoms: C10_10  and  C11_11
REMARK   11  A    between atoms: C11_11  and  C12_12
REMARK   12  A    between atoms: C12_12  and  C13_13
REMARK   13  A    between atoms: C13_13  and  C14_14
REMARK   14  A    between atoms: C14_14  and  C15_15
REMARK   15  A    between atoms: C15_15  and  C16_16
REMARK   16  A    between atoms: C16_16  and  C17_17
REMARK   17  A    between atoms: C17_17  and  C18_18
REMARK   18  A    between atoms: C18_18  and  C19_19
REMARK   19  A    between atoms: C19_19  and  C20_20
REMARK   20  A    between atoms: C20_20  and  C21_21
REMARK   21  A    between atoms: C21_21  and  C22_22
REMARK   22  A    between atoms: C22_22  and  C23_23
REMARK   23  A    between atoms: C23_23  and  C24_24
REMARK   24  A    between atoms: C24_24  and  C25_25
REMARK   25  A    between atoms: C25_25  and  C26_27
REMARK   26  A    between atoms: C25_25  and  O2_29
REMARK   27  A    between atoms: C26_27  and  O1_28
REMARK   28  A    between atoms: O2_29  and  C27_30
REMARK   29  A    between atoms: C30_33  and  C33_36
REMARK   30  A    between atoms: C36_40  and  C47_54
REMARK   31  A    between atoms: C37_41  and  O6_53
REMARK   32  A    between atoms: C38_42  and  C42_48
REMARK   33  A    between atoms: C39_43  and  O5_47
REMARK   34  A    between atoms: C42_48  and  C43_49
REMARK   35  A    between atoms: C44_50  and  C45_51
REMARK   36  A    between atoms: C44_50  and  C46_52
REMARK   37  A    between atoms: C47_54  and  C48_55
REMARK   38  A    between atoms: C48_55  and  C49_57
REMARK   39  A    between atoms: C48_55  and  O7_60
REMARK   40  A    between atoms: C49_57  and  C51_59
REMARK                            x       y       z     vdW  Elec       q    Type
REMARK                         _______ _______ _______ _____ _____    ______ ____
ROOT
ATOM     27  C   UNL     1      51.457  13.966  15.161  0.00  0.00    +0.141 A 
ATOM     28  C   UNL     1      52.178  15.141  15.320  0.00  0.00    -0.086 A 
ATOM     29  C   UNL     1      51.750  16.098  16.217  0.00  0.00    +0.061 A 
ATOM     30  C   UNL     1      50.592  15.885  16.962  0.00  0.00    -0.070 A 
ATOM     58  C   UNL     1      49.870  14.704  16.800  0.00  0.00    +0.084 A 
ATOM     59  C   UNL     1      50.301  13.752  15.899  0.00  0.00    -0.017 A 
ENDROOT
BRANCH  30  31
ATOM     31  C   UNL     1      50.130  16.912  17.927  0.00  0.00    -0.229 A 
ATOM     32  C   UNL     1      50.914  17.298  18.966  0.00  0.00    +0.318 A 
ATOM     33  O   UNL     1      50.541  18.230  19.845  0.00  0.00    -0.214 OA
ATOM     34  C   UNL     1      49.259  18.629  19.953  0.00  0.00    +0.168 A 
ATOM     35  C   UNL     1      48.834  19.344  21.064  0.00  0.00    -0.135 A 
ATOM     43  C   UNL     1      47.515  19.758  21.162  0.00  0.00    +0.200 A 
ATOM     46  C   UNL     1      46.601  19.466  20.155  0.00  0.00    -0.152 A 
ATOM     52  C   UNL     1      47.003  18.752  19.041  0.00  0.00    +0.214 A 
ATOM     55  C   UNL     1      48.333  18.325  18.940  0.00  0.00    -0.253 A 
ATOM     56  C   UNL     1      48.805  17.549  17.780  0.00  0.00    +0.432 A 
ATOM     57  O   UNL     1      48.143  17.435  16.763  0.00  0.00    -0.437 OA
BRANCH  52  53
ATOM     53  O   UNL     1      46.116  18.468  18.054  0.00  0.00    -0.471 OA
ATOM     54  H   UNL     1      45.939  19.209  17.458  0.00  0.00    +0.401 HD
ENDBRANCH  52  53
BRANCH  43  44
ATOM     44  O   UNL     1      47.109  20.455  22.255  0.00  0.00    -0.483 OA
ATOM     45  H   UNL     1      47.542  21.313  22.356  0.00  0.00    +0.399 HD
ENDBRANCH  43  44
BRANCH  35  36
ATOM     36  C   UNL     1      49.809  19.672  22.167  0.00  0.00    +0.082 C 
BRANCH  36  37
ATOM     37  C   UNL     1      50.568  20.951  21.812  0.00  0.00    +0.256 C 
BRANCH  37  40
ATOM     40  C   UNL     1      52.012  20.808  22.219  0.00  0.00    -0.165 C 
ATOM     41  C   UNL     1      52.641  19.440  22.299  0.00  0.00    +0.079 C 
ATOM     42  C   UNL     1      52.723  21.872  22.502  0.00  0.00    +0.030 C 
ENDBRANCH  37  40
BRANCH  37  38
ATOM     38  O   UNL     1      49.987  22.059  22.504  0.00  0.00    -0.555 OA
ATOM     39  H   UNL     1      49.318  22.535  21.993  0.00  0.00    +0.372 HD
ENDBRANCH  37  38
ENDBRANCH  36  37
ENDBRANCH  35  36
BRANCH  46  47
ATOM     47  C   UNL     1      45.173  19.928  20.277  0.00  0.00    +0.134 C 
BRANCH  47  48
ATOM     48  C   UNL     1      44.993  21.215  19.512  0.00  0.00    -0.061 C 
ATOM     49  C   UNL     1      44.799  22.339  20.157  0.00  0.00    -0.122 C 
ATOM     50  C   UNL     1      44.674  23.633  19.394  0.00  0.00    +0.074 C 
ATOM     51  C   UNL     1      44.699  22.338  21.661  0.00  0.00    +0.076 C 
ENDBRANCH  47  48
ENDBRANCH  46  47
ENDBRANCH  30  31
BRANCH  27  26
ATOM     26  O   UNL     1      51.881  13.024  14.277  0.00  0.00    -0.294 OA
BRANCH  26  25
ATOM     25  C   UNL     1      50.885  12.164  13.720  0.00  0.00    +0.173 C 
BRANCH  25  24
ATOM     24  C   UNL     1      51.141  10.725  14.176  0.00  0.00    +0.055 C 
BRANCH  24  23
ATOM     23  C   UNL     1      52.569  10.606  14.710  0.00  0.00    +0.007 C 
BRANCH  23  22
ATOM     22  C   UNL     1      52.556  10.734  16.234  0.00  0.00    +0.004 C 
BRANCH  22  21
ATOM     21  C   UNL     1      53.911  10.297  16.795  0.00  0.00    +0.001 C 
BRANCH  21  20
ATOM     20  C   UNL     1      54.037  10.764  18.246  0.00  0.00    +0.001 C 
BRANCH  20  19
ATOM     19  C   UNL     1      52.850  11.663  18.598  0.00  0.00    +0.000 C 
BRANCH  19  18
ATOM     18  C   UNL     1      53.364  13.017  19.093  0.00  0.00    +0.000 C 
BRANCH  18  17
ATOM     17  C   UNL     1      54.590  12.802  19.982  0.00  0.00    -0.000 C 
BRANCH  17  16
ATOM     16  C   UNL     1      55.228  14.155  20.307  0.00  0.00    +0.000 C 
BRANCH  16  15
ATOM     15  C   UNL     1      54.576  14.737  21.563  0.00  0.00    +0.000 C 
BRANCH  15  14
ATOM     14  C   UNL     1      53.535  15.783  21.159  0.00  0.00    +0.000 C 
BRANCH  14  13
ATOM     13  C   UNL     1      52.131  15.201  21.337  0.00  0.00    +0.000 C 
BRANCH  13  12
ATOM     12  C   UNL     1      52.157  14.137  22.436  0.00  0.00    +0.000 C 
BRANCH  12  11
ATOM     11  C   UNL     1      50.810  13.414  22.477  0.00  0.00    +0.000 C 
BRANCH  11  10
ATOM     10  C   UNL     1      49.781  14.204  21.668  0.00  0.00    +0.000 C 
BRANCH  10   9
ATOM      9  C   UNL     1      48.953  13.240  20.814  0.00  0.00    +0.000 C 
BRANCH   9   8
ATOM      8  C   UNL     1      49.759  11.965  20.557  0.00  0.00    +0.000 C 
BRANCH   8   7
ATOM      7  C   UNL     1      49.618  11.561  19.088  0.00  0.00    +0.000 C 
BRANCH   7   6
ATOM      6  C   UNL     1      48.261  10.886  18.874  0.00  0.00    +0.000 C 
BRANCH   6   5
ATOM      5  C   UNL     1      47.768  11.173  17.454  0.00  0.00    +0.000 C 
BRANCH   5   4
ATOM      4  C   UNL     1      47.078  12.539  17.420  0.00  0.00    -0.000 C 
BRANCH   4   3
ATOM      3  C   UNL     1      46.354  12.776  18.747  0.00  0.00    -0.000 C 
BRANCH   3   2
ATOM      1  C   UNL     1      46.367  15.194  19.379  0.00  0.00    +0.006 C 
ATOM      2  C   UNL     1      45.574  14.091  18.674  0.00  0.00    -0.006 C 
ENDBRANCH   3   2
ENDBRANCH   4   3
ENDBRANCH   5   4
ENDBRANCH   6   5
ENDBRANCH   7   6
ENDBRANCH   8   7
ENDBRANCH   9   8
ENDBRANCH  10   9
ENDBRANCH  11  10
ENDBRANCH  12  11
ENDBRANCH  13  12
ENDBRANCH  14  13
ENDBRANCH  15  14
ENDBRANCH  16  15
ENDBRANCH  17  16
ENDBRANCH  18  17
ENDBRANCH  19  18
ENDBRANCH  20  19
ENDBRANCH  21  20
ENDBRANCH  22  21
ENDBRANCH  23  22
ENDBRANCH  24  23
ENDBRANCH  25  24
BRANCH  25  60
ATOM     60  C   UNL     1      50.947  12.234  12.193  0.00  0.00    +0.161 C 
BRANCH  60  61
ATOM     61  O   UNL     1      51.052  13.599  11.782  0.00  0.00    -0.559 OA
ATOM     62  H   UNL     1      50.253  13.945  11.360  0.00  0.00    +0.380 HD
ENDBRANCH  60  61
ENDBRANCH  25  60
ENDBRANCH  26  25
ENDBRANCH  27  26
TORSDOF 36
ENDMDL
MODEL 8
REMARK VINA RESULT:      -3.0      1.953      5.814
REMARK  Name = ZINC95485925
REMARK  40 active torsions:
REMARK  status: ('A' for Active; 'I' for Inactive)
REMARK    1  A    between atoms: C1_1  and  C2_2
REMARK    2  A    between atoms: C2_2  and  C3_3
REMARK    3  A    between atoms: C3_3  and  C4_4
REMARK    4  A    between atoms: C4_4  and  C5_5
REMARK    5  A    between atoms: C5_5  and  C6_6
REMARK    6  A    between atoms: C6_6  and  C7_7
REMARK    7  A    between atoms: C7_7  and  C8_8
REMARK    8  A    between atoms: C8_8  and  C9_9
REMARK    9  A    between atoms: C9_9  and  C10_10
REMARK   10  A    between atoms: C10_10  and  C11_11
REMARK   11  A    between atoms: C11_11  and  C12_12
REMARK   12  A    between atoms: C12_12  and  C13_13
REMARK   13  A    between atoms: C13_13  and  C14_14
REMARK   14  A    between atoms: C14_14  and  C15_15
REMARK   15  A    between atoms: C15_15  and  C16_16
REMARK   16  A    between atoms: C16_16  and  C17_17
REMARK   17  A    between atoms: C17_17  and  C18_18
REMARK   18  A    between atoms: C18_18  and  C19_19
REMARK   19  A    between atoms: C19_19  and  C20_20
REMARK   20  A    between atoms: C20_20  and  C21_21
REMARK   21  A    between atoms: C21_21  and  C22_22
REMARK   22  A    between atoms: C22_22  and  C23_23
REMARK   23  A    between atoms: C23_23  and  C24_24
REMARK   24  A    between atoms: C24_24  and  C25_25
REMARK   25  A    between atoms: C25_25  and  C26_27
REMARK   26  A    between atoms: C25_25  and  O2_29
REMARK   27  A    between atoms: C26_27  and  O1_28
REMARK   28  A    between atoms: O2_29  and  C27_30
REMARK   29  A    between atoms: C30_33  and  C33_36
REMARK   30  A    between atoms: C36_40  and  C47_54
REMARK   31  A    between atoms: C37_41  and  O6_53
REMARK   32  A    between atoms: C38_42  and  C42_48
REMARK   33  A    between atoms: C39_43  and  O5_47
REMARK   34  A    between atoms: C42_48  and  C43_49
REMARK   35  A    between atoms: C44_50  and  C45_51
REMARK   36  A    between atoms: C44_50  and  C46_52
REMARK   37  A    between atoms: C47_54  and  C48_55
REMARK   38  A    between atoms: C48_55  and  C49_57
REMARK   39  A    between atoms: C48_55  and  O7_60
REMARK   40  A    between atoms: C49_57  and  C51_59
REMARK                            x       y       z     vdW  Elec       q    Type
REMARK                         _______ _______ _______ _____ _____    ______ ____
ROOT
ATOM     27  C   UNL     1      51.605  14.411  20.941  0.00  0.00    +0.141 A 
ATOM     28  C   UNL     1      51.079  15.210  19.935  0.00  0.00    -0.086 A 
ATOM     29  C   UNL     1      50.034  16.068  20.209  0.00  0.00    +0.061 A 
ATOM     30  C   UNL     1      49.507  16.132  21.497  0.00  0.00    -0.070 A 
ATOM     58  C   UNL     1      50.037  15.329  22.505  0.00  0.00    +0.084 A 
ATOM     59  C   UNL     1      51.079  14.470  22.224  0.00  0.00    -0.017 A 
ENDROOT
BRANCH  30  31
ATOM     31  C   UNL     1      48.383  17.053  21.795  0.00  0.00    -0.229 A 
ATOM     32  C   UNL     1      47.116  16.587  21.939  0.00  0.00    +0.318 A 
ATOM     33  O   UNL     1      46.082  17.381  22.223  0.00  0.00    -0.214 OA
ATOM     34  C   UNL     1      46.157  18.719  22.082  0.00  0.00    +0.168 A 
ATOM     35  C   UNL     1      45.004  19.492  22.067  0.00  0.00    -0.135 A 
ATOM     43  C   UNL     1      45.092  20.868  21.930  0.00  0.00    +0.200 A 
ATOM     46  C   UNL     1      46.329  21.494  21.809  0.00  0.00    -0.152 A 
ATOM     52  C   UNL     1      47.489  20.741  21.818  0.00  0.00    +0.214 A 
ATOM     55  C   UNL     1      47.406  19.350  21.948  0.00  0.00    -0.253 A 
ATOM     56  C   UNL     1      48.613  18.504  21.948  0.00  0.00    +0.432 A 
ATOM     57  O   UNL     1      49.732  18.972  22.064  0.00  0.00    -0.437 OA
BRANCH  52  53
ATOM     53  O   UNL     1      48.698  21.348  21.703  0.00  0.00    -0.471 OA
ATOM     54  H   UNL     1      49.449  20.741  21.752  0.00  0.00    +0.401 HD
ENDBRANCH  52  53
BRANCH  43  44
ATOM     44  O   UNL     1      43.958  21.615  21.915  0.00  0.00    -0.483 OA
ATOM     45  H   UNL     1      44.107  22.558  22.061  0.00  0.00    +0.399 HD
ENDBRANCH  43  44
BRANCH  35  36
ATOM     36  C   UNL     1      43.654  18.834  22.199  0.00  0.00    +0.082 C 
BRANCH  36  37
ATOM     37  C   UNL     1      43.161  18.403  20.816  0.00  0.00    +0.256 C 
BRANCH  37  40
ATOM     40  C   UNL     1      41.742  18.870  20.621  0.00  0.00    -0.165 C 
ATOM     41  C   UNL     1      41.364  19.636  19.379  0.00  0.00    +0.079 C 
ATOM     42  C   UNL     1      40.835  18.610  21.529  0.00  0.00    +0.030 C 
ENDBRANCH  37  40
BRANCH  37  38
ATOM     38  O   UNL     1      43.210  16.978  20.715  0.00  0.00    -0.555 OA
ATOM     39  H   UNL     1      42.902  16.633  19.866  0.00  0.00    +0.372 HD
ENDBRANCH  37  38
ENDBRANCH  36  37
ENDBRANCH  35  36
BRANCH  46  47
ATOM     47  C   UNL     1      46.404  22.991  21.666  0.00  0.00    +0.134 C 
BRANCH  47  48
ATOM     48  C   UNL     1      45.639  23.418  20.438  0.00  0.00    -0.061 C 
ATOM     49  C   UNL     1      45.469  24.692  20.183  0.00  0.00    -0.122 C 
ATOM     50  C   UNL     1      44.753  25.118  18.927  0.00  0.00    +0.074 C 
ATOM     51  C   UNL     1      45.988  25.730  21.144  0.00  0.00    +0.076 C 
ENDBRANCH  47  48
ENDBRANCH  46  47
ENDBRANCH  30  31
BRANCH  27  26
ATOM     26  O   UNL     1      52.635  13.567  20.668  0.00  0.00    -0.294 OA
BRANCH  26  25
ATOM     25  C   UNL     1      53.855  14.158  20.214  0.00  0.00    +0.173 C 
BRANCH  25  24
ATOM     24  C   UNL     1      54.745  14.477  21.417  0.00  0.00    +0.055 C 
BRANCH  24  23
ATOM     23  C   UNL     1      53.963  15.326  22.420  0.00  0.00    +0.007 C 
BRANCH  23  22
ATOM     22  C   UNL     1      54.309  16.802  22.220  0.00  0.00    +0.004 C 
BRANCH  22  21
ATOM     21  C   UNL     1      53.059  17.655  22.445  0.00  0.00    +0.001 C 
BRANCH  21  20
ATOM     20  C   UNL     1      52.845  18.574  21.241  0.00  0.00    +0.001 C 
BRANCH  20  19
ATOM     19  C   UNL     1      52.671  20.016  21.724  0.00  0.00    +0.000 C 
BRANCH  19  18
ATOM     18  C   UNL     1      52.339  20.917  20.532  0.00  0.00    +0.000 C 
BRANCH  18  17
ATOM     17  C   UNL     1      51.873  20.056  19.357  0.00  0.00    -0.000 C 
BRANCH  17  16
ATOM     16  C   UNL     1      50.694  20.740  18.661  0.00  0.00    +0.000 C 
BRANCH  16  15
ATOM     15  C   UNL     1      49.504  19.780  18.613  0.00  0.00    +0.000 C 
BRANCH  15  14
ATOM     14  C   UNL     1      49.932  18.470  17.948  0.00  0.00    +0.000 C 
BRANCH  14  13
ATOM     13  C   UNL     1      48.704  17.774  17.354  0.00  0.00    +0.000 C 
BRANCH  13  12
ATOM     12  C   UNL     1      47.501  17.991  18.275  0.00  0.00    +0.000 C 
BRANCH  12  11
ATOM     11  C   UNL     1      46.337  17.118  17.806  0.00  0.00    +0.000 C 
BRANCH  11  10
ATOM     10  C   UNL     1      46.033  16.059  18.867  0.00  0.00    +0.000 C 
BRANCH  10   9
ATOM      9  C   UNL     1      46.797  14.774  18.540  0.00  0.00    +0.000 C 
BRANCH   9   8
ATOM      8  C   UNL     1      45.863  13.572  18.694  0.00  0.00    +0.000 C 
BRANCH   8   7
ATOM      7  C   UNL     1      45.753  12.838  17.355  0.00  0.00    +0.000 C 
BRANCH   7   6
ATOM      6  C   UNL     1      47.080  12.952  16.602  0.00  0.00    +0.000 C 
BRANCH   6   5
ATOM      5  C   UNL     1      47.847  11.634  16.719  0.00  0.00    +0.000 C 
BRANCH   5   4
ATOM      4  C   UNL     1      49.090  11.686  15.828  0.00  0.00    -0.000 C 
BRANCH   4   3
ATOM      3  C   UNL     1      49.534  13.140  15.657  0.00  0.00    -0.000 C 
BRANCH   3   2
ATOM      1  C   UNL     1      51.291  14.753  16.406  0.00  0.00    +0.006 C 
ATOM      2  C   UNL     1      50.992  13.283  16.101  0.00  0.00    -0.006 C 
ENDBRANCH   3   2
ENDBRANCH   4   3
ENDBRANCH   5   4
ENDBRANCH   6   5
ENDBRANCH   7   6
ENDBRANCH   8   7
ENDBRANCH   9   8
ENDBRANCH  10   9
ENDBRANCH  11  10
ENDBRANCH  12  11
ENDBRANCH  13  12
ENDBRANCH  14  13
ENDBRANCH  15  14
ENDBRANCH  16  15
ENDBRANCH  17  16
ENDBRANCH  18  17
ENDBRANCH  19  18
ENDBRANCH  20  19
ENDBRANCH  21  20
ENDBRANCH  22  21
ENDBRANCH  23  22
ENDBRANCH  24  23
ENDBRANCH  25  24
BRANCH  25  60
ATOM     60  C   UNL     1      53.544  15.448  19.452  0.00  0.00    +0.161 C 
BRANCH  60  61
ATOM     61  O   UNL     1      54.757  15.998  18.933  0.00  0.00    -0.559 OA
ATOM     62  H   UNL     1      54.986  16.863  19.300  0.00  0.00    +0.380 HD
ENDBRANCH  60  61
ENDBRANCH  25  60
ENDBRANCH  26  25
ENDBRANCH  27  26
TORSDOF 36
ENDMDL
MODEL 9
REMARK VINA RESULT:      -2.7      2.611      6.395
REMARK  Name = ZINC95485925
REMARK  40 active torsions:
REMARK  status: ('A' for Active; 'I' for Inactive)
REMARK    1  A    between atoms: C1_1  and  C2_2
REMARK    2  A    between atoms: C2_2  and  C3_3
REMARK    3  A    between atoms: C3_3  and  C4_4
REMARK    4  A    between atoms: C4_4  and  C5_5
REMARK    5  A    between atoms: C5_5  and  C6_6
REMARK    6  A    between atoms: C6_6  and  C7_7
REMARK    7  A    between atoms: C7_7  and  C8_8
REMARK    8  A    between atoms: C8_8  and  C9_9
REMARK    9  A    between atoms: C9_9  and  C10_10
REMARK   10  A    between atoms: C10_10  and  C11_11
REMARK   11  A    between atoms: C11_11  and  C12_12
REMARK   12  A    between atoms: C12_12  and  C13_13
REMARK   13  A    between atoms: C13_13  and  C14_14
REMARK   14  A    between atoms: C14_14  and  C15_15
REMARK   15  A    between atoms: C15_15  and  C16_16
REMARK   16  A    between atoms: C16_16  and  C17_17
REMARK   17  A    between atoms: C17_17  and  C18_18
REMARK   18  A    between atoms: C18_18  and  C19_19
REMARK   19  A    between atoms: C19_19  and  C20_20
REMARK   20  A    between atoms: C20_20  and  C21_21
REMARK   21  A    between atoms: C21_21  and  C22_22
REMARK   22  A    between atoms: C22_22  and  C23_23
REMARK   23  A    between atoms: C23_23  and  C24_24
REMARK   24  A    between atoms: C24_24  and  C25_25
REMARK   25  A    between atoms: C25_25  and  C26_27
REMARK   26  A    between atoms: C25_25  and  O2_29
REMARK   27  A    between atoms: C26_27  and  O1_28
REMARK   28  A    between atoms: O2_29  and  C27_30
REMARK   29  A    between atoms: C30_33  and  C33_36
REMARK   30  A    between atoms: C36_40  and  C47_54
REMARK   31  A    between atoms: C37_41  and  O6_53
REMARK   32  A    between atoms: C38_42  and  C42_48
REMARK   33  A    between atoms: C39_43  and  O5_47
REMARK   34  A    between atoms: C42_48  and  C43_49
REMARK   35  A    between atoms: C44_50  and  C45_51
REMARK   36  A    between atoms: C44_50  and  C46_52
REMARK   37  A    between atoms: C47_54  and  C48_55
REMARK   38  A    between atoms: C48_55  and  C49_57
REMARK   39  A    between atoms: C48_55  and  O7_60
REMARK   40  A    between atoms: C49_57  and  C51_59
REMARK                            x       y       z     vdW  Elec       q    Type
REMARK                         _______ _______ _______ _____ _____    ______ ____
ROOT
ATOM     27  C   UNL     1      51.534  13.824  14.873  0.00  0.00    +0.141 A 
ATOM     28  C   UNL     1      52.241  15.014  14.976  0.00  0.00    -0.086 A 
ATOM     29  C   UNL     1      51.844  15.977  15.880  0.00  0.00    +0.061 A 
ATOM     30  C   UNL     1      50.732  15.755  16.690  0.00  0.00    -0.070 A 
ATOM     58  C   UNL     1      50.024  14.559  16.585  0.00  0.00    +0.084 A 
ATOM     59  C   UNL     1      50.423  13.601  15.676  0.00  0.00    -0.017 A 
ENDROOT
BRANCH  30  31
ATOM     31  C   UNL     1      50.304  16.789  17.663  0.00  0.00    -0.229 A 
ATOM     32  C   UNL     1      51.079  17.108  18.731  0.00  0.00    +0.318 A 
ATOM     33  O   UNL     1      50.737  18.044  19.619  0.00  0.00    -0.214 OA
ATOM     34  C   UNL     1      49.477  18.515  19.701  0.00  0.00    +0.168 A 
ATOM     35  C   UNL     1      49.064  19.232  20.815  0.00  0.00    -0.135 A 
ATOM     43  C   UNL     1      47.769  19.720  20.886  0.00  0.00    +0.200 A 
ATOM     46  C   UNL     1      46.869  19.503  19.848  0.00  0.00    -0.152 A 
ATOM     52  C   UNL     1      47.260  18.788  18.731  0.00  0.00    +0.214 A 
ATOM     55  C   UNL     1      48.564  18.285  18.657  0.00  0.00    -0.253 A 
ATOM     56  C   UNL     1      49.023  17.505  17.494  0.00  0.00    +0.432 A 
ATOM     57  O   UNL     1      48.384  17.450  16.458  0.00  0.00    -0.437 OA
BRANCH  52  53
ATOM     53  O   UNL     1      46.385  18.576  17.715  0.00  0.00    -0.471 OA
ATOM     54  H   UNL     1      45.471  18.449  18.002  0.00  0.00    +0.401 HD
ENDBRANCH  52  53
BRANCH  43  44
ATOM     44  O   UNL     1      47.374  20.419  21.982  0.00  0.00    -0.483 OA
ATOM     45  H   UNL     1      46.416  20.452  22.101  0.00  0.00    +0.399 HD
ENDBRANCH  43  44
BRANCH  35  36
ATOM     36  C   UNL     1      50.025  19.480  21.950  0.00  0.00    +0.082 C 
BRANCH  36  37
ATOM     37  C   UNL     1      50.759  20.802  21.716  0.00  0.00    +0.256 C 
BRANCH  37  40
ATOM     40  C   UNL     1      52.181  20.679  22.198  0.00  0.00    -0.165 C 
ATOM     41  C   UNL     1      52.813  19.318  22.341  0.00  0.00    +0.079 C 
ATOM     42  C   UNL     1      52.870  21.754  22.491  0.00  0.00    +0.030 C 
ENDBRANCH  37  40
BRANCH  37  38
ATOM     38  O   UNL     1      50.102  21.847  22.438  0.00  0.00    -0.555 OA
ATOM     39  H   UNL     1      49.137  21.805  22.399  0.00  0.00    +0.372 HD
ENDBRANCH  37  38
ENDBRANCH  36  37
ENDBRANCH  35  36
BRANCH  46  47
ATOM     47  C   UNL     1      45.467  20.046  19.942  0.00  0.00    +0.134 C 
BRANCH  47  48
ATOM     48  C   UNL     1      45.456  21.489  19.506  0.00  0.00    -0.061 C 
ATOM     49  C   UNL     1      44.320  22.081  19.230  0.00  0.00    -0.122 C 
ATOM     50  C   UNL     1      44.305  23.539  18.847  0.00  0.00    +0.074 C 
ATOM     51  C   UNL     1      43.030  21.305  19.294  0.00  0.00    +0.076 C 
ENDBRANCH  47  48
ENDBRANCH  46  47
ENDBRANCH  30  31
BRANCH  27  26
ATOM     26  O   UNL     1      51.927  12.877  13.982  0.00  0.00    -0.294 OA
BRANCH  26  25
ATOM     25  C   UNL     1      50.926  11.968  13.518  0.00  0.00    +0.173 C 
BRANCH  25  24
ATOM     24  C   UNL     1      51.138  10.600  14.171  0.00  0.00    +0.055 C 
BRANCH  24  23
ATOM     23  C   UNL     1      52.456  10.603  14.946  0.00  0.00    +0.007 C 
BRANCH  23  22
ATOM     22  C   UNL     1      52.185  10.936  16.414  0.00  0.00    +0.004 C 
BRANCH  22  21
ATOM     21  C   UNL     1      53.331  10.406  17.278  0.00  0.00    +0.001 C 
BRANCH  21  20
ATOM     20  C   UNL     1      52.994  10.614  18.756  0.00  0.00    +0.001 C 
BRANCH  20  19
ATOM     19  C   UNL     1      51.568  11.153  18.883  0.00  0.00    +0.000 C 
BRANCH  19  18
ATOM     18  C   UNL     1      51.613  12.621  19.314  0.00  0.00    +0.000 C 
BRANCH  18  17
ATOM     17  C   UNL     1      52.364  12.740  20.641  0.00  0.00    -0.000 C 
BRANCH  17  16
ATOM     16  C   UNL     1      52.094  14.113  21.259  0.00  0.00    +0.000 C 
BRANCH  16  15
ATOM     15  C   UNL     1      50.725  14.104  21.942  0.00  0.00    +0.000 C 
BRANCH  15  14
ATOM     14  C   UNL     1      49.923  15.327  21.492  0.00  0.00    +0.000 C 
BRANCH  14  13
ATOM     13  C   UNL     1      48.796  14.882  20.557  0.00  0.00    +0.000 C 
BRANCH  13  12
ATOM     12  C   UNL     1      48.279  13.510  20.998  0.00  0.00    +0.000 C 
BRANCH  12  11
ATOM     11  C   UNL     1      47.044  13.141  20.176  0.00  0.00    +0.000 C 
BRANCH  11  10
ATOM     10  C   UNL     1      47.137  13.793  18.795  0.00  0.00    +0.000 C 
BRANCH  10   9
ATOM      9  C   UNL     1      46.860  12.744  17.716  0.00  0.00    +0.000 C 
BRANCH   9   8
ATOM      8  C   UNL     1      47.333  11.372  18.203  0.00  0.00    +0.000 C 
BRANCH   8   7
ATOM      7  C   UNL     1      48.293  10.769  17.175  0.00  0.00    +0.000 C 
BRANCH   7   6
ATOM      6  C   UNL     1      47.668  10.860  15.781  0.00  0.00    +0.000 C 
BRANCH   6   5
ATOM      5  C   UNL     1      46.200  10.435  15.853  0.00  0.00    +0.000 C 
BRANCH   5   4
ATOM      4  C   UNL     1      45.625  10.346  14.437  0.00  0.00    -0.000 C 
BRANCH   4   3
ATOM      3  C   UNL     1      44.099  10.276  14.511  0.00  0.00    -0.000 C 
BRANCH   3   2
ATOM      1  C   UNL     1      42.166  11.036  15.901  0.00  0.00    +0.006 C 
ATOM      2  C   UNL     1      43.640  10.626  15.928  0.00  0.00    -0.006 C 
ENDBRANCH   3   2
ENDBRANCH   4   3
ENDBRANCH   5   4
ENDBRANCH   6   5
ENDBRANCH   7   6
ENDBRANCH   8   7
ENDBRANCH   9   8
ENDBRANCH  10   9
ENDBRANCH  11  10
ENDBRANCH  12  11
ENDBRANCH  13  12
ENDBRANCH  14  13
ENDBRANCH  15  14
ENDBRANCH  16  15
ENDBRANCH  17  16
ENDBRANCH  18  17
ENDBRANCH  19  18
ENDBRANCH  20  19
ENDBRANCH  21  20
ENDBRANCH  22  21
ENDBRANCH  23  22
ENDBRANCH  24  23
ENDBRANCH  25  24
BRANCH  25  60
ATOM     60  C   UNL     1      51.028  11.829  11.998  0.00  0.00    +0.161 C 
BRANCH  60  61
ATOM     61  O   UNL     1      51.573  13.029  11.446  0.00  0.00    -0.559 OA
ATOM     62  H   UNL     1      50.960  13.513  10.874  0.00  0.00    +0.380 HD
ENDBRANCH  60  61
ENDBRANCH  25  60
ENDBRANCH  26  25
ENDBRANCH  27  26
TORSDOF 36
ENDMDL
