MODEL 1
REMARK VINA RESULT:      -6.1      0.000      0.000
REMARK  Name = ZINC95486000
REMARK  12 active torsions:
REMARK  status: ('A' for Active; 'I' for Inactive)
REMARK    1  A    between atoms: C1_1  and  C2_2
REMARK    2  A    between atoms: C2_2  and  O2_4
REMARK    3  A    between atoms: O2_4  and  C3_5
REMARK    4  A    between atoms: C5_9  and  O6_34
REMARK    5  A    between atoms: C7_12  and  C21_29
REMARK    6  A    between atoms: C8_13  and  O3_15
REMARK    7  A    between atoms: O3_15  and  C9_16
REMARK    8  A    between atoms: C9_16  and  C10_17
REMARK    9  A    between atoms: C19_26  and  C20_27
REMARK   10  A    between atoms: C19_26  and  O4_28
REMARK   11  A    between atoms: C22_31  and  C23_32
REMARK   12  A    between atoms: C22_31  and  C24_33
REMARK                            x       y       z     vdW  Elec       q    Type
REMARK                         _______ _______ _______ _____ _____    ______ ____
ROOT
ATOM      4  C   UNL     1      46.400  17.921  18.758  0.00  0.00    +0.165 C 
ATOM      5  C   UNL     1      45.076  17.734  19.493  0.00  0.00    -0.037 C 
ATOM      6  C   UNL     1      44.374  19.134  19.445  0.00  0.00    +0.158 C 
ATOM      9  C   UNL     1      45.261  19.877  20.464  0.00  0.00    +0.161 C 
ATOM     10  O   UNL     1      45.616  18.900  21.475  0.00  0.00    -0.327 OA
ATOM     11  C   UNL     1      46.563  20.267  19.765  0.00  0.00    -0.051 C 
ATOM     12  C   UNL     1      46.348  21.135  18.523  0.00  0.00    +0.047 C 
ATOM     13  C   UNL     1      47.455  21.025  20.755  0.00  0.00    +0.054 C 
ATOM     14  C   UNL     1      46.723  22.265  21.265  0.00  0.00    +0.008 C 
ATOM     15  C   UNL     1      45.465  21.850  22.019  0.00  0.00    -0.003 C 
ATOM     16  C   UNL     1      44.533  21.018  21.138  0.00  0.00    +0.157 C 
ATOM     19  C   UNL     1      43.804  21.922  20.149  0.00  0.00    +0.020 C 
ATOM     20  C   UNL     1      45.279  17.586  21.013  0.00  0.00    +0.130 C 
ATOM     21  C   UNL     1      46.356  16.567  21.371  0.00  0.00    +0.051 C 
ATOM     22  C   UNL     1      43.969  17.132  21.679  0.00  0.00    +0.023 C 
ATOM     23  C   UNL     1      47.304  18.994  19.330  0.00  0.00    +0.150 C 
ENDROOT
BRANCH   6   7
ATOM      7  O   UNL     1      43.004  19.048  19.835  0.00  0.00    -0.520 OA
ATOM      8  H   UNL     1      42.522  18.320  19.421  0.00  0.00    +0.374 HD
ENDBRANCH   6   7
BRANCH  16  17
ATOM     17  O   UNL     1      43.537  20.445  22.014  0.00  0.00    -0.538 OA
ATOM     18  H   UNL     1      43.691  20.621  22.952  0.00  0.00    +0.365 HD
ENDBRANCH  16  17
BRANCH   4   3
ATOM      3  O   UNL     1      47.106  16.682  18.634  0.00  0.00    -0.333 OA
BRANCH   3   2
ATOM      1  C   UNL     1      46.242  14.413  18.188  0.00  0.00    +0.158 C 
ATOM      2  C   UNL     1      46.633  15.799  17.741  0.00  0.00    +0.452 C 
ATOM     32  O   UNL     1      46.521  16.113  16.581  0.00  0.00    -0.510 OA
ENDBRANCH   3   2
ENDBRANCH   4   3
BRANCH  23  24
ATOM     24  O   UNL     1      48.129  18.506  20.379  0.00  0.00    -0.331 OA
BRANCH  24  25
ATOM     25  C   UNL     1      49.376  17.967  19.937  0.00  0.00    +0.202 C 
BRANCH  25  26
ATOM     26  C   UNL     1      50.130  19.014  19.160  0.00  0.00    -0.087 A 
ATOM     27  C   UNL     1      50.551  20.171  19.789  0.00  0.00    +0.024 A 
ATOM     28  C   UNL     1      51.243  21.133  19.077  0.00  0.00    +0.000 A 
ATOM     29  C   UNL     1      51.515  20.938  17.736  0.00  0.00    +0.010 A 
ATOM     30  C   UNL     1      51.095  19.780  17.107  0.00  0.00    +0.001 A 
ATOM     31  C   UNL     1      50.405  18.817  17.820  0.00  0.00    +0.026 A 
ENDBRANCH  25  26
ENDBRANCH  24  25
ENDBRANCH  23  24
TORSDOF 7
ENDMDL
MODEL 2
REMARK VINA RESULT:      -6.0      1.983      4.958
REMARK  Name = ZINC95486000
REMARK  12 active torsions:
REMARK  status: ('A' for Active; 'I' for Inactive)
REMARK    1  A    between atoms: C1_1  and  C2_2
REMARK    2  A    between atoms: C2_2  and  O2_4
REMARK    3  A    between atoms: O2_4  and  C3_5
REMARK    4  A    between atoms: C5_9  and  O6_34
REMARK    5  A    between atoms: C7_12  and  C21_29
REMARK    6  A    between atoms: C8_13  and  O3_15
REMARK    7  A    between atoms: O3_15  and  C9_16
REMARK    8  A    between atoms: C9_16  and  C10_17
REMARK    9  A    between atoms: C19_26  and  C20_27
REMARK   10  A    between atoms: C19_26  and  O4_28
REMARK   11  A    between atoms: C22_31  and  C23_32
REMARK   12  A    between atoms: C22_31  and  C24_33
REMARK                            x       y       z     vdW  Elec       q    Type
REMARK                         _______ _______ _______ _____ _____    ______ ____
ROOT
ATOM      4  C   UNL     1      46.163  17.668  19.164  0.00  0.00    +0.165 C 
ATOM      5  C   UNL     1      45.839  16.353  18.463  0.00  0.00    -0.037 C 
ATOM      6  C   UNL     1      45.660  15.303  19.612  0.00  0.00    +0.158 C 
ATOM      9  C   UNL     1      47.138  15.149  20.021  0.00  0.00    +0.161 C 
ATOM     10  O   UNL     1      47.908  15.265  18.798  0.00  0.00    -0.327 OA
ATOM     11  C   UNL     1      47.519  16.350  20.886  0.00  0.00    -0.051 C 
ATOM     12  C   UNL     1      46.642  16.504  22.131  0.00  0.00    +0.047 C 
ATOM     13  C   UNL     1      48.983  16.209  21.321  0.00  0.00    +0.054 C 
ATOM     14  C   UNL     1      49.168  14.905  22.095  0.00  0.00    +0.008 C 
ATOM     15  C   UNL     1      48.850  13.718  21.193  0.00  0.00    -0.003 C 
ATOM     16  C   UNL     1      47.427  13.800  20.641  0.00  0.00    +0.157 C 
ATOM     19  C   UNL     1      46.424  13.418  21.723  0.00  0.00    +0.020 C 
ATOM     20  C   UNL     1      47.070  15.764  17.748  0.00  0.00    +0.130 C 
ATOM     21  C   UNL     1      47.798  16.786  16.881  0.00  0.00    +0.051 C 
ATOM     22  C   UNL     1      46.645  14.599  16.837  0.00  0.00    +0.023 C 
ATOM     23  C   UNL     1      47.389  17.634  20.054  0.00  0.00    +0.150 C 
ENDROOT
BRANCH   6   7
ATOM      7  O   UNL     1      45.070  14.095  19.133  0.00  0.00    -0.520 OA
ATOM      8  H   UNL     1      44.808  13.481  19.831  0.00  0.00    +0.374 HD
ENDBRANCH   6   7
BRANCH  16  17
ATOM     17  O   UNL     1      47.332  12.808  19.593  0.00  0.00    -0.538 OA
ATOM     18  H   UNL     1      47.474  13.161  18.704  0.00  0.00    +0.365 HD
ENDBRANCH  16  17
BRANCH   4   3
ATOM      3  O   UNL     1      46.250  18.749  18.230  0.00  0.00    -0.333 OA
BRANCH   3   2
ATOM      1  C   UNL     1      46.042  21.152  18.756  0.00  0.00    +0.158 C 
ATOM      2  C   UNL     1      45.447  19.803  18.441  0.00  0.00    +0.452 C 
ATOM     32  O   UNL     1      44.248  19.671  18.381  0.00  0.00    -0.510 OA
ENDBRANCH   3   2
ENDBRANCH   4   3
BRANCH  23  24
ATOM     24  O   UNL     1      48.588  17.895  19.336  0.00  0.00    -0.331 OA
BRANCH  24  25
ATOM     25  C   UNL     1      49.155  19.180  19.598  0.00  0.00    +0.202 C 
BRANCH  25  26
ATOM     26  C   UNL     1      50.150  19.520  18.519  0.00  0.00    -0.087 A 
ATOM     27  C   UNL     1      50.828  18.510  17.861  0.00  0.00    +0.024 A 
ATOM     28  C   UNL     1      51.741  18.821  16.871  0.00  0.00    +0.000 A 
ATOM     29  C   UNL     1      51.976  20.142  16.537  0.00  0.00    +0.010 A 
ATOM     30  C   UNL     1      51.297  21.151  17.194  0.00  0.00    +0.001 A 
ATOM     31  C   UNL     1      50.382  20.840  18.182  0.00  0.00    +0.026 A 
ENDBRANCH  25  26
ENDBRANCH  24  25
ENDBRANCH  23  24
TORSDOF 7
ENDMDL
MODEL 3
REMARK VINA RESULT:      -5.7      1.939      6.094
REMARK  Name = ZINC95486000
REMARK  12 active torsions:
REMARK  status: ('A' for Active; 'I' for Inactive)
REMARK    1  A    between atoms: C1_1  and  C2_2
REMARK    2  A    between atoms: C2_2  and  O2_4
REMARK    3  A    between atoms: O2_4  and  C3_5
REMARK    4  A    between atoms: C5_9  and  O6_34
REMARK    5  A    between atoms: C7_12  and  C21_29
REMARK    6  A    between atoms: C8_13  and  O3_15
REMARK    7  A    between atoms: O3_15  and  C9_16
REMARK    8  A    between atoms: C9_16  and  C10_17
REMARK    9  A    between atoms: C19_26  and  C20_27
REMARK   10  A    between atoms: C19_26  and  O4_28
REMARK   11  A    between atoms: C22_31  and  C23_32
REMARK   12  A    between atoms: C22_31  and  C24_33
REMARK                            x       y       z     vdW  Elec       q    Type
REMARK                         _______ _______ _______ _____ _____    ______ ____
ROOT
ATOM      4  C   UNL     1      47.911  17.926  20.300  0.00  0.00    +0.165 C 
ATOM      5  C   UNL     1      48.485  16.824  19.415  0.00  0.00    -0.037 C 
ATOM      6  C   UNL     1      50.036  17.050  19.424  0.00  0.00    +0.158 C 
ATOM      9  C   UNL     1      50.095  18.308  18.534  0.00  0.00    +0.161 C 
ATOM     10  O   UNL     1      49.050  18.147  17.542  0.00  0.00    -0.327 OA
ATOM     11  C   UNL     1      49.698  19.512  19.387  0.00  0.00    -0.051 C 
ATOM     12  C   UNL     1      50.583  19.699  20.621  0.00  0.00    +0.047 C 
ATOM     13  C   UNL     1      49.768  20.779  18.526  0.00  0.00    +0.054 C 
ATOM     14  C   UNL     1      51.181  20.951  17.973  0.00  0.00    +0.008 C 
ATOM     15  C   UNL     1      51.530  19.773  17.070  0.00  0.00    -0.003 C 
ATOM     16  C   UNL     1      51.418  18.443  17.816  0.00  0.00    +0.157 C 
ATOM     19  C   UNL     1      52.616  18.262  18.742  0.00  0.00    +0.020 C 
ATOM     20  C   UNL     1      48.186  17.070  17.924  0.00  0.00    +0.130 C 
ATOM     21  C   UNL     1      46.720  17.400  17.660  0.00  0.00    +0.051 C 
ATOM     22  C   UNL     1      48.536  15.818  17.101  0.00  0.00    +0.023 C 
ATOM     23  C   UNL     1      48.249  19.338  19.865  0.00  0.00    +0.150 C 
ENDROOT
BRANCH   6   7
ATOM      7  O   UNL     1      50.733  15.930  18.880  0.00  0.00    -0.520 OA
ATOM      8  H   UNL     1      51.478  16.168  18.313  0.00  0.00    +0.374 HD
ENDBRANCH   6   7
BRANCH  16  17
ATOM     17  O   UNL     1      51.483  17.401  16.816  0.00  0.00    -0.538 OA
ATOM     18  H   UNL     1      51.898  17.677  15.988  0.00  0.00    +0.365 HD
ENDBRANCH  16  17
BRANCH   4   3
ATOM      3  O   UNL     1      46.498  17.776  20.467  0.00  0.00    -0.333 OA
BRANCH   3   2
ATOM      1  C   UNL     1      45.297  19.015  22.233  0.00  0.00    +0.158 C 
ATOM      2  C   UNL     1      46.027  17.799  21.724  0.00  0.00    +0.452 C 
ATOM     32  O   UNL     1      46.188  16.845  22.446  0.00  0.00    -0.510 OA
ENDBRANCH   3   2
ENDBRANCH   4   3
BRANCH  23  24
ATOM     24  O   UNL     1      47.334  19.842  18.902  0.00  0.00    -0.331 OA
BRANCH  24  25
ATOM     25  C   UNL     1      46.811  21.134  19.217  0.00  0.00    +0.202 C 
BRANCH  25  26
ATOM     26  C   UNL     1      45.306  21.088  19.190  0.00  0.00    -0.087 A 
ATOM     27  C   UNL     1      44.657  19.975  18.686  0.00  0.00    +0.024 A 
ATOM     28  C   UNL     1      43.276  19.932  18.661  0.00  0.00    +0.000 A 
ATOM     29  C   UNL     1      42.542  21.000  19.142  0.00  0.00    +0.010 A 
ATOM     30  C   UNL     1      43.190  22.112  19.647  0.00  0.00    +0.001 A 
ATOM     31  C   UNL     1      44.572  22.154  19.675  0.00  0.00    +0.026 A 
ENDBRANCH  25  26
ENDBRANCH  24  25
ENDBRANCH  23  24
TORSDOF 7
ENDMDL
MODEL 4
REMARK VINA RESULT:      -5.5      2.441      5.783
REMARK  Name = ZINC95486000
REMARK  12 active torsions:
REMARK  status: ('A' for Active; 'I' for Inactive)
REMARK    1  A    between atoms: C1_1  and  C2_2
REMARK    2  A    between atoms: C2_2  and  O2_4
REMARK    3  A    between atoms: O2_4  and  C3_5
REMARK    4  A    between atoms: C5_9  and  O6_34
REMARK    5  A    between atoms: C7_12  and  C21_29
REMARK    6  A    between atoms: C8_13  and  O3_15
REMARK    7  A    between atoms: O3_15  and  C9_16
REMARK    8  A    between atoms: C9_16  and  C10_17
REMARK    9  A    between atoms: C19_26  and  C20_27
REMARK   10  A    between atoms: C19_26  and  O4_28
REMARK   11  A    between atoms: C22_31  and  C23_32
REMARK   12  A    between atoms: C22_31  and  C24_33
REMARK                            x       y       z     vdW  Elec       q    Type
REMARK                         _______ _______ _______ _____ _____    ______ ____
ROOT
ATOM      4  C   UNL     1      50.012  17.642  17.345  0.00  0.00    +0.165 C 
ATOM      5  C   UNL     1      50.432  16.252  17.813  0.00  0.00    -0.037 C 
ATOM      6  C   UNL     1      49.236  15.310  17.443  0.00  0.00    +0.158 C 
ATOM      9  C   UNL     1      48.230  15.774  18.515  0.00  0.00    +0.161 C 
ATOM     10  O   UNL     1      49.015  16.082  19.695  0.00  0.00    -0.327 OA
ATOM     11  C   UNL     1      47.616  17.094  18.050  0.00  0.00    -0.051 C 
ATOM     12  C   UNL     1      46.924  16.995  16.689  0.00  0.00    +0.047 C 
ATOM     13  C   UNL     1      46.597  17.567  19.095  0.00  0.00    +0.054 C 
ATOM     14  C   UNL     1      45.516  16.503  19.280  0.00  0.00    +0.008 C 
ATOM     15  C   UNL     1      46.141  15.217  19.810  0.00  0.00    -0.003 C 
ATOM     16  C   UNL     1      47.232  14.697  18.873  0.00  0.00    +0.157 C 
ATOM     19  C   UNL     1      46.600  14.044  17.649  0.00  0.00    +0.020 C 
ATOM     20  C   UNL     1      50.404  16.131  19.349  0.00  0.00    +0.130 C 
ATOM     21  C   UNL     1      51.121  17.282  20.048  0.00  0.00    +0.051 C 
ATOM     22  C   UNL     1      51.087  14.823  19.788  0.00  0.00    +0.023 C 
ATOM     23  C   UNL     1      48.719  18.156  17.944  0.00  0.00    +0.150 C 
ENDROOT
BRANCH   6   7
ATOM      7  O   UNL     1      49.597  13.934  17.554  0.00  0.00    -0.520 OA
ATOM      8  H   UNL     1      48.850  13.343  17.716  0.00  0.00    +0.374 HD
ENDBRANCH   6   7
BRANCH  16  17
ATOM     17  O   UNL     1      47.941  13.666  19.596  0.00  0.00    -0.538 OA
ATOM     18  H   UNL     1      47.909  13.767  20.557  0.00  0.00    +0.365 HD
ENDBRANCH  16  17
BRANCH   4   3
ATOM      3  O   UNL     1      51.066  18.593  17.528  0.00  0.00    -0.333 OA
BRANCH   3   2
ATOM      1  C   UNL     1      51.705  20.656  16.333  0.00  0.00    +0.158 C 
ATOM      2  C   UNL     1      51.577  19.157  16.423  0.00  0.00    +0.452 C 
ATOM     32  O   UNL     1      51.932  18.464  15.500  0.00  0.00    -0.510 OA
ENDBRANCH   3   2
ENDBRANCH   4   3
BRANCH  23  24
ATOM     24  O   UNL     1      48.921  18.803  19.193  0.00  0.00    -0.331 OA
BRANCH  24  25
ATOM     25  C   UNL     1      49.030  20.225  19.102  0.00  0.00    +0.202 C 
BRANCH  25  26
ATOM     26  C   UNL     1      47.751  20.859  19.584  0.00  0.00    -0.087 A 
ATOM     27  C   UNL     1      47.645  21.296  20.891  0.00  0.00    +0.024 A 
ATOM     28  C   UNL     1      46.472  21.878  21.333  0.00  0.00    +0.000 A 
ATOM     29  C   UNL     1      45.404  22.025  20.468  0.00  0.00    +0.010 A 
ATOM     30  C   UNL     1      45.510  21.590  19.160  0.00  0.00    +0.001 A 
ATOM     31  C   UNL     1      46.684  21.010  18.717  0.00  0.00    +0.026 A 
ENDBRANCH  25  26
ENDBRANCH  24  25
ENDBRANCH  23  24
TORSDOF 7
ENDMDL
MODEL 5
REMARK VINA RESULT:      -5.5      2.249      6.662
REMARK  Name = ZINC95486000
REMARK  12 active torsions:
REMARK  status: ('A' for Active; 'I' for Inactive)
REMARK    1  A    between atoms: C1_1  and  C2_2
REMARK    2  A    between atoms: C2_2  and  O2_4
REMARK    3  A    between atoms: O2_4  and  C3_5
REMARK    4  A    between atoms: C5_9  and  O6_34
REMARK    5  A    between atoms: C7_12  and  C21_29
REMARK    6  A    between atoms: C8_13  and  O3_15
REMARK    7  A    between atoms: O3_15  and  C9_16
REMARK    8  A    between atoms: C9_16  and  C10_17
REMARK    9  A    between atoms: C19_26  and  C20_27
REMARK   10  A    between atoms: C19_26  and  O4_28
REMARK   11  A    between atoms: C22_31  and  C23_32
REMARK   12  A    between atoms: C22_31  and  C24_33
REMARK                            x       y       z     vdW  Elec       q    Type
REMARK                         _______ _______ _______ _____ _____    ______ ____
ROOT
ATOM      4  C   UNL     1      48.470  20.291  19.375  0.00  0.00    +0.165 C 
ATOM      5  C   UNL     1      49.799  20.950  19.023  0.00  0.00    -0.037 C 
ATOM      6  C   UNL     1      50.357  20.136  17.806  0.00  0.00    +0.158 C 
ATOM      9  C   UNL     1      50.768  18.851  18.551  0.00  0.00    +0.161 C 
ATOM     10  O   UNL     1      51.243  19.276  19.853  0.00  0.00    -0.327 OA
ATOM     11  C   UNL     1      49.507  18.024  18.802  0.00  0.00    -0.051 C 
ATOM     12  C   UNL     1      48.749  17.670  17.520  0.00  0.00    +0.047 C 
ATOM     13  C   UNL     1      49.894  16.729  19.527  0.00  0.00    +0.054 C 
ATOM     14  C   UNL     1      50.895  15.944  18.682  0.00  0.00    +0.008 C 
ATOM     15  C   UNL     1      52.172  16.759  18.503  0.00  0.00    -0.003 C 
ATOM     16  C   UNL     1      51.885  18.112  17.851  0.00  0.00    +0.157 C 
ATOM     19  C   UNL     1      51.633  17.929  16.359  0.00  0.00    +0.020 C 
ATOM     20  C   UNL     1      50.887  20.646  20.071  0.00  0.00    +0.130 C 
ATOM     21  C   UNL     1      50.416  20.887  21.502  0.00  0.00    +0.051 C 
ATOM     22  C   UNL     1      52.117  21.539  19.831  0.00  0.00    +0.023 C 
ATOM     23  C   UNL     1      48.556  18.816  19.711  0.00  0.00    +0.150 C 
ENDROOT
BRANCH   6   7
ATOM      7  O   UNL     1      51.449  20.809  17.180  0.00  0.00    -0.520 OA
ATOM      8  H   UNL     1      51.457  21.764  17.325  0.00  0.00    +0.374 HD
ENDBRANCH   6   7
BRANCH  16  17
ATOM     17  O   UNL     1      53.088  18.902  17.993  0.00  0.00    -0.538 OA
ATOM     18  H   UNL     1      53.884  18.469  17.656  0.00  0.00    +0.365 HD
ENDBRANCH  16  17
BRANCH   4   3
ATOM      3  O   UNL     1      47.794  21.005  20.415  0.00  0.00    -0.333 OA
BRANCH   3   2
ATOM      1  C   UNL     1      45.913  21.132  18.822  0.00  0.00    +0.158 C 
ATOM      2  C   UNL     1      46.571  21.479  20.133  0.00  0.00    +0.452 C 
ATOM     32  O   UNL     1      45.998  22.184  20.929  0.00  0.00    -0.510 OA
ENDBRANCH   3   2
ENDBRANCH   4   3
BRANCH  23  24
ATOM     24  O   UNL     1      48.859  18.588  21.081  0.00  0.00    -0.331 OA
BRANCH  24  25
ATOM     25  C   UNL     1      47.709  18.418  21.911  0.00  0.00    +0.202 C 
BRANCH  25  26
ATOM     26  C   UNL     1      46.813  17.361  21.320  0.00  0.00    -0.087 A 
ATOM     27  C   UNL     1      45.712  17.729  20.569  0.00  0.00    +0.024 A 
ATOM     28  C   UNL     1      44.890  16.759  20.026  0.00  0.00    +0.000 A 
ATOM     29  C   UNL     1      45.169  15.421  20.233  0.00  0.00    +0.010 A 
ATOM     30  C   UNL     1      46.271  15.053  20.983  0.00  0.00    +0.001 A 
ATOM     31  C   UNL     1      47.094  16.023  21.524  0.00  0.00    +0.026 A 
ENDBRANCH  25  26
ENDBRANCH  24  25
ENDBRANCH  23  24
TORSDOF 7
ENDMDL
MODEL 6
REMARK VINA RESULT:      -5.3      1.985      3.177
REMARK  Name = ZINC95486000
REMARK  12 active torsions:
REMARK  status: ('A' for Active; 'I' for Inactive)
REMARK    1  A    between atoms: C1_1  and  C2_2
REMARK    2  A    between atoms: C2_2  and  O2_4
REMARK    3  A    between atoms: O2_4  and  C3_5
REMARK    4  A    between atoms: C5_9  and  O6_34
REMARK    5  A    between atoms: C7_12  and  C21_29
REMARK    6  A    between atoms: C8_13  and  O3_15
REMARK    7  A    between atoms: O3_15  and  C9_16
REMARK    8  A    between atoms: C9_16  and  C10_17
REMARK    9  A    between atoms: C19_26  and  C20_27
REMARK   10  A    between atoms: C19_26  and  O4_28
REMARK   11  A    between atoms: C22_31  and  C23_32
REMARK   12  A    between atoms: C22_31  and  C24_33
REMARK                            x       y       z     vdW  Elec       q    Type
REMARK                         _______ _______ _______ _____ _____    ______ ____
ROOT
ATOM      4  C   UNL     1      49.308  17.918  18.055  0.00  0.00    +0.165 C 
ATOM      5  C   UNL     1      47.993  17.178  17.826  0.00  0.00    -0.037 C 
ATOM      6  C   UNL     1      46.882  18.281  17.882  0.00  0.00    +0.158 C 
ATOM      9  C   UNL     1      46.894  18.552  19.399  0.00  0.00    +0.161 C 
ATOM     10  O   UNL     1      47.157  17.274  20.033  0.00  0.00    -0.327 OA
ATOM     11  C   UNL     1      48.096  19.442  19.713  0.00  0.00    -0.051 C 
ATOM     12  C   UNL     1      48.087  20.765  18.943  0.00  0.00    +0.047 C 
ATOM     13  C   UNL     1      48.119  19.741  21.217  0.00  0.00    +0.054 C 
ATOM     14  C   UNL     1      46.817  20.426  21.627  0.00  0.00    +0.008 C 
ATOM     15  C   UNL     1      45.638  19.493  21.371  0.00  0.00    -0.003 C 
ATOM     16  C   UNL     1      45.567  19.071  19.903  0.00  0.00    +0.157 C 
ATOM     19  C   UNL     1      45.019  20.215  19.057  0.00  0.00    +0.020 C 
ATOM     20  C   UNL     1      47.591  16.329  19.047  0.00  0.00    +0.130 C 
ATOM     21  C   UNL     1      48.731  15.457  19.564  0.00  0.00    +0.051 C 
ATOM     22  C   UNL     1      46.422  15.398  18.682  0.00  0.00    +0.023 C 
ATOM     23  C   UNL     1      49.388  18.694  19.354  0.00  0.00    +0.150 C 
ENDROOT
BRANCH   6   7
ATOM      7  O   UNL     1      45.632  17.792  17.398  0.00  0.00    -0.520 OA
ATOM      8  H   UNL     1      45.258  18.313  16.675  0.00  0.00    +0.374 HD
ENDBRANCH   6   7
BRANCH  16  17
ATOM     17  O   UNL     1      44.616  17.985  19.830  0.00  0.00    -0.538 OA
ATOM     18  H   UNL     1      43.697  18.259  19.955  0.00  0.00    +0.365 HD
ENDBRANCH  16  17
BRANCH   4   3
ATOM      3  O   UNL     1      50.429  17.038  17.925  0.00  0.00    -0.333 OA
BRANCH   3   2
ATOM      1  C   UNL     1      51.274  18.554  16.170  0.00  0.00    +0.158 C 
ATOM      2  C   UNL     1      51.220  17.213  16.855  0.00  0.00    +0.452 C 
ATOM     32  O   UNL     1      51.887  16.296  16.441  0.00  0.00    -0.510 OA
ENDBRANCH   3   2
ENDBRANCH   4   3
BRANCH  23  24
ATOM     24  O   UNL     1      49.825  17.890  20.441  0.00  0.00    -0.331 OA
BRANCH  24  25
ATOM     25  C   UNL     1      51.235  17.935  20.668  0.00  0.00    +0.202 C 
BRANCH  25  26
ATOM     26  C   UNL     1      51.714  19.361  20.577  0.00  0.00    -0.087 A 
ATOM     27  C   UNL     1      51.628  20.190  21.680  0.00  0.00    +0.024 A 
ATOM     28  C   UNL     1      52.067  21.498  21.597  0.00  0.00    +0.000 A 
ATOM     29  C   UNL     1      52.594  21.977  20.412  0.00  0.00    +0.010 A 
ATOM     30  C   UNL     1      52.682  21.147  19.310  0.00  0.00    +0.001 A 
ATOM     31  C   UNL     1      52.245  19.838  19.393  0.00  0.00    +0.026 A 
ENDBRANCH  25  26
ENDBRANCH  24  25
ENDBRANCH  23  24
TORSDOF 7
ENDMDL
MODEL 7
REMARK VINA RESULT:      -5.2      2.483      6.153
REMARK  Name = ZINC95486000
REMARK  12 active torsions:
REMARK  status: ('A' for Active; 'I' for Inactive)
REMARK    1  A    between atoms: C1_1  and  C2_2
REMARK    2  A    between atoms: C2_2  and  O2_4
REMARK    3  A    between atoms: O2_4  and  C3_5
REMARK    4  A    between atoms: C5_9  and  O6_34
REMARK    5  A    between atoms: C7_12  and  C21_29
REMARK    6  A    between atoms: C8_13  and  O3_15
REMARK    7  A    between atoms: O3_15  and  C9_16
REMARK    8  A    between atoms: C9_16  and  C10_17
REMARK    9  A    between atoms: C19_26  and  C20_27
REMARK   10  A    between atoms: C19_26  and  O4_28
REMARK   11  A    between atoms: C22_31  and  C23_32
REMARK   12  A    between atoms: C22_31  and  C24_33
REMARK                            x       y       z     vdW  Elec       q    Type
REMARK                         _______ _______ _______ _____ _____    ______ ____
ROOT
ATOM      4  C   UNL     1      49.786  16.387  19.986  0.00  0.00    +0.165 C 
ATOM      5  C   UNL     1      50.872  16.101  18.954  0.00  0.00    -0.037 C 
ATOM      6  C   UNL     1      51.897  17.278  19.095  0.00  0.00    +0.158 C 
ATOM      9  C   UNL     1      51.059  18.399  18.450  0.00  0.00    +0.161 C 
ATOM     10  O   UNL     1      50.301  17.772  17.385  0.00  0.00    -0.327 OA
ATOM     11  C   UNL     1      50.038  18.880  19.480  0.00  0.00    -0.051 C 
ATOM     12  C   UNL     1      50.676  19.381  20.778  0.00  0.00    +0.047 C 
ATOM     13  C   UNL     1      49.204  20.011  18.866  0.00  0.00    +0.054 C 
ATOM     14  C   UNL     1      50.120  21.156  18.438  0.00  0.00    +0.008 C 
ATOM     15  C   UNL     1      51.084  20.671  17.360  0.00  0.00    -0.003 C 
ATOM     16  C   UNL     1      51.919  19.487  17.848  0.00  0.00    +0.157 C 
ATOM     19  C   UNL     1      53.011  19.973  18.795  0.00  0.00    +0.020 C 
ATOM     20  C   UNL     1      50.376  16.347  17.516  0.00  0.00    +0.130 C 
ATOM     21  C   UNL     1      49.034  15.681  17.229  0.00  0.00    +0.051 C 
ATOM     22  C   UNL     1      51.395  15.795  16.504  0.00  0.00    +0.023 C 
ATOM     23  C   UNL     1      49.091  17.725  19.833  0.00  0.00    +0.150 C 
ENDROOT
BRANCH   6   7
ATOM      7  O   UNL     1      53.113  17.000  18.400  0.00  0.00    -0.520 OA
ATOM      8  H   UNL     1      53.903  17.052  18.954  0.00  0.00    +0.374 HD
ENDBRANCH   6   7
BRANCH  16  17
ATOM     17  O   UNL     1      52.572  18.934  16.683  0.00  0.00    -0.538 OA
ATOM     18  H   UNL     1      53.282  19.487  16.331  0.00  0.00    +0.365 HD
ENDBRANCH  16  17
BRANCH   4   3
ATOM      3  O   UNL     1      48.827  15.325  20.039  0.00  0.00    -0.333 OA
BRANCH   3   2
ATOM      1  C   UNL     1      49.597  14.842  22.335  0.00  0.00    +0.158 C 
ATOM      2  C   UNL     1      48.552  14.813  21.249  0.00  0.00    +0.452 C 
ATOM     32  O   UNL     1      47.468  14.329  21.468  0.00  0.00    -0.510 OA
ENDBRANCH   3   2
ENDBRANCH   4   3
BRANCH  23  24
ATOM     24  O   UNL     1      48.001  17.668  18.923  0.00  0.00    -0.331 OA
BRANCH  24  25
ATOM     25  C   UNL     1      46.719  17.619  19.553  0.00  0.00    +0.202 C 
BRANCH  25  26
ATOM     26  C   UNL     1      46.203  19.020  19.753  0.00  0.00    -0.087 A 
ATOM     27  C   UNL     1      45.688  19.727  18.682  0.00  0.00    +0.024 A 
ATOM     28  C   UNL     1      45.214  21.012  18.866  0.00  0.00    +0.000 A 
ATOM     29  C   UNL     1      45.254  21.592  20.120  0.00  0.00    +0.010 A 
ATOM     30  C   UNL     1      45.769  20.885  21.191  0.00  0.00    +0.001 A 
ATOM     31  C   UNL     1      46.240  19.598  21.009  0.00  0.00    +0.026 A 
ENDBRANCH  25  26
ENDBRANCH  24  25
ENDBRANCH  23  24
TORSDOF 7
ENDMDL
MODEL 8
REMARK VINA RESULT:      -5.0      3.629      6.620
REMARK  Name = ZINC95486000
REMARK  12 active torsions:
REMARK  status: ('A' for Active; 'I' for Inactive)
REMARK    1  A    between atoms: C1_1  and  C2_2
REMARK    2  A    between atoms: C2_2  and  O2_4
REMARK    3  A    between atoms: O2_4  and  C3_5
REMARK    4  A    between atoms: C5_9  and  O6_34
REMARK    5  A    between atoms: C7_12  and  C21_29
REMARK    6  A    between atoms: C8_13  and  O3_15
REMARK    7  A    between atoms: O3_15  and  C9_16
REMARK    8  A    between atoms: C9_16  and  C10_17
REMARK    9  A    between atoms: C19_26  and  C20_27
REMARK   10  A    between atoms: C19_26  and  O4_28
REMARK   11  A    between atoms: C22_31  and  C23_32
REMARK   12  A    between atoms: C22_31  and  C24_33
REMARK                            x       y       z     vdW  Elec       q    Type
REMARK                         _______ _______ _______ _____ _____    ______ ____
ROOT
ATOM      4  C   UNL     1      52.314  17.181  19.178  0.00  0.00    +0.165 C 
ATOM      5  C   UNL     1      52.501  18.560  18.552  0.00  0.00    -0.037 C 
ATOM      6  C   UNL     1      51.747  19.552  19.502  0.00  0.00    +0.158 C 
ATOM      9  C   UNL     1      50.299  19.174  19.136  0.00  0.00    +0.161 C 
ATOM     10  O   UNL     1      50.311  18.859  17.720  0.00  0.00    -0.327 OA
ATOM     11  C   UNL     1      49.950  17.875  19.862  0.00  0.00    -0.051 C 
ATOM     12  C   UNL     1      50.100  17.971  21.382  0.00  0.00    +0.047 C 
ATOM     13  C   UNL     1      48.504  17.488  19.528  0.00  0.00    +0.054 C 
ATOM     14  C   UNL     1      47.558  18.612  19.946  0.00  0.00    +0.008 C 
ATOM     15  C   UNL     1      47.879  19.878  19.158  0.00  0.00    -0.003 C 
ATOM     16  C   UNL     1      49.331  20.312  19.364  0.00  0.00    +0.157 C 
ATOM     19  C   UNL     1      49.492  20.962  20.734  0.00  0.00    +0.020 C 
ATOM     20  C   UNL     1      51.664  18.727  17.269  0.00  0.00    +0.130 C 
ATOM     21  C   UNL     1      51.825  17.560  16.300  0.00  0.00    +0.051 C 
ATOM     22  C   UNL     1      52.083  20.008  16.528  0.00  0.00    +0.023 C 
ATOM     23  C   UNL     1      50.872  16.753  19.365  0.00  0.00    +0.150 C 
ENDROOT
BRANCH   6   7
ATOM      7  O   UNL     1      52.076  20.910  19.209  0.00  0.00    -0.520 OA
ATOM      8  H   UNL     1      51.451  21.552  19.571  0.00  0.00    +0.374 HD
ENDBRANCH   6   7
BRANCH  16  17
ATOM     17  O   UNL     1      49.604  21.325  18.370  0.00  0.00    -0.538 OA
ATOM     18  H   UNL     1      50.515  21.322  18.046  0.00  0.00    +0.365 HD
ENDBRANCH  16  17
BRANCH   4   3
ATOM      3  O   UNL     1      53.046  16.181  18.462  0.00  0.00    -0.333 OA
BRANCH   3   2
ATOM      1  C   UNL     1      53.541  13.999  19.505  0.00  0.00    +0.158 C 
ATOM      2  C   UNL     1      53.898  15.425  19.172  0.00  0.00    +0.452 C 
ATOM     32  O   UNL     1      54.950  15.887  19.545  0.00  0.00    -0.510 OA
ENDBRANCH   3   2
ENDBRANCH   4   3
BRANCH  23  24
ATOM     24  O   UNL     1      50.335  16.133  18.205  0.00  0.00    -0.331 OA
BRANCH  24  25
ATOM     25  C   UNL     1      50.069  14.738  18.361  0.00  0.00    +0.202 C 
BRANCH  25  26
ATOM     26  C   UNL     1      50.090  14.068  17.011  0.00  0.00    -0.087 A 
ATOM     27  C   UNL     1      48.908  13.643  16.432  0.00  0.00    +0.024 A 
ATOM     28  C   UNL     1      48.927  13.028  15.194  0.00  0.00    +0.000 A 
ATOM     29  C   UNL     1      50.126  12.840  14.534  0.00  0.00    +0.010 A 
ATOM     30  C   UNL     1      51.308  13.267  15.112  0.00  0.00    +0.001 A 
ATOM     31  C   UNL     1      51.289  13.884  16.349  0.00  0.00    +0.026 A 
ENDBRANCH  25  26
ENDBRANCH  24  25
ENDBRANCH  23  24
TORSDOF 7
ENDMDL
MODEL 9
REMARK VINA RESULT:      -5.0      2.440      5.933
REMARK  Name = ZINC95486000
REMARK  12 active torsions:
REMARK  status: ('A' for Active; 'I' for Inactive)
REMARK    1  A    between atoms: C1_1  and  C2_2
REMARK    2  A    between atoms: C2_2  and  O2_4
REMARK    3  A    between atoms: O2_4  and  C3_5
REMARK    4  A    between atoms: C5_9  and  O6_34
REMARK    5  A    between atoms: C7_12  and  C21_29
REMARK    6  A    between atoms: C8_13  and  O3_15
REMARK    7  A    between atoms: O3_15  and  C9_16
REMARK    8  A    between atoms: C9_16  and  C10_17
REMARK    9  A    between atoms: C19_26  and  C20_27
REMARK   10  A    between atoms: C19_26  and  O4_28
REMARK   11  A    between atoms: C22_31  and  C23_32
REMARK   12  A    between atoms: C22_31  and  C24_33
REMARK                            x       y       z     vdW  Elec       q    Type
REMARK                         _______ _______ _______ _____ _____    ______ ____
ROOT
ATOM      4  C   UNL     1      47.224  16.724  19.735  0.00  0.00    +0.165 C 
ATOM      5  C   UNL     1      46.636  15.615  18.867  0.00  0.00    -0.037 C 
ATOM      6  C   UNL     1      47.082  14.276  19.547  0.00  0.00    +0.158 C 
ATOM      9  C   UNL     1      48.574  14.299  19.158  0.00  0.00    +0.161 C 
ATOM     10  O   UNL     1      48.634  14.892  17.836  0.00  0.00    -0.327 OA
ATOM     11  C   UNL     1      49.294  15.267  20.096  0.00  0.00    -0.051 C 
ATOM     12  C   UNL     1      49.143  14.902  21.575  0.00  0.00    +0.047 C 
ATOM     13  C   UNL     1      50.785  15.293  19.739  0.00  0.00    +0.054 C 
ATOM     14  C   UNL     1      51.370  13.887  19.859  0.00  0.00    +0.008 C 
ATOM     15  C   UNL     1      50.685  12.955  18.865  0.00  0.00    -0.003 C 
ATOM     16  C   UNL     1      49.173  12.914  19.088  0.00  0.00    +0.157 C 
ATOM     19  C   UNL     1      48.848  12.065  20.312  0.00  0.00    +0.020 C 
ATOM     20  C   UNL     1      47.371  15.491  17.519  0.00  0.00    +0.130 C 
ATOM     21  C   UNL     1      47.543  16.831  16.811  0.00  0.00    +0.051 C 
ATOM     22  C   UNL     1      46.589  14.562  16.574  0.00  0.00    +0.023 C 
ATOM     23  C   UNL     1      48.730  16.681  19.897  0.00  0.00    +0.150 C 
ENDROOT
BRANCH   6   7
ATOM      7  O   UNL     1      46.371  13.157  19.020  0.00  0.00    -0.520 OA
ATOM      8  H   UNL     1      46.674  12.874  18.147  0.00  0.00    +0.374 HD
ENDBRANCH   6   7
BRANCH  16  17
ATOM     17  O   UNL     1      48.604  12.248  17.937  0.00  0.00    -0.538 OA
ATOM     18  H   UNL     1      47.959  12.783  17.454  0.00  0.00    +0.365 HD
ENDBRANCH  16  17
BRANCH   4   3
ATOM      3  O   UNL     1      46.803  18.015  19.284  0.00  0.00    -0.333 OA
BRANCH   3   2
ATOM      1  C   UNL     1      46.811  20.350  20.086  0.00  0.00    +0.158 C 
ATOM      2  C   UNL     1      46.433  18.898  20.225  0.00  0.00    +0.452 C 
ATOM     32  O   UNL     1      45.797  18.529  21.183  0.00  0.00    -0.510 OA
ENDBRANCH   3   2
ENDBRANCH   4   3
BRANCH  23  24
ATOM     24  O   UNL     1      49.408  17.352  18.844  0.00  0.00    -0.331 OA
BRANCH  24  25
ATOM     25  C   UNL     1      49.996  18.596  19.230  0.00  0.00    +0.202 C 
BRANCH  25  26
ATOM     26  C   UNL     1      50.692  19.213  18.045  0.00  0.00    -0.087 A 
ATOM     27  C   UNL     1      51.205  18.405  17.047  0.00  0.00    +0.024 A 
ATOM     28  C   UNL     1      51.843  18.971  15.959  0.00  0.00    +0.000 A 
ATOM     29  C   UNL     1      51.967  20.344  15.868  0.00  0.00    +0.010 A 
ATOM     30  C   UNL     1      51.452  21.152  16.864  0.00  0.00    +0.001 A 
ATOM     31  C   UNL     1      50.812  20.587  17.951  0.00  0.00    +0.026 A 
ENDBRANCH  25  26
ENDBRANCH  24  25
ENDBRANCH  23  24
TORSDOF 7
ENDMDL
