MODEL 1
REMARK VINA RESULT:      -7.1      0.000      0.000
REMARK  Name = ZINC95486050
REMARK  11 active torsions:
REMARK  status: ('A' for Active; 'I' for Inactive)
REMARK    1  A    between atoms: C1_1  and  C2_2
REMARK    2  A    between atoms: C2_2  and  C24_30
REMARK    3  A    between atoms: C3_3  and  C4_4
REMARK    4  A    between atoms: C4_4  and  C5_5
REMARK    5  A    between atoms: C7_7  and  C15_16
REMARK    6  A    between atoms: C9_9  and  C11_12
REMARK    7  A    between atoms: C10_10  and  O1_11
REMARK    8  A    between atoms: C12_13  and  C13_14
REMARK    9  A    between atoms: C12_13  and  C14_15
REMARK   10  A    between atoms: C19_22  and  O5_29
REMARK   11  A    between atoms: C21_24  and  O4_28
REMARK                            x       y       z     vdW  Elec       q    Type
REMARK                         _______ _______ _______ _____ _____    ______ ____
ROOT
ATOM      6  C   UNL     1      49.164  17.126  17.704  0.00  0.00    -0.096 A 
ATOM      7  C   UNL     1      48.389  18.065  18.359  0.00  0.00    +0.042 A 
ATOM      8  C   UNL     1      47.028  17.864  18.513  0.00  0.00    -0.099 A 
ATOM     24  C   UNL     1      46.433  16.724  18.014  0.00  0.00    +0.063 A 
ATOM     25  C   UNL     1      47.205  15.769  17.352  0.00  0.00    -0.071 A 
ATOM     30  C   UNL     1      48.580  15.979  17.193  0.00  0.00    +0.131 A 
ENDROOT
BRANCH   8   9
ATOM      9  C   UNL     1      46.194  18.894  19.230  0.00  0.00    +0.239 C 
ATOM     10  C   UNL     1      45.130  19.449  18.273  0.00  0.00    +0.038 C 
ATOM     11  C   UNL     1      44.346  20.502  19.035  0.00  0.00    +0.403 C 
ATOM     12  C   UNL     1      45.118  21.387  19.913  0.00  0.00    -0.294 A 
ATOM     13  C   UNL     1      44.535  22.542  20.458  0.00  0.00    +0.223 A 
ATOM     16  C   UNL     1      45.282  23.353  21.294  0.00  0.00    -0.075 A 
ATOM     17  C   UNL     1      46.599  23.024  21.588  0.00  0.00    +0.198 A 
ATOM     20  C   UNL     1      47.184  21.886  21.048  0.00  0.00    -0.052 A 
ATOM     21  C   UNL     1      46.455  21.063  20.208  0.00  0.00    +0.215 A 
ATOM     22  O   UNL     1      43.142  20.607  18.922  0.00  0.00    -0.432 OA
ATOM     23  O   UNL     1      47.034  19.960  19.674  0.00  0.00    -0.297 OA
BRANCH  13  14
ATOM     14  O   UNL     1      43.249  22.861  20.166  0.00  0.00    -0.479 OA
ATOM     15  H   UNL     1      43.158  23.562  19.507  0.00  0.00    +0.403 HD
ENDBRANCH  13  14
BRANCH  17  18
ATOM     18  O   UNL     1      47.323  23.824  22.412  0.00  0.00    -0.490 OA
ATOM     19  H   UNL     1      48.276  23.669  22.371  0.00  0.00    +0.403 HD
ENDBRANCH  17  18
ENDBRANCH   8   9
BRANCH  25  26
ATOM     26  C   UNL     1      46.573  14.546  16.815  0.00  0.00    -0.008 C 
ATOM     27  C   UNL     1      46.337  13.515  17.616  0.00  0.00    -0.108 C 
ATOM     28  C   UNL     1      45.559  12.329  17.108  0.00  0.00    +0.083 C 
ATOM     29  C   UNL     1      46.849  13.530  19.034  0.00  0.00    +0.075 C 
ENDBRANCH  25  26
BRANCH  30  31
ATOM     31  O   UNL     1      49.340  15.058  16.544  0.00  0.00    -0.488 OA
ATOM     32  H   UNL     1      49.273  15.101  15.581  0.00  0.00    +0.389 HD
ENDBRANCH  30  31
BRANCH   6   5
ATOM      5  C   UNL     1      50.645  17.354  17.541  0.00  0.00    +0.117 C 
BRANCH   5   4
ATOM      1  C   UNL     1      52.571  19.307  18.194  0.00  0.00    +0.076 C 
ATOM      2  C   UNL     1      51.727  19.464  16.955  0.00  0.00    -0.123 C 
ATOM      3  C   UNL     1      51.865  20.697  16.100  0.00  0.00    +0.072 C 
ATOM      4  C   UNL     1      50.873  18.527  16.622  0.00  0.00    -0.060 C 
ENDBRANCH   5   4
ENDBRANCH   6   5
TORSDOF 7
ENDMDL
MODEL 2
REMARK VINA RESULT:      -7.1      2.485      3.470
REMARK  Name = ZINC95486050
REMARK  11 active torsions:
REMARK  status: ('A' for Active; 'I' for Inactive)
REMARK    1  A    between atoms: C1_1  and  C2_2
REMARK    2  A    between atoms: C2_2  and  C24_30
REMARK    3  A    between atoms: C3_3  and  C4_4
REMARK    4  A    between atoms: C4_4  and  C5_5
REMARK    5  A    between atoms: C7_7  and  C15_16
REMARK    6  A    between atoms: C9_9  and  C11_12
REMARK    7  A    between atoms: C10_10  and  O1_11
REMARK    8  A    between atoms: C12_13  and  C13_14
REMARK    9  A    between atoms: C12_13  and  C14_15
REMARK   10  A    between atoms: C19_22  and  O5_29
REMARK   11  A    between atoms: C21_24  and  O4_28
REMARK                            x       y       z     vdW  Elec       q    Type
REMARK                         _______ _______ _______ _____ _____    ______ ____
ROOT
ATOM      6  C   UNL     1      48.557  18.516  18.799  0.00  0.00    -0.096 A 
ATOM      7  C   UNL     1      47.407  18.995  19.397  0.00  0.00    +0.042 A 
ATOM      8  C   UNL     1      46.188  18.383  19.159  0.00  0.00    -0.099 A 
ATOM     24  C   UNL     1      46.111  17.289  18.323  0.00  0.00    +0.063 A 
ATOM     25  C   UNL     1      47.266  16.796  17.714  0.00  0.00    -0.071 A 
ATOM     30  C   UNL     1      48.495  17.421  17.952  0.00  0.00    +0.131 A 
ENDROOT
BRANCH   8   9
ATOM      9  C   UNL     1      44.941  18.914  19.817  0.00  0.00    +0.239 C 
ATOM     10  C   UNL     1      44.236  17.778  20.574  0.00  0.00    +0.038 C 
ATOM     11  C   UNL     1      42.974  18.360  21.185  0.00  0.00    +0.403 C 
ATOM     12  C   UNL     1      42.221  19.307  20.357  0.00  0.00    -0.294 A 
ATOM     13  C   UNL     1      40.923  19.702  20.720  0.00  0.00    +0.223 A 
ATOM     16  C   UNL     1      40.240  20.607  19.928  0.00  0.00    -0.075 A 
ATOM     17  C   UNL     1      40.835  21.117  18.781  0.00  0.00    +0.198 A 
ATOM     20  C   UNL     1      42.116  20.727  18.413  0.00  0.00    -0.052 A 
ATOM     21  C   UNL     1      42.817  19.821  19.190  0.00  0.00    +0.215 A 
ATOM     22  O   UNL     1      42.608  18.057  22.302  0.00  0.00    -0.432 OA
ATOM     23  O   UNL     1      44.062  19.435  18.821  0.00  0.00    -0.297 OA
BRANCH  13  14
ATOM     14  O   UNL     1      40.345  19.199  21.839  0.00  0.00    -0.479 OA
ATOM     15  H   UNL     1      40.723  19.537  22.662  0.00  0.00    +0.403 HD
ENDBRANCH  13  14
BRANCH  17  18
ATOM     18  O   UNL     1      40.158  22.007  18.011  0.00  0.00    -0.490 OA
ATOM     19  H   UNL     1      40.140  22.904  18.371  0.00  0.00    +0.403 HD
ENDBRANCH  17  18
ENDBRANCH   8   9
BRANCH  25  26
ATOM     26  C   UNL     1      47.190  15.624  16.818  0.00  0.00    -0.008 C 
ATOM     27  C   UNL     1      47.168  14.399  17.327  0.00  0.00    -0.108 C 
ATOM     28  C   UNL     1      46.939  13.213  16.427  0.00  0.00    +0.083 C 
ATOM     29  C   UNL     1      47.374  14.195  18.806  0.00  0.00    +0.075 C 
ENDBRANCH  25  26
BRANCH  30  31
ATOM     31  O   UNL     1      49.624  16.953  17.360  0.00  0.00    -0.488 OA
ATOM     32  H   UNL     1      50.395  16.930  17.944  0.00  0.00    +0.389 HD
ENDBRANCH  30  31
BRANCH   6   5
ATOM      5  C   UNL     1      49.879  19.190  19.064  0.00  0.00    +0.117 C 
BRANCH   5   4
ATOM      1  C   UNL     1      52.255  19.114  17.547  0.00  0.00    +0.076 C 
ATOM      2  C   UNL     1      51.262  20.229  17.340  0.00  0.00    -0.123 C 
ATOM      3  C   UNL     1      51.569  21.340  16.370  0.00  0.00    +0.072 C 
ATOM      4  C   UNL     1      50.133  20.231  18.003  0.00  0.00    -0.060 C 
ENDBRANCH   5   4
ENDBRANCH   6   5
TORSDOF 7
ENDMDL
MODEL 3
REMARK VINA RESULT:      -6.9      2.514      5.615
REMARK  Name = ZINC95486050
REMARK  11 active torsions:
REMARK  status: ('A' for Active; 'I' for Inactive)
REMARK    1  A    between atoms: C1_1  and  C2_2
REMARK    2  A    between atoms: C2_2  and  C24_30
REMARK    3  A    between atoms: C3_3  and  C4_4
REMARK    4  A    between atoms: C4_4  and  C5_5
REMARK    5  A    between atoms: C7_7  and  C15_16
REMARK    6  A    between atoms: C9_9  and  C11_12
REMARK    7  A    between atoms: C10_10  and  O1_11
REMARK    8  A    between atoms: C12_13  and  C13_14
REMARK    9  A    between atoms: C12_13  and  C14_15
REMARK   10  A    between atoms: C19_22  and  O5_29
REMARK   11  A    between atoms: C21_24  and  O4_28
REMARK                            x       y       z     vdW  Elec       q    Type
REMARK                         _______ _______ _______ _____ _____    ______ ____
ROOT
ATOM      6  C   UNL     1      47.828  17.411  18.000  0.00  0.00    -0.096 A 
ATOM      7  C   UNL     1      46.619  17.707  18.599  0.00  0.00    +0.042 A 
ATOM      8  C   UNL     1      46.437  18.917  19.246  0.00  0.00    -0.099 A 
ATOM     24  C   UNL     1      47.463  19.838  19.299  0.00  0.00    +0.063 A 
ATOM     25  C   UNL     1      48.688  19.550  18.698  0.00  0.00    -0.071 A 
ATOM     30  C   UNL     1      48.870  18.323  18.049  0.00  0.00    +0.131 A 
ENDROOT
BRANCH   8   9
ATOM      9  C   UNL     1      45.113  19.230  19.894  0.00  0.00    +0.239 C 
ATOM     10  C   UNL     1      44.502  17.941  20.463  0.00  0.00    +0.038 C 
ATOM     11  C   UNL     1      43.161  18.309  21.070  0.00  0.00    +0.403 C 
ATOM     12  C   UNL     1      42.346  19.275  20.325  0.00  0.00    -0.294 A 
ATOM     13  C   UNL     1      41.000  19.487  20.661  0.00  0.00    +0.223 A 
ATOM     16  C   UNL     1      40.258  20.412  19.950  0.00  0.00    -0.075 A 
ATOM     17  C   UNL     1      40.844  21.124  18.910  0.00  0.00    +0.198 A 
ATOM     20  C   UNL     1      42.173  20.915  18.569  0.00  0.00    -0.052 A 
ATOM     21  C   UNL     1      42.933  19.992  19.266  0.00  0.00    +0.215 A 
ATOM     22  O   UNL     1      42.782  17.829  22.119  0.00  0.00    -0.432 OA
ATOM     23  O   UNL     1      44.227  19.784  18.922  0.00  0.00    -0.297 OA
BRANCH  13  14
ATOM     14  O   UNL     1      40.431  18.788  21.675  0.00  0.00    -0.479 OA
ATOM     15  H   UNL     1      40.380  19.276  22.508  0.00  0.00    +0.403 HD
ENDBRANCH  13  14
BRANCH  17  18
ATOM     18  O   UNL     1      40.108  22.032  18.220  0.00  0.00    -0.490 OA
ATOM     19  H   UNL     1      40.624  22.772  17.872  0.00  0.00    +0.403 HD
ENDBRANCH  17  18
ENDBRANCH   8   9
BRANCH  25  26
ATOM     26  C   UNL     1      49.790  20.532  18.751  0.00  0.00    -0.008 C 
ATOM     27  C   UNL     1      50.689  20.470  19.724  0.00  0.00    -0.108 C 
ATOM     28  C   UNL     1      51.895  21.372  19.696  0.00  0.00    +0.083 C 
ATOM     29  C   UNL     1      50.503  19.495  20.859  0.00  0.00    +0.075 C 
ENDBRANCH  25  26
BRANCH  30  31
ATOM     31  O   UNL     1      50.061  18.029  17.466  0.00  0.00    -0.488 OA
ATOM     32  H   UNL     1      50.811  18.036  18.076  0.00  0.00    +0.389 HD
ENDBRANCH  30  31
BRANCH   6   5
ATOM      5  C   UNL     1      48.016  16.090  17.298  0.00  0.00    +0.117 C 
BRANCH   5   4
ATOM      1  C   UNL     1      47.679  13.592  16.033  0.00  0.00    +0.076 C 
ATOM      2  C   UNL     1      46.857  13.941  17.247  0.00  0.00    -0.123 C 
ATOM      3  C   UNL     1      45.807  12.983  17.745  0.00  0.00    +0.072 C 
ATOM      4  C   UNL     1      47.055  15.078  17.867  0.00  0.00    -0.060 C 
ENDBRANCH   5   4
ENDBRANCH   6   5
TORSDOF 7
ENDMDL
MODEL 4
REMARK VINA RESULT:      -6.5      2.334      7.715
REMARK  Name = ZINC95486050
REMARK  11 active torsions:
REMARK  status: ('A' for Active; 'I' for Inactive)
REMARK    1  A    between atoms: C1_1  and  C2_2
REMARK    2  A    between atoms: C2_2  and  C24_30
REMARK    3  A    between atoms: C3_3  and  C4_4
REMARK    4  A    between atoms: C4_4  and  C5_5
REMARK    5  A    between atoms: C7_7  and  C15_16
REMARK    6  A    between atoms: C9_9  and  C11_12
REMARK    7  A    between atoms: C10_10  and  O1_11
REMARK    8  A    between atoms: C12_13  and  C13_14
REMARK    9  A    between atoms: C12_13  and  C14_15
REMARK   10  A    between atoms: C19_22  and  O5_29
REMARK   11  A    between atoms: C21_24  and  O4_28
REMARK                            x       y       z     vdW  Elec       q    Type
REMARK                         _______ _______ _______ _____ _____    ______ ____
ROOT
ATOM      6  C   UNL     1      48.748  18.267  18.455  0.00  0.00    -0.096 A 
ATOM      7  C   UNL     1      48.453  17.033  17.906  0.00  0.00    +0.042 A 
ATOM      8  C   UNL     1      47.148  16.708  17.577  0.00  0.00    -0.099 A 
ATOM     24  C   UNL     1      46.131  17.613  17.795  0.00  0.00    +0.063 A 
ATOM     25  C   UNL     1      46.416  18.861  18.348  0.00  0.00    -0.071 A 
ATOM     30  C   UNL     1      47.736  19.184  18.685  0.00  0.00    +0.131 A 
ENDROOT
BRANCH   8   9
ATOM      9  C   UNL     1      46.839  15.361  16.977  0.00  0.00    +0.239 C 
ATOM     10  C   UNL     1      46.243  14.443  18.055  0.00  0.00    +0.038 C 
ATOM     11  C   UNL     1      45.985  13.096  17.406  0.00  0.00    +0.403 C 
ATOM     12  C   UNL     1      47.007  12.611  16.472  0.00  0.00    -0.294 A 
ATOM     13  C   UNL     1      46.991  11.282  16.019  0.00  0.00    +0.223 A 
ATOM     16  C   UNL     1      47.959  10.855  15.128  0.00  0.00    -0.075 A 
ATOM     17  C   UNL     1      48.939  11.736  14.689  0.00  0.00    +0.198 A 
ATOM     20  C   UNL     1      48.963  13.050  15.136  0.00  0.00    -0.052 A 
ATOM     21  C   UNL     1      48.005  13.498  16.029  0.00  0.00    +0.215 A 
ATOM     22  O   UNL     1      44.985  12.452  17.647  0.00  0.00    -0.432 OA
ATOM     23  O   UNL     1      48.041  14.778  16.472  0.00  0.00    -0.297 OA
BRANCH  13  14
ATOM     14  O   UNL     1      46.034  10.424  16.453  0.00  0.00    -0.479 OA
ATOM     15  H   UNL     1      45.151  10.614  16.109  0.00  0.00    +0.403 HD
ENDBRANCH  13  14
BRANCH  17  18
ATOM     18  O   UNL     1      49.883  11.308  13.812  0.00  0.00    -0.490 OA
ATOM     19  H   UNL     1      49.750  11.623  12.908  0.00  0.00    +0.403 HD
ENDBRANCH  17  18
ENDBRANCH   8   9
BRANCH  25  26
ATOM     26  C   UNL     1      45.330  19.835  18.584  0.00  0.00    -0.008 C 
ATOM     27  C   UNL     1      44.666  19.824  19.732  0.00  0.00    -0.108 C 
ATOM     28  C   UNL     1      43.665  20.908  20.033  0.00  0.00    +0.083 C 
ATOM     29  C   UNL     1      44.914  18.726  20.734  0.00  0.00    +0.075 C 
ENDBRANCH  25  26
BRANCH  30  31
ATOM     31  O   UNL     1      48.024  20.395  19.230  0.00  0.00    -0.488 OA
ATOM     32  H   UNL     1      47.720  21.146  18.703  0.00  0.00    +0.389 HD
ENDBRANCH  30  31
BRANCH   6   5
ATOM      5  C   UNL     1      50.172  18.611  18.811  0.00  0.00    +0.117 C 
BRANCH   5   4
ATOM      1  C   UNL     1      51.092  21.054  17.745  0.00  0.00    +0.076 C 
ATOM      2  C   UNL     1      51.391  19.760  17.033  0.00  0.00    -0.123 C 
ATOM      3  C   UNL     1      52.124  19.775  15.717  0.00  0.00    +0.072 C 
ATOM      4  C   UNL     1      51.013  18.621  17.559  0.00  0.00    -0.060 C 
ENDBRANCH   5   4
ENDBRANCH   6   5
TORSDOF 7
ENDMDL
MODEL 5
REMARK VINA RESULT:      -6.2      2.020      2.546
REMARK  Name = ZINC95486050
REMARK  11 active torsions:
REMARK  status: ('A' for Active; 'I' for Inactive)
REMARK    1  A    between atoms: C1_1  and  C2_2
REMARK    2  A    between atoms: C2_2  and  C24_30
REMARK    3  A    between atoms: C3_3  and  C4_4
REMARK    4  A    between atoms: C4_4  and  C5_5
REMARK    5  A    between atoms: C7_7  and  C15_16
REMARK    6  A    between atoms: C9_9  and  C11_12
REMARK    7  A    between atoms: C10_10  and  O1_11
REMARK    8  A    between atoms: C12_13  and  C13_14
REMARK    9  A    between atoms: C12_13  and  C14_15
REMARK   10  A    between atoms: C19_22  and  O5_29
REMARK   11  A    between atoms: C21_24  and  O4_28
REMARK                            x       y       z     vdW  Elec       q    Type
REMARK                         _______ _______ _______ _____ _____    ______ ____
ROOT
ATOM      6  C   UNL     1      49.754  18.859  19.549  0.00  0.00    -0.096 A 
ATOM      7  C   UNL     1      48.549  19.510  19.736  0.00  0.00    +0.042 A 
ATOM      8  C   UNL     1      47.372  18.787  19.839  0.00  0.00    -0.099 A 
ATOM     24  C   UNL     1      47.393  17.410  19.754  0.00  0.00    +0.063 A 
ATOM     25  C   UNL     1      48.603  16.743  19.566  0.00  0.00    -0.071 A 
ATOM     30  C   UNL     1      49.790  17.477  19.457  0.00  0.00    +0.131 A 
ENDROOT
BRANCH   8   9
ATOM      9  C   UNL     1      46.065  19.507  20.044  0.00  0.00    +0.239 C 
ATOM     10  C   UNL     1      44.933  18.719  19.371  0.00  0.00    +0.038 C 
ATOM     11  C   UNL     1      43.651  19.505  19.579  0.00  0.00    +0.403 C 
ATOM     12  C   UNL     1      43.747  20.962  19.448  0.00  0.00    -0.294 A 
ATOM     13  C   UNL     1      42.589  21.753  19.370  0.00  0.00    +0.223 A 
ATOM     16  C   UNL     1      42.709  23.126  19.260  0.00  0.00    -0.075 A 
ATOM     17  C   UNL     1      43.966  23.716  19.226  0.00  0.00    +0.198 A 
ATOM     20  C   UNL     1      45.115  22.940  19.298  0.00  0.00    -0.052 A 
ATOM     21  C   UNL     1      45.019  21.563  19.406  0.00  0.00    +0.215 A 
ATOM     22  O   UNL     1      42.601  18.955  19.840  0.00  0.00    -0.432 OA
ATOM     23  O   UNL     1      46.143  20.810  19.465  0.00  0.00    -0.297 OA
BRANCH  13  14
ATOM     14  O   UNL     1      41.364  21.173  19.400  0.00  0.00    -0.479 OA
ATOM     15  H   UNL     1      41.352  20.262  19.077  0.00  0.00    +0.403 HD
ENDBRANCH  13  14
BRANCH  17  18
ATOM     18  O   UNL     1      44.073  25.065  19.121  0.00  0.00    -0.490 OA
ATOM     19  H   UNL     1      44.875  25.361  18.670  0.00  0.00    +0.403 HD
ENDBRANCH  17  18
ENDBRANCH   8   9
BRANCH  25  26
ATOM     26  C   UNL     1      48.632  15.268  19.476  0.00  0.00    -0.008 C 
ATOM     27  C   UNL     1      48.380  14.670  18.319  0.00  0.00    -0.108 C 
ATOM     28  C   UNL     1      48.557  13.179  18.189  0.00  0.00    +0.083 C 
ATOM     29  C   UNL     1      47.919  15.481  17.136  0.00  0.00    +0.075 C 
ENDBRANCH  25  26
BRANCH  30  31
ATOM     31  O   UNL     1      50.973  16.838  19.267  0.00  0.00    -0.488 OA
ATOM     32  H   UNL     1      51.498  17.190  18.536  0.00  0.00    +0.389 HD
ENDBRANCH  30  31
BRANCH   6   5
ATOM      5  C   UNL     1      51.029  19.655  19.438  0.00  0.00    +0.117 C 
BRANCH   5   4
ATOM      1  C   UNL     1      52.173  19.085  16.924  0.00  0.00    +0.076 C 
ATOM      2  C   UNL     1      51.486  20.406  17.160  0.00  0.00    -0.123 C 
ATOM      3  C   UNL     1      51.469  21.450  16.073  0.00  0.00    +0.072 C 
ATOM      4  C   UNL     1      50.905  20.646  18.309  0.00  0.00    -0.060 C 
ENDBRANCH   5   4
ENDBRANCH   6   5
TORSDOF 7
ENDMDL
MODEL 6
REMARK VINA RESULT:      -6.1      2.313      7.214
REMARK  Name = ZINC95486050
REMARK  11 active torsions:
REMARK  status: ('A' for Active; 'I' for Inactive)
REMARK    1  A    between atoms: C1_1  and  C2_2
REMARK    2  A    between atoms: C2_2  and  C24_30
REMARK    3  A    between atoms: C3_3  and  C4_4
REMARK    4  A    between atoms: C4_4  and  C5_5
REMARK    5  A    between atoms: C7_7  and  C15_16
REMARK    6  A    between atoms: C9_9  and  C11_12
REMARK    7  A    between atoms: C10_10  and  O1_11
REMARK    8  A    between atoms: C12_13  and  C13_14
REMARK    9  A    between atoms: C12_13  and  C14_15
REMARK   10  A    between atoms: C19_22  and  O5_29
REMARK   11  A    between atoms: C21_24  and  O4_28
REMARK                            x       y       z     vdW  Elec       q    Type
REMARK                         _______ _______ _______ _____ _____    ______ ____
ROOT
ATOM      6  C   UNL     1      44.776  17.503  20.430  0.00  0.00    -0.096 A 
ATOM      7  C   UNL     1      46.022  17.492  19.832  0.00  0.00    +0.042 A 
ATOM      8  C   UNL     1      46.402  18.522  18.989  0.00  0.00    -0.099 A 
ATOM     24  C   UNL     1      45.539  19.568  18.737  0.00  0.00    +0.063 A 
ATOM     25  C   UNL     1      44.278  19.590  19.335  0.00  0.00    -0.071 A 
ATOM     30  C   UNL     1      43.896  18.544  20.183  0.00  0.00    +0.131 A 
ENDROOT
BRANCH   8   9
ATOM      9  C   UNL     1      47.764  18.501  18.344  0.00  0.00    +0.239 C 
ATOM     10  C   UNL     1      48.333  17.076  18.395  0.00  0.00    +0.038 C 
ATOM     11  C   UNL     1      49.714  17.121  17.766  0.00  0.00    +0.403 C 
ATOM     12  C   UNL     1      50.544  18.287  18.088  0.00  0.00    -0.294 A 
ATOM     13  C   UNL     1      51.912  18.302  17.770  0.00  0.00    +0.223 A 
ATOM     16  C   UNL     1      52.669  19.419  18.074  0.00  0.00    -0.075 A 
ATOM     17  C   UNL     1      52.077  20.514  18.692  0.00  0.00    +0.198 A 
ATOM     20  C   UNL     1      50.727  20.503  19.014  0.00  0.00    -0.052 A 
ATOM     21  C   UNL     1      49.951  19.395  18.720  0.00  0.00    +0.215 A 
ATOM     22  O   UNL     1      50.111  16.239  17.033  0.00  0.00    -0.432 OA
ATOM     23  O   UNL     1      48.637  19.385  19.047  0.00  0.00    -0.297 OA
BRANCH  13  14
ATOM     14  O   UNL     1      52.485  17.230  17.170  0.00  0.00    -0.479 OA
ATOM     15  H   UNL     1      51.896  16.754  16.570  0.00  0.00    +0.403 HD
ENDBRANCH  13  14
BRANCH  17  18
ATOM     18  O   UNL     1      52.828  21.607  18.984  0.00  0.00    -0.490 OA
ATOM     19  H   UNL     1      52.622  22.381  18.442  0.00  0.00    +0.403 HD
ENDBRANCH  17  18
ENDBRANCH   8   9
BRANCH  25  26
ATOM     26  C   UNL     1      43.350  20.708  19.070  0.00  0.00    -0.008 C 
ATOM     27  C   UNL     1      43.548  21.886  19.646  0.00  0.00    -0.108 C 
ATOM     28  C   UNL     1      42.694  23.066  19.261  0.00  0.00    +0.083 C 
ATOM     29  C   UNL     1      44.627  22.044  20.686  0.00  0.00    +0.075 C 
ENDBRANCH  25  26
BRANCH  30  31
ATOM     31  O   UNL     1      42.669  18.551  20.765  0.00  0.00    -0.488 OA
ATOM     32  H   UNL     1      41.951  18.798  20.167  0.00  0.00    +0.389 HD
ENDBRANCH  30  31
BRANCH   6   5
ATOM      5  C   UNL     1      44.372  16.376  21.346  0.00  0.00    +0.117 C 
BRANCH   5   4
ATOM      1  C   UNL     1      45.228  13.894  20.316  0.00  0.00    +0.076 C 
ATOM      2  C   UNL     1      45.970  14.533  21.462  0.00  0.00    -0.123 C 
ATOM      3  C   UNL     1      47.130  13.815  22.101  0.00  0.00    +0.072 C 
ATOM      4  C   UNL     1      45.607  15.713  21.901  0.00  0.00    -0.060 C 
ENDBRANCH   5   4
ENDBRANCH   6   5
TORSDOF 7
ENDMDL
MODEL 7
REMARK VINA RESULT:      -6.1      2.510      7.317
REMARK  Name = ZINC95486050
REMARK  11 active torsions:
REMARK  status: ('A' for Active; 'I' for Inactive)
REMARK    1  A    between atoms: C1_1  and  C2_2
REMARK    2  A    between atoms: C2_2  and  C24_30
REMARK    3  A    between atoms: C3_3  and  C4_4
REMARK    4  A    between atoms: C4_4  and  C5_5
REMARK    5  A    between atoms: C7_7  and  C15_16
REMARK    6  A    between atoms: C9_9  and  C11_12
REMARK    7  A    between atoms: C10_10  and  O1_11
REMARK    8  A    between atoms: C12_13  and  C13_14
REMARK    9  A    between atoms: C12_13  and  C14_15
REMARK   10  A    between atoms: C19_22  and  O5_29
REMARK   11  A    between atoms: C21_24  and  O4_28
REMARK                            x       y       z     vdW  Elec       q    Type
REMARK                         _______ _______ _______ _____ _____    ______ ____
ROOT
ATOM      6  C   UNL     1      46.688  19.439  20.134  0.00  0.00    -0.096 A 
ATOM      7  C   UNL     1      46.977  18.356  19.325  0.00  0.00    +0.042 A 
ATOM      8  C   UNL     1      46.044  17.350  19.144  0.00  0.00    -0.099 A 
ATOM     24  C   UNL     1      44.816  17.420  19.769  0.00  0.00    +0.063 A 
ATOM     25  C   UNL     1      44.514  18.509  20.587  0.00  0.00    -0.071 A 
ATOM     30  C   UNL     1      45.462  19.521  20.773  0.00  0.00    +0.131 A 
ENDROOT
BRANCH   8   9
ATOM      9  C   UNL     1      46.370  16.175  18.259  0.00  0.00    +0.239 C 
ATOM     10  C   UNL     1      45.793  14.892  18.875  0.00  0.00    +0.038 C 
ATOM     11  C   UNL     1      46.180  13.742  17.964  0.00  0.00    +0.403 C 
ATOM     12  C   UNL     1      47.534  13.776  17.403  0.00  0.00    -0.294 A 
ATOM     13  C   UNL     1      48.074  12.648  16.763  0.00  0.00    +0.223 A 
ATOM     16  C   UNL     1      49.349  12.712  16.232  0.00  0.00    -0.075 A 
ATOM     17  C   UNL     1      50.089  13.884  16.335  0.00  0.00    +0.198 A 
ATOM     20  C   UNL     1      49.563  15.001  16.971  0.00  0.00    -0.052 A 
ATOM     21  C   UNL     1      48.290  14.958  17.511  0.00  0.00    +0.215 A 
ATOM     22  O   UNL     1      45.407  12.840  17.712  0.00  0.00    -0.432 OA
ATOM     23  O   UNL     1      47.787  16.047  18.141  0.00  0.00    -0.297 OA
BRANCH  13  14
ATOM     14  O   UNL     1      47.349  11.506  16.668  0.00  0.00    -0.479 OA
ATOM     15  H   UNL     1      46.694  11.397  17.370  0.00  0.00    +0.403 HD
ENDBRANCH  13  14
BRANCH  17  18
ATOM     18  O   UNL     1      51.339  13.938  15.807  0.00  0.00    -0.490 OA
ATOM     19  H   UNL     1      51.936  14.536  16.275  0.00  0.00    +0.403 HD
ENDBRANCH  17  18
ENDBRANCH   8   9
BRANCH  25  26
ATOM     26  C   UNL     1      43.200  18.589  21.260  0.00  0.00    -0.008 C 
ATOM     27  C   UNL     1      42.165  19.131  20.632  0.00  0.00    -0.108 C 
ATOM     28  C   UNL     1      40.794  19.078  21.254  0.00  0.00    +0.083 C 
ATOM     29  C   UNL     1      42.362  19.801  19.296  0.00  0.00    +0.075 C 
ENDBRANCH  25  26
BRANCH  30  31
ATOM     31  O   UNL     1      45.180  20.582  21.572  0.00  0.00    -0.488 OA
ATOM     32  H   UNL     1      44.932  20.340  22.475  0.00  0.00    +0.389 HD
ENDBRANCH  30  31
BRANCH   6   5
ATOM      5  C   UNL     1      47.712  20.529  20.325  0.00  0.00    +0.117 C 
BRANCH   5   4
ATOM      1  C   UNL     1      50.517  20.672  20.569  0.00  0.00    +0.076 C 
ATOM      2  C   UNL     1      49.872  20.755  19.209  0.00  0.00    -0.123 C 
ATOM      3  C   UNL     1      50.722  20.981  17.986  0.00  0.00    +0.072 C 
ATOM      4  C   UNL     1      48.574  20.630  19.092  0.00  0.00    -0.060 C 
ENDBRANCH   5   4
ENDBRANCH   6   5
TORSDOF 7
ENDMDL
MODEL 8
REMARK VINA RESULT:      -6.1      2.250      7.507
REMARK  Name = ZINC95486050
REMARK  11 active torsions:
REMARK  status: ('A' for Active; 'I' for Inactive)
REMARK    1  A    between atoms: C1_1  and  C2_2
REMARK    2  A    between atoms: C2_2  and  C24_30
REMARK    3  A    between atoms: C3_3  and  C4_4
REMARK    4  A    between atoms: C4_4  and  C5_5
REMARK    5  A    between atoms: C7_7  and  C15_16
REMARK    6  A    between atoms: C9_9  and  C11_12
REMARK    7  A    between atoms: C10_10  and  O1_11
REMARK    8  A    between atoms: C12_13  and  C13_14
REMARK    9  A    between atoms: C12_13  and  C14_15
REMARK   10  A    between atoms: C19_22  and  O5_29
REMARK   11  A    between atoms: C21_24  and  O4_28
REMARK                            x       y       z     vdW  Elec       q    Type
REMARK                         _______ _______ _______ _____ _____    ______ ____
ROOT
ATOM      6  C   UNL     1      48.923  19.631  19.511  0.00  0.00    -0.096 A 
ATOM      7  C   UNL     1      49.221  18.386  18.988  0.00  0.00    +0.042 A 
ATOM      8  C   UNL     1      48.293  17.361  19.052  0.00  0.00    -0.099 A 
ATOM     24  C   UNL     1      47.062  17.573  19.639  0.00  0.00    +0.063 A 
ATOM     25  C   UNL     1      46.751  18.825  20.169  0.00  0.00    -0.071 A 
ATOM     30  C   UNL     1      47.694  19.857  20.108  0.00  0.00    +0.131 A 
ENDROOT
BRANCH   8   9
ATOM      9  C   UNL     1      48.627  16.009  18.477  0.00  0.00    +0.239 C 
ATOM     10  C   UNL     1      49.728  16.159  17.417  0.00  0.00    +0.038 C 
ATOM     11  C   UNL     1      49.999  14.778  16.851  0.00  0.00    +0.403 C 
ATOM     12  C   UNL     1      48.830  13.923  16.620  0.00  0.00    -0.294 A 
ATOM     13  C   UNL     1      48.943  12.740  15.871  0.00  0.00    +0.223 A 
ATOM     16  C   UNL     1      47.827  11.946  15.679  0.00  0.00    -0.075 A 
ATOM     17  C   UNL     1      46.605  12.319  16.223  0.00  0.00    +0.198 A 
ATOM     20  C   UNL     1      46.484  13.490  16.960  0.00  0.00    -0.052 A 
ATOM     21  C   UNL     1      47.588  14.300  17.163  0.00  0.00    +0.215 A 
ATOM     22  O   UNL     1      51.125  14.399  16.602  0.00  0.00    -0.432 OA
ATOM     23  O   UNL     1      47.462  15.448  17.873  0.00  0.00    -0.297 OA
BRANCH  13  14
ATOM     14  O   UNL     1      50.138  12.381  15.340  0.00  0.00    -0.479 OA
ATOM     15  H   UNL     1      50.844  13.024  15.490  0.00  0.00    +0.403 HD
ENDBRANCH  13  14
BRANCH  17  18
ATOM     18  O   UNL     1      45.516  11.532  16.032  0.00  0.00    -0.490 OA
ATOM     19  H   UNL     1      45.045  11.706  15.206  0.00  0.00    +0.403 HD
ENDBRANCH  17  18
ENDBRANCH   8   9
BRANCH  25  26
ATOM     26  C   UNL     1      45.435  19.058  20.799  0.00  0.00    -0.008 C 
ATOM     27  C   UNL     1      44.390  19.384  20.050  0.00  0.00    -0.108 C 
ATOM     28  C   UNL     1      43.019  19.473  20.668  0.00  0.00    +0.083 C 
ATOM     29  C   UNL     1      44.574  19.666  18.581  0.00  0.00    +0.075 C 
ENDBRANCH  25  26
BRANCH  30  31
ATOM     31  O   UNL     1      47.404  21.079  20.627  0.00  0.00    -0.488 OA
ATOM     32  H   UNL     1      47.500  21.807  19.998  0.00  0.00    +0.389 HD
ENDBRANCH  30  31
BRANCH   6   5
ATOM      5  C   UNL     1      49.941  20.740  19.437  0.00  0.00    +0.117 C 
BRANCH   5   4
ATOM      1  C   UNL     1      52.463  20.151  18.320  0.00  0.00    +0.076 C 
ATOM      2  C   UNL     1      51.413  20.846  17.491  0.00  0.00    -0.123 C 
ATOM      3  C   UNL     1      51.733  21.286  16.086  0.00  0.00    +0.072 C 
ATOM      4  C   UNL     1      50.223  21.067  17.992  0.00  0.00    -0.060 C 
ENDBRANCH   5   4
ENDBRANCH   6   5
TORSDOF 7
ENDMDL
MODEL 9
REMARK VINA RESULT:      -6.1      2.346      8.554
REMARK  Name = ZINC95486050
REMARK  11 active torsions:
REMARK  status: ('A' for Active; 'I' for Inactive)
REMARK    1  A    between atoms: C1_1  and  C2_2
REMARK    2  A    between atoms: C2_2  and  C24_30
REMARK    3  A    between atoms: C3_3  and  C4_4
REMARK    4  A    between atoms: C4_4  and  C5_5
REMARK    5  A    between atoms: C7_7  and  C15_16
REMARK    6  A    between atoms: C9_9  and  C11_12
REMARK    7  A    between atoms: C10_10  and  O1_11
REMARK    8  A    between atoms: C12_13  and  C13_14
REMARK    9  A    between atoms: C12_13  and  C14_15
REMARK   10  A    between atoms: C19_22  and  O5_29
REMARK   11  A    between atoms: C21_24  and  O4_28
REMARK                            x       y       z     vdW  Elec       q    Type
REMARK                         _______ _______ _______ _____ _____    ______ ____
ROOT
ATOM      6  C   UNL     1      46.684  18.902  18.380  0.00  0.00    -0.096 A 
ATOM      7  C   UNL     1      46.353  17.681  17.826  0.00  0.00    +0.042 A 
ATOM      8  C   UNL     1      47.329  16.722  17.612  0.00  0.00    -0.099 A 
ATOM     24  C   UNL     1      48.641  16.979  17.952  0.00  0.00    +0.063 A 
ATOM     25  C   UNL     1      48.986  18.208  18.513  0.00  0.00    -0.071 A 
ATOM     30  C   UNL     1      47.998  19.177  18.722  0.00  0.00    +0.131 A 
ENDROOT
BRANCH   8   9
ATOM      9  C   UNL     1      46.956  15.393  17.008  0.00  0.00    +0.239 C 
ATOM     10  C   UNL     1      46.331  14.496  18.086  0.00  0.00    +0.038 C 
ATOM     11  C   UNL     1      46.009  13.165  17.431  0.00  0.00    +0.403 C 
ATOM     12  C   UNL     1      46.999  12.643  16.484  0.00  0.00    -0.294 A 
ATOM     13  C   UNL     1      46.922  11.318  16.024  0.00  0.00    +0.223 A 
ATOM     16  C   UNL     1      47.862  10.855  15.121  0.00  0.00    -0.075 A 
ATOM     17  C   UNL     1      48.874  11.696  14.677  0.00  0.00    +0.198 A 
ATOM     20  C   UNL     1      48.960  13.005  15.132  0.00  0.00    -0.052 A 
ATOM     21  C   UNL     1      48.031  13.488  16.037  0.00  0.00    +0.215 A 
ATOM     22  O   UNL     1      44.984  12.564  17.679  0.00  0.00    -0.432 OA
ATOM     23  O   UNL     1      48.126  14.763  16.487  0.00  0.00    -0.297 OA
BRANCH  13  14
ATOM     14  O   UNL     1      45.933  10.500  16.462  0.00  0.00    -0.479 OA
ATOM     15  H   UNL     1      45.989  10.286  17.403  0.00  0.00    +0.403 HD
ENDBRANCH  13  14
BRANCH  17  18
ATOM     18  O   UNL     1      49.790  11.234  13.788  0.00  0.00    -0.490 OA
ATOM     19  H   UNL     1      50.450  10.643  14.176  0.00  0.00    +0.403 HD
ENDBRANCH  17  18
ENDBRANCH   8   9
BRANCH  25  26
ATOM     26  C   UNL     1      50.390  18.488  18.880  0.00  0.00    -0.008 C 
ATOM     27  C   UNL     1      51.275  18.785  17.938  0.00  0.00    -0.108 C 
ATOM     28  C   UNL     1      52.667  19.218  18.320  0.00  0.00    +0.083 C 
ATOM     29  C   UNL     1      50.889  18.688  16.484  0.00  0.00    +0.075 C 
ENDBRANCH  25  26
BRANCH  30  31
ATOM     31  O   UNL     1      48.325  20.380  19.262  0.00  0.00    -0.488 OA
ATOM     32  H   UNL     1      48.923  20.321  20.020  0.00  0.00    +0.389 HD
ENDBRANCH  30  31
BRANCH   6   5
ATOM      5  C   UNL     1      45.614  19.940  18.608  0.00  0.00    +0.117 C 
BRANCH   5   4
ATOM      1  C   UNL     1      43.443  21.478  19.544  0.00  0.00    +0.076 C 
ATOM      2  C   UNL     1      43.359  19.973  19.544  0.00  0.00    -0.123 C 
ATOM      3  C   UNL     1      42.140  19.287  20.106  0.00  0.00    +0.072 C 
ATOM      4  C   UNL     1      44.344  19.261  19.055  0.00  0.00    -0.060 C 
ENDBRANCH   5   4
ENDBRANCH   6   5
TORSDOF 7
ENDMDL
