MODEL 1
REMARK VINA RESULT:      -6.5      0.000      0.000
REMARK  Name = ZINC13480351
REMARK  11 active torsions:
REMARK  status: ('A' for Active; 'I' for Inactive)
REMARK    1  A    between atoms: C1_1  and  C2_2
REMARK    2  A    between atoms: C2_2  and  C22_28
REMARK    3  A    between atoms: C3_3  and  C4_4
REMARK    4  A    between atoms: C4_4  and  O1_5
REMARK    5  A    between atoms: O1_5  and  C5_6
REMARK    6  A    between atoms: C11_12  and  O3_17
REMARK    7  A    between atoms: C13_14  and  O2_16
REMARK    8  A    between atoms: C17_21  and  C19_23
REMARK    9  A    between atoms: C17_21  and  O5_24
REMARK   10  A    between atoms: O5_24  and  C20_25
REMARK   11  A    between atoms: C20_25  and  C21_27
REMARK                            x       y       z     vdW  Elec       q    Type
REMARK                         _______ _______ _______ _____ _____    ______ ____
ROOT
ATOM      7  C   UNL     1      44.361  21.625  19.628  0.00  0.00    +0.174 A 
ATOM      8  C   UNL     1      45.333  20.913  18.957  0.00  0.00    -0.031 A 
ATOM      9  C   UNL     1      46.636  20.854  19.471  0.00  0.00    +0.046 A 
ATOM     10  C   UNL     1      47.643  20.128  18.805  0.00  0.00    +0.004 A 
ATOM     11  C   UNL     1      48.906  20.074  19.305  0.00  0.00    -0.003 A 
ATOM     12  C   UNL     1      49.223  20.751  20.498  0.00  0.00    -0.224 A 
ATOM     13  C   UNL     1      50.590  20.700  21.032  0.00  0.00    +0.409 C 
ATOM     14  C   UNL     1      51.548  19.698  20.422  0.00  0.00    +0.030 C 
ATOM     15  C   UNL     1      51.353  19.743  18.901  0.00  0.00    +0.137 C 
ATOM     20  C   UNL     1      51.550  21.177  18.404  0.00  0.00    +0.045 C 
ATOM     21  O   UNL     1      50.940  21.435  21.932  0.00  0.00    -0.435 OA
ATOM     22  C   UNL     1      48.248  21.479  21.188  0.00  0.00    +0.226 A 
ATOM     25  C   UNL     1      49.942  19.275  18.557  0.00  0.00    +0.126 C 
ATOM     26  C   UNL     1      46.939  21.535  20.677  0.00  0.00    -0.156 A 
ATOM     27  C   UNL     1      45.928  22.255  21.345  0.00  0.00    +0.190 A 
ATOM     30  C   UNL     1      44.657  22.294  20.817  0.00  0.00    -0.095 A 
ENDROOT
BRANCH  22  23
ATOM     23  O   UNL     1      48.561  22.124  22.336  0.00  0.00    -0.463 OA
ATOM     24  H   UNL     1      47.856  22.110  22.999  0.00  0.00    +0.398 HD
ENDBRANCH  22  23
BRANCH  27  28
ATOM     28  O   UNL     1      46.207  22.908  22.501  0.00  0.00    -0.477 OA
ATOM     29  H   UNL     1      45.821  23.793  22.556  0.00  0.00    +0.395 HD
ENDBRANCH  27  28
BRANCH   7   6
ATOM      6  O   UNL     1      43.101  21.678  19.125  0.00  0.00    -0.303 OA
BRANCH   6   5
ATOM      5  C   UNL     1      42.518  20.443  18.703  0.00  0.00    +0.233 C 
BRANCH   5   4
ATOM      1  C   UNL     1      43.078  18.543  20.709  0.00  0.00    +0.078 C 
ATOM      2  C   UNL     1      41.689  19.111  20.573  0.00  0.00    -0.102 C 
ATOM      3  C   UNL     1      40.581  18.615  21.467  0.00  0.00    +0.086 C 
ATOM      4  C   UNL     1      41.444  20.035  19.677  0.00  0.00    -0.057 C 
ENDBRANCH   5   4
ENDBRANCH   6   5
ENDBRANCH   7   6
BRANCH  15  16
ATOM     16  O   UNL     1      52.322  18.872  18.261  0.00  0.00    -0.345 OA
BRANCH  16  17
ATOM     17  C   UNL     1      51.931  18.247  17.139  0.00  0.00    +0.461 C 
ATOM     18  C   UNL     1      51.869  19.004  15.837  0.00  0.00    +0.156 C 
ATOM     19  O   UNL     1      51.631  17.077  17.172  0.00  0.00    -0.504 OA
ENDBRANCH  16  17
ENDBRANCH  15  16
TORSDOF 7
ENDMDL
MODEL 2
REMARK VINA RESULT:      -6.4      1.395      7.769
REMARK  Name = ZINC13480351
REMARK  11 active torsions:
REMARK  status: ('A' for Active; 'I' for Inactive)
REMARK    1  A    between atoms: C1_1  and  C2_2
REMARK    2  A    between atoms: C2_2  and  C22_28
REMARK    3  A    between atoms: C3_3  and  C4_4
REMARK    4  A    between atoms: C4_4  and  O1_5
REMARK    5  A    between atoms: O1_5  and  C5_6
REMARK    6  A    between atoms: C11_12  and  O3_17
REMARK    7  A    between atoms: C13_14  and  O2_16
REMARK    8  A    between atoms: C17_21  and  C19_23
REMARK    9  A    between atoms: C17_21  and  O5_24
REMARK   10  A    between atoms: O5_24  and  C20_25
REMARK   11  A    between atoms: C20_25  and  C21_27
REMARK                            x       y       z     vdW  Elec       q    Type
REMARK                         _______ _______ _______ _____ _____    ______ ____
ROOT
ATOM      7  C   UNL     1      50.504  19.813  20.273  0.00  0.00    +0.174 A 
ATOM      8  C   UNL     1      49.359  19.495  19.573  0.00  0.00    -0.031 A 
ATOM      9  C   UNL     1      48.162  20.173  19.847  0.00  0.00    +0.046 A 
ATOM     10  C   UNL     1      46.982  19.867  19.140  0.00  0.00    +0.004 A 
ATOM     11  C   UNL     1      45.823  20.525  19.407  0.00  0.00    -0.003 A 
ATOM     12  C   UNL     1      45.789  21.521  20.404  0.00  0.00    -0.224 A 
ATOM     13  C   UNL     1      44.534  22.223  20.698  0.00  0.00    +0.409 C 
ATOM     14  C   UNL     1      43.380  22.041  19.735  0.00  0.00    +0.030 C 
ATOM     15  C   UNL     1      43.321  20.553  19.366  0.00  0.00    +0.137 C 
ATOM     20  C   UNL     1      43.207  19.715  20.642  0.00  0.00    +0.045 C 
ATOM     21  O   UNL     1      44.425  22.927  21.681  0.00  0.00    -0.435 OA
ATOM     22  C   UNL     1      46.942  21.852  21.122  0.00  0.00    +0.226 A 
ATOM     25  C   UNL     1      44.593  20.166  18.615  0.00  0.00    +0.126 C 
ATOM     26  C   UNL     1      48.145  21.177  20.847  0.00  0.00    -0.156 A 
ATOM     27  C   UNL     1      49.328  21.485  21.548  0.00  0.00    +0.190 A 
ATOM     30  C   UNL     1      50.489  20.803  21.256  0.00  0.00    -0.095 A 
ENDROOT
BRANCH  22  23
ATOM     23  O   UNL     1      46.901  22.812  22.075  0.00  0.00    -0.463 OA
ATOM     24  H   UNL     1      46.063  23.294  22.113  0.00  0.00    +0.398 HD
ENDBRANCH  22  23
BRANCH  27  28
ATOM     28  O   UNL     1      49.323  22.446  22.505  0.00  0.00    -0.477 OA
ATOM     29  H   UNL     1      50.102  23.017  22.493  0.00  0.00    +0.395 HD
ENDBRANCH  27  28
BRANCH   7   6
ATOM      6  O   UNL     1      51.659  19.153  20.004  0.00  0.00    -0.303 OA
BRANCH   6   5
ATOM      5  C   UNL     1      52.596  19.807  19.144  0.00  0.00    +0.233 C 
BRANCH   5   4
ATOM      1  C   UNL     1      51.429  21.146  16.954  0.00  0.00    +0.078 C 
ATOM      2  C   UNL     1      51.980  19.753  16.783  0.00  0.00    -0.102 C 
ATOM      3  C   UNL     1      51.849  19.049  15.457  0.00  0.00    +0.086 C 
ATOM      4  C   UNL     1      52.572  19.155  17.787  0.00  0.00    -0.057 C 
ENDBRANCH   5   4
ENDBRANCH   6   5
ENDBRANCH   7   6
BRANCH  15  16
ATOM     16  O   UNL     1      42.167  20.307  18.521  0.00  0.00    -0.345 OA
BRANCH  16  17
ATOM     17  C   UNL     1      40.967  20.655  19.013  0.00  0.00    +0.461 C 
ATOM     18  C   UNL     1      40.191  21.782  18.381  0.00  0.00    +0.156 C 
ATOM     19  O   UNL     1      40.508  20.064  19.962  0.00  0.00    -0.504 OA
ENDBRANCH  16  17
ENDBRANCH  15  16
TORSDOF 7
ENDMDL
MODEL 3
REMARK VINA RESULT:      -6.0      2.742      4.389
REMARK  Name = ZINC13480351
REMARK  11 active torsions:
REMARK  status: ('A' for Active; 'I' for Inactive)
REMARK    1  A    between atoms: C1_1  and  C2_2
REMARK    2  A    between atoms: C2_2  and  C22_28
REMARK    3  A    between atoms: C3_3  and  C4_4
REMARK    4  A    between atoms: C4_4  and  O1_5
REMARK    5  A    between atoms: O1_5  and  C5_6
REMARK    6  A    between atoms: C11_12  and  O3_17
REMARK    7  A    between atoms: C13_14  and  O2_16
REMARK    8  A    between atoms: C17_21  and  C19_23
REMARK    9  A    between atoms: C17_21  and  O5_24
REMARK   10  A    between atoms: O5_24  and  C20_25
REMARK   11  A    between atoms: C20_25  and  C21_27
REMARK                            x       y       z     vdW  Elec       q    Type
REMARK                         _______ _______ _______ _____ _____    ______ ____
ROOT
ATOM      7  C   UNL     1      44.594  17.725  21.224  0.00  0.00    +0.174 A 
ATOM      8  C   UNL     1      45.685  18.520  20.939  0.00  0.00    -0.031 A 
ATOM      9  C   UNL     1      46.669  18.062  20.051  0.00  0.00    +0.046 A 
ATOM     10  C   UNL     1      47.788  18.860  19.742  0.00  0.00    +0.004 A 
ATOM     11  C   UNL     1      48.742  18.413  18.882  0.00  0.00    -0.003 A 
ATOM     12  C   UNL     1      48.621  17.140  18.292  0.00  0.00    -0.224 A 
ATOM     13  C   UNL     1      49.656  16.655  17.371  0.00  0.00    +0.409 C 
ATOM     14  C   UNL     1      50.685  17.651  16.878  0.00  0.00    +0.030 C 
ATOM     15  C   UNL     1      51.110  18.505  18.080  0.00  0.00    +0.137 C 
ATOM     20  C   UNL     1      51.613  17.592  19.201  0.00  0.00    +0.045 C 
ATOM     21  O   UNL     1      49.687  15.495  17.016  0.00  0.00    -0.435 OA
ATOM     22  C   UNL     1      47.522  16.323  18.574  0.00  0.00    +0.226 A 
ATOM     25  C   UNL     1      49.913  19.310  18.578  0.00  0.00    +0.126 C 
ATOM     26  C   UNL     1      46.531  16.782  19.460  0.00  0.00    -0.156 A 
ATOM     27  C   UNL     1      45.406  15.989  19.767  0.00  0.00    +0.190 A 
ATOM     30  C   UNL     1      44.455  16.465  20.641  0.00  0.00    -0.095 A 
ENDROOT
BRANCH  22  23
ATOM     23  O   UNL     1      47.412  15.102  18.000  0.00  0.00    -0.463 OA
ATOM     24  H   UNL     1      47.373  15.123  17.034  0.00  0.00    +0.398 HD
ENDBRANCH  22  23
BRANCH  27  28
ATOM     28  O   UNL     1      45.263  14.762  19.204  0.00  0.00    -0.477 OA
ATOM     29  H   UNL     1      46.100  14.324  18.999  0.00  0.00    +0.395 HD
ENDBRANCH  27  28
BRANCH   7   6
ATOM      6  O   UNL     1      43.645  18.174  22.085  0.00  0.00    -0.303 OA
BRANCH   6   5
ATOM      5  C   UNL     1      43.029  19.427  21.778  0.00  0.00    +0.233 C 
BRANCH   5   4
ATOM      1  C   UNL     1      43.251  21.000  19.448  0.00  0.00    +0.078 C 
ATOM      2  C   UNL     1      42.120  20.013  19.589  0.00  0.00    -0.102 C 
ATOM      3  C   UNL     1      41.069  19.913  18.514  0.00  0.00    +0.086 C 
ATOM      4  C   UNL     1      42.052  19.244  20.647  0.00  0.00    -0.057 C 
ENDBRANCH   5   4
ENDBRANCH   6   5
ENDBRANCH   7   6
BRANCH  15  16
ATOM     16  O   UNL     1      52.171  19.411  17.680  0.00  0.00    -0.345 OA
BRANCH  16  17
ATOM     17  C   UNL     1      52.067  19.974  16.466  0.00  0.00    +0.461 C 
ATOM     18  C   UNL     1      51.441  21.337  16.319  0.00  0.00    +0.156 C 
ATOM     19  O   UNL     1      52.477  19.389  15.492  0.00  0.00    -0.504 OA
ENDBRANCH  16  17
ENDBRANCH  15  16
TORSDOF 7
ENDMDL
MODEL 4
REMARK VINA RESULT:      -5.9      4.708      8.618
REMARK  Name = ZINC13480351
REMARK  11 active torsions:
REMARK  status: ('A' for Active; 'I' for Inactive)
REMARK    1  A    between atoms: C1_1  and  C2_2
REMARK    2  A    between atoms: C2_2  and  C22_28
REMARK    3  A    between atoms: C3_3  and  C4_4
REMARK    4  A    between atoms: C4_4  and  O1_5
REMARK    5  A    between atoms: O1_5  and  C5_6
REMARK    6  A    between atoms: C11_12  and  O3_17
REMARK    7  A    between atoms: C13_14  and  O2_16
REMARK    8  A    between atoms: C17_21  and  C19_23
REMARK    9  A    between atoms: C17_21  and  O5_24
REMARK   10  A    between atoms: O5_24  and  C20_25
REMARK   11  A    between atoms: C20_25  and  C21_27
REMARK                            x       y       z     vdW  Elec       q    Type
REMARK                         _______ _______ _______ _____ _____    ______ ____
ROOT
ATOM      7  C   UNL     1      46.841  13.774  16.833  0.00  0.00    +0.174 A 
ATOM      8  C   UNL     1      46.891  15.145  16.695  0.00  0.00    -0.031 A 
ATOM      9  C   UNL     1      46.354  15.968  17.695  0.00  0.00    +0.046 A 
ATOM     10  C   UNL     1      46.399  17.371  17.576  0.00  0.00    +0.004 A 
ATOM     11  C   UNL     1      45.877  18.166  18.547  0.00  0.00    -0.003 A 
ATOM     12  C   UNL     1      45.278  17.591  19.686  0.00  0.00    -0.224 A 
ATOM     13  C   UNL     1      44.706  18.452  20.729  0.00  0.00    +0.409 C 
ATOM     14  C   UNL     1      45.019  19.932  20.672  0.00  0.00    +0.030 C 
ATOM     15  C   UNL     1      44.897  20.372  19.208  0.00  0.00    +0.137 C 
ATOM     20  C   UNL     1      43.508  20.008  18.680  0.00  0.00    +0.045 C 
ATOM     21  O   UNL     1      44.007  17.992  21.607  0.00  0.00    -0.435 OA
ATOM     22  C   UNL     1      45.219  16.203  19.838  0.00  0.00    +0.226 A 
ATOM     25  C   UNL     1      45.961  19.661  18.375  0.00  0.00    +0.126 C 
ATOM     26  C   UNL     1      45.761  15.376  18.838  0.00  0.00    -0.156 A 
ATOM     27  C   UNL     1      45.723  13.972  18.957  0.00  0.00    +0.190 A 
ATOM     30  C   UNL     1      46.259  13.189  17.958  0.00  0.00    -0.095 A 
ENDROOT
BRANCH  22  23
ATOM     23  O   UNL     1      44.645  15.659  20.936  0.00  0.00    -0.463 OA
ATOM     24  H   UNL     1      45.117  15.845  21.760  0.00  0.00    +0.398 HD
ENDBRANCH  22  23
BRANCH  27  28
ATOM     28  O   UNL     1      45.160  13.395  20.048  0.00  0.00    -0.477 OA
ATOM     29  H   UNL     1      45.212  12.430  20.054  0.00  0.00    +0.395 HD
ENDBRANCH  27  28
BRANCH   7   6
ATOM      6  O   UNL     1      47.362  12.982  15.860  0.00  0.00    -0.303 OA
BRANCH   6   5
ATOM      5  C   UNL     1      48.781  13.007  15.693  0.00  0.00    +0.233 C 
BRANCH   5   4
ATOM      1  C   UNL     1      51.475  12.995  14.859  0.00  0.00    +0.078 C 
ATOM      2  C   UNL     1      50.369  12.844  13.846  0.00  0.00    -0.102 C 
ATOM      3  C   UNL     1      50.700  12.752  12.379  0.00  0.00    +0.086 C 
ATOM      4  C   UNL     1      49.121  12.793  14.242  0.00  0.00    -0.057 C 
ENDBRANCH   5   4
ENDBRANCH   6   5
ENDBRANCH   7   6
BRANCH  15  16
ATOM     16  O   UNL     1      45.089  21.808  19.114  0.00  0.00    -0.345 OA
BRANCH  16  17
ATOM     17  C   UNL     1      44.362  22.575  19.941  0.00  0.00    +0.461 C 
ATOM     18  C   UNL     1      44.955  23.054  21.241  0.00  0.00    +0.156 C 
ATOM     19  O   UNL     1      43.232  22.883  19.643  0.00  0.00    -0.504 OA
ENDBRANCH  16  17
ENDBRANCH  15  16
TORSDOF 7
ENDMDL
MODEL 5
REMARK VINA RESULT:      -5.9      4.496      5.676
REMARK  Name = ZINC13480351
REMARK  11 active torsions:
REMARK  status: ('A' for Active; 'I' for Inactive)
REMARK    1  A    between atoms: C1_1  and  C2_2
REMARK    2  A    between atoms: C2_2  and  C22_28
REMARK    3  A    between atoms: C3_3  and  C4_4
REMARK    4  A    between atoms: C4_4  and  O1_5
REMARK    5  A    between atoms: O1_5  and  C5_6
REMARK    6  A    between atoms: C11_12  and  O3_17
REMARK    7  A    between atoms: C13_14  and  O2_16
REMARK    8  A    between atoms: C17_21  and  C19_23
REMARK    9  A    between atoms: C17_21  and  O5_24
REMARK   10  A    between atoms: O5_24  and  C20_25
REMARK   11  A    between atoms: C20_25  and  C21_27
REMARK                            x       y       z     vdW  Elec       q    Type
REMARK                         _______ _______ _______ _____ _____    ______ ____
ROOT
ATOM      7  C   UNL     1      43.735  19.305  20.349  0.00  0.00    +0.174 A 
ATOM      8  C   UNL     1      44.542  18.934  19.294  0.00  0.00    -0.031 A 
ATOM      9  C   UNL     1      45.084  17.642  19.250  0.00  0.00    +0.046 A 
ATOM     10  C   UNL     1      45.907  17.241  18.179  0.00  0.00    +0.004 A 
ATOM     11  C   UNL     1      46.432  15.988  18.139  0.00  0.00    -0.003 A 
ATOM     12  C   UNL     1      46.161  15.075  19.177  0.00  0.00    -0.224 A 
ATOM     13  C   UNL     1      46.737  13.725  19.138  0.00  0.00    +0.409 C 
ATOM     14  C   UNL     1      47.386  13.272  17.847  0.00  0.00    +0.030 C 
ATOM     15  C   UNL     1      48.221  14.444  17.317  0.00  0.00    +0.137 C 
ATOM     20  C   UNL     1      49.216  14.888  18.392  0.00  0.00    +0.045 C 
ATOM     21  O   UNL     1      46.695  12.996  20.107  0.00  0.00    -0.435 OA
ATOM     22  C   UNL     1      45.346  15.438  20.254  0.00  0.00    +0.226 A 
ATOM     25  C   UNL     1      47.298  15.607  16.966  0.00  0.00    +0.126 C 
ATOM     26  C   UNL     1      44.798  16.732  20.298  0.00  0.00    -0.156 A 
ATOM     27  C   UNL     1      43.969  17.134  21.365  0.00  0.00    +0.190 A 
ATOM     30  C   UNL     1      43.450  18.410  21.380  0.00  0.00    -0.095 A 
ENDROOT
BRANCH  22  23
ATOM     23  O   UNL     1      45.088  14.554  21.245  0.00  0.00    -0.463 OA
ATOM     24  H   UNL     1      45.491  13.684  21.112  0.00  0.00    +0.398 HD
ENDBRANCH  22  23
BRANCH  27  28
ATOM     28  O   UNL     1      43.686  16.270  22.371  0.00  0.00    -0.477 OA
ATOM     29  H   UNL     1      43.077  16.623  23.034  0.00  0.00    +0.395 HD
ENDBRANCH  27  28
BRANCH   7   6
ATOM      6  O   UNL     1      43.214  20.559  20.386  0.00  0.00    -0.303 OA
BRANCH   6   5
ATOM      5  C   UNL     1      42.928  21.180  19.131  0.00  0.00    +0.233 C 
BRANCH   5   4
ATOM      1  C   UNL     1      40.878  19.605  18.005  0.00  0.00    +0.078 C 
ATOM      2  C   UNL     1      40.564  20.972  18.555  0.00  0.00    -0.102 C 
ATOM      3  C   UNL     1      39.167  21.526  18.445  0.00  0.00    +0.086 C 
ATOM      4  C   UNL     1      41.507  21.679  19.129  0.00  0.00    -0.057 C 
ENDBRANCH   5   4
ENDBRANCH   6   5
ENDBRANCH   7   6
BRANCH  15  16
ATOM     16  O   UNL     1      48.946  14.027  16.130  0.00  0.00    -0.345 OA
BRANCH  16  17
ATOM     17  C   UNL     1      48.730  12.776  15.693  0.00  0.00    +0.461 C 
ATOM     18  C   UNL     1      47.714  12.521  14.610  0.00  0.00    +0.156 C 
ATOM     19  O   UNL     1      49.352  11.854  16.167  0.00  0.00    -0.504 OA
ENDBRANCH  16  17
ENDBRANCH  15  16
TORSDOF 7
ENDMDL
MODEL 6
REMARK VINA RESULT:      -5.8      5.185      7.646
REMARK  Name = ZINC13480351
REMARK  11 active torsions:
REMARK  status: ('A' for Active; 'I' for Inactive)
REMARK    1  A    between atoms: C1_1  and  C2_2
REMARK    2  A    between atoms: C2_2  and  C22_28
REMARK    3  A    between atoms: C3_3  and  C4_4
REMARK    4  A    between atoms: C4_4  and  O1_5
REMARK    5  A    between atoms: O1_5  and  C5_6
REMARK    6  A    between atoms: C11_12  and  O3_17
REMARK    7  A    between atoms: C13_14  and  O2_16
REMARK    8  A    between atoms: C17_21  and  C19_23
REMARK    9  A    between atoms: C17_21  and  O5_24
REMARK   10  A    between atoms: O5_24  and  C20_25
REMARK   11  A    between atoms: C20_25  and  C21_27
REMARK                            x       y       z     vdW  Elec       q    Type
REMARK                         _______ _______ _______ _____ _____    ______ ____
ROOT
ATOM      7  C   UNL     1      47.754  19.204  19.415  0.00  0.00    +0.174 A 
ATOM      8  C   UNL     1      48.095  18.285  18.445  0.00  0.00    -0.031 A 
ATOM      9  C   UNL     1      47.433  17.050  18.390  0.00  0.00    +0.046 A 
ATOM     10  C   UNL     1      47.762  16.098  17.404  0.00  0.00    +0.004 A 
ATOM     11  C   UNL     1      47.119  14.901  17.354  0.00  0.00    -0.003 A 
ATOM     12  C   UNL     1      46.116  14.598  18.295  0.00  0.00    -0.224 A 
ATOM     13  C   UNL     1      45.430  13.301  18.245  0.00  0.00    +0.409 C 
ATOM     14  C   UNL     1      45.637  12.439  17.017  0.00  0.00    +0.030 C 
ATOM     15  C   UNL     1      47.129  12.497  16.663  0.00  0.00    +0.137 C 
ATOM     20  C   UNL     1      47.958  12.065  17.875  0.00  0.00    +0.045 C 
ATOM     21  O   UNL     1      44.720  12.931  19.157  0.00  0.00    -0.435 OA
ATOM     22  C   UNL     1      45.762  15.520  19.285  0.00  0.00    +0.226 A 
ATOM     25  C   UNL     1      47.503  13.924  16.273  0.00  0.00    +0.126 C 
ATOM     26  C   UNL     1      46.422  16.761  19.339  0.00  0.00    -0.156 A 
ATOM     27  C   UNL     1      46.090  17.717  20.320  0.00  0.00    +0.190 A 
ATOM     30  C   UNL     1      46.757  18.922  20.349  0.00  0.00    -0.095 A 
ENDROOT
BRANCH  22  23
ATOM     23  O   UNL     1      44.795  15.221  20.183  0.00  0.00    -0.463 OA
ATOM     24  H   UNL     1      44.310  14.408  19.984  0.00  0.00    +0.398 HD
ENDBRANCH  22  23
BRANCH  27  28
ATOM     28  O   UNL     1      45.121  17.451  21.232  0.00  0.00    -0.477 OA
ATOM     29  H   UNL     1      44.323  17.058  20.854  0.00  0.00    +0.395 HD
ENDBRANCH  27  28
BRANCH   7   6
ATOM      6  O   UNL     1      48.400  20.398  19.463  0.00  0.00    -0.303 OA
BRANCH   6   5
ATOM      5  C   UNL     1      49.828  20.366  19.418  0.00  0.00    +0.233 C 
BRANCH   5   4
ATOM      1  C   UNL     1      51.730  19.028  17.824  0.00  0.00    +0.078 C 
ATOM      2  C   UNL     1      51.230  20.391  17.419  0.00  0.00    -0.102 C 
ATOM      3  C   UNL     1      51.795  21.068  16.198  0.00  0.00    +0.086 C 
ATOM      4  C   UNL     1      50.304  20.986  18.131  0.00  0.00    -0.057 C 
ENDBRANCH   5   4
ENDBRANCH   6   5
ENDBRANCH   7   6
BRANCH  15  16
ATOM     16  O   UNL     1      47.398  11.605  15.550  0.00  0.00    -0.345 OA
BRANCH  16  17
ATOM     17  C   UNL     1      48.217  12.059  14.589  0.00  0.00    +0.461 C 
ATOM     18  C   UNL     1      49.700  11.802  14.678  0.00  0.00    +0.156 C 
ATOM     19  O   UNL     1      47.766  12.674  13.651  0.00  0.00    -0.504 OA
ENDBRANCH  16  17
ENDBRANCH  15  16
TORSDOF 7
ENDMDL
MODEL 7
REMARK VINA RESULT:      -5.8      3.216      7.538
REMARK  Name = ZINC13480351
REMARK  11 active torsions:
REMARK  status: ('A' for Active; 'I' for Inactive)
REMARK    1  A    between atoms: C1_1  and  C2_2
REMARK    2  A    between atoms: C2_2  and  C22_28
REMARK    3  A    between atoms: C3_3  and  C4_4
REMARK    4  A    between atoms: C4_4  and  O1_5
REMARK    5  A    between atoms: O1_5  and  C5_6
REMARK    6  A    between atoms: C11_12  and  O3_17
REMARK    7  A    between atoms: C13_14  and  O2_16
REMARK    8  A    between atoms: C17_21  and  C19_23
REMARK    9  A    between atoms: C17_21  and  O5_24
REMARK   10  A    between atoms: O5_24  and  C20_25
REMARK   11  A    between atoms: C20_25  and  C21_27
REMARK                            x       y       z     vdW  Elec       q    Type
REMARK                         _______ _______ _______ _____ _____    ______ ____
ROOT
ATOM      7  C   UNL     1      49.350  16.771  17.497  0.00  0.00    +0.174 A 
ATOM      8  C   UNL     1      47.996  17.026  17.442  0.00  0.00    -0.031 A 
ATOM      9  C   UNL     1      47.473  18.164  18.072  0.00  0.00    +0.046 A 
ATOM     10  C   UNL     1      46.093  18.446  18.024  0.00  0.00    +0.004 A 
ATOM     11  C   UNL     1      45.589  19.549  18.636  0.00  0.00    -0.003 A 
ATOM     12  C   UNL     1      46.445  20.424  19.334  0.00  0.00    -0.224 A 
ATOM     13  C   UNL     1      45.897  21.610  20.003  0.00  0.00    +0.409 C 
ATOM     14  C   UNL     1      44.466  21.997  19.694  0.00  0.00    +0.030 C 
ATOM     15  C   UNL     1      43.634  20.708  19.684  0.00  0.00    +0.137 C 
ATOM     20  C   UNL     1      43.808  19.978  21.017  0.00  0.00    +0.045 C 
ATOM     21  O   UNL     1      46.568  22.260  20.778  0.00  0.00    -0.435 OA
ATOM     22  C   UNL     1      47.820  20.177  19.400  0.00  0.00    +0.226 A 
ATOM     25  C   UNL     1      44.107  19.809  18.545  0.00  0.00    +0.126 C 
ATOM     26  C   UNL     1      48.347  19.038  18.765  0.00  0.00    -0.156 A 
ATOM     27  C   UNL     1      49.727  18.757  18.806  0.00  0.00    +0.190 A 
ATOM     30  C   UNL     1      50.212  17.632  18.176  0.00  0.00    -0.095 A 
ENDROOT
BRANCH  22  23
ATOM     23  O   UNL     1      48.635  21.024  20.069  0.00  0.00    -0.463 OA
ATOM     24  H   UNL     1      48.590  21.940  19.761  0.00  0.00    +0.398 HD
ENDBRANCH  22  23
BRANCH  27  28
ATOM     28  O   UNL     1      50.573  19.589  19.464  0.00  0.00    -0.477 OA
ATOM     29  H   UNL     1      50.406  20.528  19.302  0.00  0.00    +0.395 HD
ENDBRANCH  27  28
BRANCH   7   6
ATOM      6  O   UNL     1      49.850  15.666  16.886  0.00  0.00    -0.303 OA
BRANCH   6   5
ATOM      5  C   UNL     1      49.274  14.408  17.245  0.00  0.00    +0.233 C 
BRANCH   5   4
ATOM      1  C   UNL     1      46.720  13.347  16.697  0.00  0.00    +0.078 C 
ATOM      2  C   UNL     1      47.876  13.046  15.779  0.00  0.00    -0.102 C 
ATOM      3  C   UNL     1      47.684  12.123  14.603  0.00  0.00    +0.086 C 
ATOM      4  C   UNL     1      49.049  13.586  16.004  0.00  0.00    -0.057 C 
ENDBRANCH   5   4
ENDBRANCH   6   5
ENDBRANCH   7   6
BRANCH  15  16
ATOM     16  O   UNL     1      42.233  21.036  19.491  0.00  0.00    -0.345 OA
BRANCH  16  17
ATOM     17  C   UNL     1      41.393  20.013  19.270  0.00  0.00    +0.461 C 
ATOM     18  C   UNL     1      40.654  19.915  17.960  0.00  0.00    +0.156 C 
ATOM     19  O   UNL     1      41.230  19.170  20.120  0.00  0.00    -0.504 OA
ENDBRANCH  16  17
ENDBRANCH  15  16
TORSDOF 7
ENDMDL
MODEL 8
REMARK VINA RESULT:      -5.7      2.790      8.136
REMARK  Name = ZINC13480351
REMARK  11 active torsions:
REMARK  status: ('A' for Active; 'I' for Inactive)
REMARK    1  A    between atoms: C1_1  and  C2_2
REMARK    2  A    between atoms: C2_2  and  C22_28
REMARK    3  A    between atoms: C3_3  and  C4_4
REMARK    4  A    between atoms: C4_4  and  O1_5
REMARK    5  A    between atoms: O1_5  and  C5_6
REMARK    6  A    between atoms: C11_12  and  O3_17
REMARK    7  A    between atoms: C13_14  and  O2_16
REMARK    8  A    between atoms: C17_21  and  C19_23
REMARK    9  A    between atoms: C17_21  and  O5_24
REMARK   10  A    between atoms: O5_24  and  C20_25
REMARK   11  A    between atoms: C20_25  and  C21_27
REMARK                            x       y       z     vdW  Elec       q    Type
REMARK                         _______ _______ _______ _____ _____    ______ ____
ROOT
ATOM      7  C   UNL     1      48.981  16.190  17.599  0.00  0.00    +0.174 A 
ATOM      8  C   UNL     1      48.458  17.466  17.608  0.00  0.00    -0.031 A 
ATOM      9  C   UNL     1      47.310  17.745  18.364  0.00  0.00    +0.046 A 
ATOM     10  C   UNL     1      46.763  19.043  18.391  0.00  0.00    +0.004 A 
ATOM     11  C   UNL     1      45.649  19.311  19.123  0.00  0.00    -0.003 A 
ATOM     12  C   UNL     1      45.026  18.286  19.862  0.00  0.00    -0.224 A 
ATOM     13  C   UNL     1      43.817  18.574  20.645  0.00  0.00    +0.409 C 
ATOM     14  C   UNL     1      43.437  20.026  20.845  0.00  0.00    +0.030 C 
ATOM     15  C   UNL     1      43.632  20.742  19.502  0.00  0.00    +0.137 C 
ATOM     20  C   UNL     1      42.818  20.027  18.421  0.00  0.00    +0.045 C 
ATOM     21  O   UNL     1      43.146  17.680  21.116  0.00  0.00    -0.435 OA
ATOM     22  C   UNL     1      45.544  16.987  19.860  0.00  0.00    +0.226 A 
ATOM     25  C   UNL     1      45.111  20.718  19.125  0.00  0.00    +0.126 C 
ATOM     26  C   UNL     1      46.698  16.706  19.107  0.00  0.00    -0.156 A 
ATOM     27  C   UNL     1      47.252  15.410  19.083  0.00  0.00    +0.190 A 
ATOM     30  C   UNL     1      48.380  15.166  18.333  0.00  0.00    -0.095 A 
ENDROOT
BRANCH  22  23
ATOM     23  O   UNL     1      44.941  16.009  20.576  0.00  0.00    -0.463 OA
ATOM     24  H   UNL     1      45.305  15.126  20.421  0.00  0.00    +0.398 HD
ENDBRANCH  22  23
BRANCH  27  28
ATOM     28  O   UNL     1      46.674  14.408  19.794  0.00  0.00    -0.477 OA
ATOM     29  H   UNL     1      47.131  13.560  19.719  0.00  0.00    +0.395 HD
ENDBRANCH  27  28
BRANCH   7   6
ATOM      6  O   UNL     1      50.092  15.926  16.865  0.00  0.00    -0.303 OA
BRANCH   6   5
ATOM      5  C   UNL     1      51.303  16.571  17.265  0.00  0.00    +0.233 C 
BRANCH   5   4
ATOM      1  C   UNL     1      51.884  19.162  18.215  0.00  0.00    +0.078 C 
ATOM      2  C   UNL     1      51.843  18.892  16.733  0.00  0.00    -0.102 C 
ATOM      3  C   UNL     1      52.047  20.021  15.756  0.00  0.00    +0.086 C 
ATOM      4  C   UNL     1      51.629  17.676  16.295  0.00  0.00    -0.057 C 
ENDBRANCH   5   4
ENDBRANCH   6   5
ENDBRANCH   7   6
BRANCH  15  16
ATOM     16  O   UNL     1      43.183  22.118  19.615  0.00  0.00    -0.345 OA
BRANCH  16  17
ATOM     17  C   UNL     1      44.107  23.035  19.943  0.00  0.00    +0.461 C 
ATOM     18  C   UNL     1      44.713  23.034  21.322  0.00  0.00    +0.156 C 
ATOM     19  O   UNL     1      44.454  23.860  19.131  0.00  0.00    -0.504 OA
ENDBRANCH  16  17
ENDBRANCH  15  16
TORSDOF 7
ENDMDL
MODEL 9
REMARK VINA RESULT:      -5.5      4.546      6.137
REMARK  Name = ZINC13480351
REMARK  11 active torsions:
REMARK  status: ('A' for Active; 'I' for Inactive)
REMARK    1  A    between atoms: C1_1  and  C2_2
REMARK    2  A    between atoms: C2_2  and  C22_28
REMARK    3  A    between atoms: C3_3  and  C4_4
REMARK    4  A    between atoms: C4_4  and  O1_5
REMARK    5  A    between atoms: O1_5  and  C5_6
REMARK    6  A    between atoms: C11_12  and  O3_17
REMARK    7  A    between atoms: C13_14  and  O2_16
REMARK    8  A    between atoms: C17_21  and  C19_23
REMARK    9  A    between atoms: C17_21  and  O5_24
REMARK   10  A    between atoms: O5_24  and  C20_25
REMARK   11  A    between atoms: C20_25  and  C21_27
REMARK                            x       y       z     vdW  Elec       q    Type
REMARK                         _______ _______ _______ _____ _____    ______ ____
ROOT
ATOM      7  C   UNL     1      45.002  20.040  19.114  0.00  0.00    +0.174 A 
ATOM      8  C   UNL     1      45.614  19.209  18.199  0.00  0.00    -0.031 A 
ATOM      9  C   UNL     1      45.682  17.830  18.443  0.00  0.00    +0.046 A 
ATOM     10  C   UNL     1      46.298  16.964  17.519  0.00  0.00    +0.004 A 
ATOM     11  C   UNL     1      46.364  15.627  17.759  0.00  0.00    -0.003 A 
ATOM     12  C   UNL     1      45.818  15.094  18.944  0.00  0.00    -0.224 A 
ATOM     13  C   UNL     1      45.898  13.652  19.206  0.00  0.00    +0.409 C 
ATOM     14  C   UNL     1      46.328  12.750  18.067  0.00  0.00    +0.030 C 
ATOM     15  C   UNL     1      47.503  13.436  17.358  0.00  0.00    +0.137 C 
ATOM     20  C   UNL     1      48.610  13.730  18.373  0.00  0.00    +0.045 C 
ATOM     21  O   UNL     1      45.629  13.196  20.298  0.00  0.00    -0.435 OA
ATOM     22  C   UNL     1      45.196  15.925  19.881  0.00  0.00    +0.226 A 
ATOM     25  C   UNL     1      47.024  14.743  16.733  0.00  0.00    +0.126 C 
ATOM     26  C   UNL     1      45.123  17.308  19.636  0.00  0.00    -0.156 A 
ATOM     27  C   UNL     1      44.501  18.177  20.555  0.00  0.00    +0.190 A 
ATOM     30  C   UNL     1      44.448  19.526  20.287  0.00  0.00    -0.095 A 
ENDROOT
BRANCH  22  23
ATOM     23  O   UNL     1      44.671  15.404  21.014  0.00  0.00    -0.463 OA
ATOM     24  H   UNL     1      45.099  15.714  21.825  0.00  0.00    +0.398 HD
ENDBRANCH  22  23
BRANCH  27  28
ATOM     28  O   UNL     1      43.960  17.686  21.699  0.00  0.00    -0.477 OA
ATOM     29  H   UNL     1      44.454  16.948  22.082  0.00  0.00    +0.395 HD
ENDBRANCH  27  28
BRANCH   7   6
ATOM      6  O   UNL     1      44.939  21.375  18.871  0.00  0.00    -0.303 OA
BRANCH   6   5
ATOM      5  C   UNL     1      44.156  22.162  19.771  0.00  0.00    +0.233 C 
BRANCH   5   4
ATOM      1  C   UNL     1      46.051  22.707  21.787  0.00  0.00    +0.078 C 
ATOM      2  C   UNL     1      45.595  23.806  20.861  0.00  0.00    -0.102 C 
ATOM      3  C   UNL     1      46.103  25.212  21.053  0.00  0.00    +0.086 C 
ATOM      4  C   UNL     1      44.758  23.538  19.889  0.00  0.00    -0.057 C 
ENDBRANCH   5   4
ENDBRANCH   6   5
ENDBRANCH   7   6
BRANCH  15  16
ATOM     16  O   UNL     1      48.019  12.563  16.319  0.00  0.00    -0.345 OA
BRANCH  16  17
ATOM     17  C   UNL     1      49.347  12.569  16.122  0.00  0.00    +0.461 C 
ATOM     18  C   UNL     1      50.196  11.454  16.676  0.00  0.00    +0.156 C 
ATOM     19  O   UNL     1      49.861  13.468  15.499  0.00  0.00    -0.504 OA
ENDBRANCH  16  17
ENDBRANCH  15  16
TORSDOF 7
ENDMDL
