MODEL 1
REMARK VINA RESULT:      -7.1      0.000      0.000
REMARK  Name = ZINC95486339
REMARK  10 active torsions:
REMARK  status: ('A' for Active; 'I' for Inactive)
REMARK    1  A    between atoms: C3_3  and  C7_9
REMARK    2  A    between atoms: C4_4  and  O2_8
REMARK    3  A    between atoms: C5_5  and  O1_7
REMARK    4  A    between atoms: C8_11  and  O7_24
REMARK    5  A    between atoms: C11_16  and  O6_23
REMARK    6  A    between atoms: C13_18  and  O5_22
REMARK    7  A    between atoms: O7_24  and  C16_25
REMARK    8  A    between atoms: C17_27  and  O11_37
REMARK    9  A    between atoms: C18_29  and  O10_36
REMARK   10  A    between atoms: C19_31  and  O9_35
REMARK                            x       y       z     vdW  Elec       q    Type
REMARK                         _______ _______ _______ _____ _____    ______ ____
ROOT
ATOM      4  C   UNL     1      45.700  20.292  18.750  0.00  0.00    +0.301 C 
ATOM      5  C   UNL     1      46.423  18.954  18.962  0.00  0.00    +0.144 C 
ATOM     19  C   UNL     1      45.986  18.416  20.313  0.00  0.00    +0.396 C 
ATOM     20  C   UNL     1      44.570  18.582  20.659  0.00  0.00    -0.281 A 
ATOM     21  C   UNL     1      44.017  17.904  21.756  0.00  0.00    +0.225 A 
ATOM     24  C   UNL     1      42.682  18.087  22.067  0.00  0.00    -0.073 A 
ATOM     25  C   UNL     1      41.896  18.936  21.296  0.00  0.00    +0.198 A 
ATOM     28  C   UNL     1      42.438  19.605  20.205  0.00  0.00    -0.056 A 
ATOM     29  C   UNL     1      43.771  19.435  19.875  0.00  0.00    +0.211 A 
ATOM     30  O   UNL     1      46.769  17.878  21.068  0.00  0.00    -0.406 OA
ATOM     31  O   UNL     1      44.289  20.081  18.804  0.00  0.00    -0.283 OA
ENDROOT
BRANCH   4   3
ATOM      1  C   UNL     1      47.557  21.857  21.643  0.00  0.00    +0.033 A 
ATOM      2  C   UNL     1      47.182  20.970  20.650  0.00  0.00    +0.032 A 
ATOM      3  C   UNL     1      46.106  21.260  19.831  0.00  0.00    -0.144 A 
ATOM     32  C   UNL     1      45.401  22.440  20.005  0.00  0.00    +0.101 A 
ATOM     35  C   UNL     1      45.779  23.331  21.005  0.00  0.00    +0.087 A 
ATOM     38  C   UNL     1      46.858  23.036  21.821  0.00  0.00    +0.022 A 
BRANCH  32  33
ATOM     33  O   UNL     1      44.342  22.726  19.201  0.00  0.00    -0.485 OA
ATOM     34  H   UNL     1      44.224  23.670  19.026  0.00  0.00    +0.392 HD
ENDBRANCH  32  33
BRANCH  35  36
ATOM     36  O   UNL     1      45.089  24.491  21.179  0.00  0.00    -0.484 OA
ATOM     37  H   UNL     1      44.172  24.453  20.877  0.00  0.00    +0.391 HD
ENDBRANCH  35  36
ENDBRANCH   4   3
BRANCH  21  22
ATOM     22  O   UNL     1      44.785  17.074  22.505  0.00  0.00    -0.476 OA
ATOM     23  H   UNL     1      45.529  16.687  22.024  0.00  0.00    +0.402 HD
ENDBRANCH  21  22
BRANCH  25  26
ATOM     26  O   UNL     1      40.589  19.111  21.610  0.00  0.00    -0.489 OA
ATOM     27  H   UNL     1      39.979  18.625  21.039  0.00  0.00    +0.402 HD
ENDBRANCH  25  26
BRANCH   5   6
ATOM      6  O   UNL     1      46.060  18.035  17.930  0.00  0.00    -0.329 OA
BRANCH   6   7
ATOM      7  C   UNL     1      46.549  16.708  18.133  0.00  0.00    +0.289 C 
ATOM      8  C   UNL     1      47.181  16.193  16.837  0.00  0.00    +0.190 C 
ATOM     11  C   UNL     1      47.649  14.749  17.046  0.00  0.00    +0.203 C 
ATOM     14  C   UNL     1      46.456  13.897  17.491  0.00  0.00    +0.125 C 
ATOM     17  C   UNL     1      45.852  14.501  18.761  0.00  0.00    +0.215 C 
ATOM     18  O   UNL     1      45.467  15.854  18.507  0.00  0.00    -0.377 OA
BRANCH   8   9
ATOM      9  O   UNL     1      46.215  16.236  15.786  0.00  0.00    -0.536 OA
ATOM     10  H   UNL     1      45.389  16.676  16.027  0.00  0.00    +0.387 HD
ENDBRANCH   8   9
BRANCH  11  12
ATOM     12  O   UNL     1      48.175  14.236  15.821  0.00  0.00    -0.544 OA
ATOM     13  H   UNL     1      49.132  14.107  15.828  0.00  0.00    +0.389 HD
ENDBRANCH  11  12
BRANCH  14  15
ATOM     15  O   UNL     1      46.895  12.564  17.757  0.00  0.00    -0.562 OA
ATOM     16  H   UNL     1      47.481  12.200  17.079  0.00  0.00    +0.388 HD
ENDBRANCH  14  15
ENDBRANCH   6   7
ENDBRANCH   5   6
TORSDOF 10
ENDMDL
MODEL 2
REMARK VINA RESULT:      -7.1      0.877      1.518
REMARK  Name = ZINC95486339
REMARK  10 active torsions:
REMARK  status: ('A' for Active; 'I' for Inactive)
REMARK    1  A    between atoms: C3_3  and  C7_9
REMARK    2  A    between atoms: C4_4  and  O2_8
REMARK    3  A    between atoms: C5_5  and  O1_7
REMARK    4  A    between atoms: C8_11  and  O7_24
REMARK    5  A    between atoms: C11_16  and  O6_23
REMARK    6  A    between atoms: C13_18  and  O5_22
REMARK    7  A    between atoms: O7_24  and  C16_25
REMARK    8  A    between atoms: C17_27  and  O11_37
REMARK    9  A    between atoms: C18_29  and  O10_36
REMARK   10  A    between atoms: C19_31  and  O9_35
REMARK                            x       y       z     vdW  Elec       q    Type
REMARK                         _______ _______ _______ _____ _____    ______ ____
ROOT
ATOM      4  C   UNL     1      45.508  20.283  18.649  0.00  0.00    +0.301 C 
ATOM      5  C   UNL     1      46.200  18.922  18.802  0.00  0.00    +0.144 C 
ATOM     19  C   UNL     1      45.797  18.361  20.154  0.00  0.00    +0.396 C 
ATOM     20  C   UNL     1      44.399  18.557  20.554  0.00  0.00    -0.281 A 
ATOM     21  C   UNL     1      43.866  17.865  21.653  0.00  0.00    +0.225 A 
ATOM     24  C   UNL     1      42.548  18.077  22.017  0.00  0.00    -0.073 A 
ATOM     25  C   UNL     1      41.760  18.966  21.295  0.00  0.00    +0.198 A 
ATOM     28  C   UNL     1      42.282  19.648  20.203  0.00  0.00    -0.056 A 
ATOM     29  C   UNL     1      43.597  19.450  19.821  0.00  0.00    +0.211 A 
ATOM     30  O   UNL     1      46.590  17.782  20.867  0.00  0.00    -0.406 OA
ATOM     31  O   UNL     1      44.095  20.110  18.748  0.00  0.00    -0.283 OA
ENDROOT
BRANCH   4   3
ATOM      1  C   UNL     1      47.543  21.750  21.473  0.00  0.00    +0.033 A 
ATOM      2  C   UNL     1      47.108  20.900  20.474  0.00  0.00    +0.032 A 
ATOM      3  C   UNL     1      45.979  21.212  19.739  0.00  0.00    -0.144 A 
ATOM     32  C   UNL     1      45.280  22.378  20.005  0.00  0.00    +0.101 A 
ATOM     35  C   UNL     1      45.718  23.234  21.012  0.00  0.00    +0.087 A 
ATOM     38  C   UNL     1      46.850  22.915  21.744  0.00  0.00    +0.022 A 
BRANCH  32  33
ATOM     33  O   UNL     1      44.168  22.687  19.283  0.00  0.00    -0.485 OA
ATOM     34  H   UNL     1      43.379  22.194  19.547  0.00  0.00    +0.392 HD
ENDBRANCH  32  33
BRANCH  35  36
ATOM     36  O   UNL     1      45.034  24.379  21.276  0.00  0.00    -0.484 OA
ATOM     37  H   UNL     1      45.512  25.003  21.840  0.00  0.00    +0.391 HD
ENDBRANCH  35  36
ENDBRANCH   4   3
BRANCH  21  22
ATOM     22  O   UNL     1      44.636  16.996  22.353  0.00  0.00    -0.476 OA
ATOM     23  H   UNL     1      44.525  17.057  23.312  0.00  0.00    +0.402 HD
ENDBRANCH  21  22
BRANCH  25  26
ATOM     26  O   UNL     1      40.470  19.169  21.661  0.00  0.00    -0.489 OA
ATOM     27  H   UNL     1      39.910  18.385  21.577  0.00  0.00    +0.402 HD
ENDBRANCH  25  26
BRANCH   5   6
ATOM      6  O   UNL     1      45.776  18.040  17.761  0.00  0.00    -0.329 OA
BRANCH   6   7
ATOM      7  C   UNL     1      46.838  17.302  17.154  0.00  0.00    +0.289 C 
ATOM      8  C   UNL     1      46.595  15.802  17.351  0.00  0.00    +0.190 C 
ATOM     11  C   UNL     1      47.767  15.021  16.750  0.00  0.00    +0.203 C 
ATOM     14  C   UNL     1      49.070  15.491  17.406  0.00  0.00    +0.125 C 
ATOM     17  C   UNL     1      49.217  17.001  17.208  0.00  0.00    +0.215 C 
ATOM     18  O   UNL     1      48.079  17.666  17.762  0.00  0.00    -0.377 OA
BRANCH   8   9
ATOM      9  O   UNL     1      46.493  15.515  18.746  0.00  0.00    -0.536 OA
ATOM     10  H   UNL     1      46.248  16.277  19.289  0.00  0.00    +0.387 HD
ENDBRANCH   8   9
BRANCH  11  12
ATOM     12  O   UNL     1      47.585  13.625  16.992  0.00  0.00    -0.544 OA
ATOM     13  H   UNL     1      46.882  13.424  17.624  0.00  0.00    +0.389 HD
ENDBRANCH  11  12
BRANCH  14  15
ATOM     15  O   UNL     1      50.177  14.819  16.803  0.00  0.00    -0.562 OA
ATOM     16  H   UNL     1      51.028  15.006  17.224  0.00  0.00    +0.388 HD
ENDBRANCH  14  15
ENDBRANCH   6   7
ENDBRANCH   5   6
TORSDOF 10
ENDMDL
MODEL 3
REMARK VINA RESULT:      -6.9      1.184      1.560
REMARK  Name = ZINC95486339
REMARK  10 active torsions:
REMARK  status: ('A' for Active; 'I' for Inactive)
REMARK    1  A    between atoms: C3_3  and  C7_9
REMARK    2  A    between atoms: C4_4  and  O2_8
REMARK    3  A    between atoms: C5_5  and  O1_7
REMARK    4  A    between atoms: C8_11  and  O7_24
REMARK    5  A    between atoms: C11_16  and  O6_23
REMARK    6  A    between atoms: C13_18  and  O5_22
REMARK    7  A    between atoms: O7_24  and  C16_25
REMARK    8  A    between atoms: C17_27  and  O11_37
REMARK    9  A    between atoms: C18_29  and  O10_36
REMARK   10  A    between atoms: C19_31  and  O9_35
REMARK                            x       y       z     vdW  Elec       q    Type
REMARK                         _______ _______ _______ _____ _____    ______ ____
ROOT
ATOM      4  C   UNL     1      45.594  19.802  19.090  0.00  0.00    +0.301 C 
ATOM      5  C   UNL     1      45.535  18.394  19.699  0.00  0.00    +0.144 C 
ATOM     19  C   UNL     1      44.358  18.366  20.656  0.00  0.00    +0.396 C 
ATOM     20  C   UNL     1      43.142  19.061  20.221  0.00  0.00    -0.281 A 
ATOM     21  C   UNL     1      41.931  18.882  20.908  0.00  0.00    +0.225 A 
ATOM     24  C   UNL     1      40.801  19.559  20.484  0.00  0.00    -0.073 A 
ATOM     25  C   UNL     1      40.868  20.406  19.384  0.00  0.00    +0.198 A 
ATOM     28  C   UNL     1      42.063  20.582  18.698  0.00  0.00    -0.056 A 
ATOM     29  C   UNL     1      43.205  19.914  19.104  0.00  0.00    +0.211 A 
ATOM     30  O   UNL     1      44.420  17.800  21.728  0.00  0.00    -0.406 OA
ATOM     31  O   UNL     1      44.363  20.081  18.422  0.00  0.00    -0.283 OA
ENDROOT
BRANCH   4   3
ATOM      1  C   UNL     1      46.539  21.341  22.407  0.00  0.00    +0.033 A 
ATOM      2  C   UNL     1      46.336  20.414  21.401  0.00  0.00    +0.032 A 
ATOM      3  C   UNL     1      45.814  20.814  20.185  0.00  0.00    -0.144 A 
ATOM     32  C   UNL     1      45.492  22.145  19.973  0.00  0.00    +0.101 A 
ATOM     35  C   UNL     1      45.696  23.077  20.986  0.00  0.00    +0.087 A 
ATOM     38  C   UNL     1      46.220  22.670  22.202  0.00  0.00    +0.022 A 
BRANCH  32  33
ATOM     33  O   UNL     1      44.977  22.540  18.777  0.00  0.00    -0.485 OA
ATOM     34  H   UNL     1      45.343  22.067  18.016  0.00  0.00    +0.392 HD
ENDBRANCH  32  33
BRANCH  35  36
ATOM     36  O   UNL     1      45.381  24.384  20.782  0.00  0.00    -0.484 OA
ATOM     37  H   UNL     1      45.940  25.005  21.268  0.00  0.00    +0.391 HD
ENDBRANCH  35  36
ENDBRANCH   4   3
BRANCH  21  22
ATOM     22  O   UNL     1      41.868  18.052  21.978  0.00  0.00    -0.476 OA
ATOM     23  H   UNL     1      41.959  17.116  21.755  0.00  0.00    +0.402 HD
ENDBRANCH  21  22
BRANCH  25  26
ATOM     26  O   UNL     1      39.756  21.068  18.977  0.00  0.00    -0.489 OA
ATOM     27  H   UNL     1      38.966  20.864  19.496  0.00  0.00    +0.402 HD
ENDBRANCH  25  26
BRANCH   5   6
ATOM      6  O   UNL     1      45.347  17.424  18.666  0.00  0.00    -0.329 OA
BRANCH   6   7
ATOM      7  C   UNL     1      46.266  16.332  18.719  0.00  0.00    +0.289 C 
ATOM      8  C   UNL     1      47.237  16.423  17.538  0.00  0.00    +0.190 C 
ATOM     11  C   UNL     1      48.180  15.217  17.568  0.00  0.00    +0.203 C 
ATOM     14  C   UNL     1      47.347  13.930  17.539  0.00  0.00    +0.125 C 
ATOM     17  C   UNL     1      46.373  13.936  18.719  0.00  0.00    +0.215 C 
ATOM     18  O   UNL     1      45.546  15.100  18.648  0.00  0.00    -0.377 OA
BRANCH   8   9
ATOM      9  O   UNL     1      46.500  16.424  16.314  0.00  0.00    -0.536 OA
ATOM     10  H   UNL     1      46.418  17.296  15.904  0.00  0.00    +0.387 HD
ENDBRANCH   8   9
BRANCH  11  12
ATOM     12  O   UNL     1      49.042  15.255  16.430  0.00  0.00    -0.544 OA
ATOM     13  H   UNL     1      49.906  14.847  16.577  0.00  0.00    +0.389 HD
ENDBRANCH  11  12
BRANCH  14  15
ATOM     15  O   UNL     1      48.214  12.799  17.638  0.00  0.00    -0.562 OA
ATOM     16  H   UNL     1      48.046  12.241  18.410  0.00  0.00    +0.388 HD
ENDBRANCH  14  15
ENDBRANCH   6   7
ENDBRANCH   5   6
TORSDOF 10
ENDMDL
MODEL 4
REMARK VINA RESULT:      -6.5      2.237      7.721
REMARK  Name = ZINC95486339
REMARK  10 active torsions:
REMARK  status: ('A' for Active; 'I' for Inactive)
REMARK    1  A    between atoms: C3_3  and  C7_9
REMARK    2  A    between atoms: C4_4  and  O2_8
REMARK    3  A    between atoms: C5_5  and  O1_7
REMARK    4  A    between atoms: C8_11  and  O7_24
REMARK    5  A    between atoms: C11_16  and  O6_23
REMARK    6  A    between atoms: C13_18  and  O5_22
REMARK    7  A    between atoms: O7_24  and  C16_25
REMARK    8  A    between atoms: C17_27  and  O11_37
REMARK    9  A    between atoms: C18_29  and  O10_36
REMARK   10  A    between atoms: C19_31  and  O9_35
REMARK                            x       y       z     vdW  Elec       q    Type
REMARK                         _______ _______ _______ _____ _____    ______ ____
ROOT
ATOM      4  C   UNL     1      46.212  17.322  17.843  0.00  0.00    +0.301 C 
ATOM      5  C   UNL     1      46.215  18.034  19.203  0.00  0.00    +0.144 C 
ATOM     19  C   UNL     1      47.474  17.603  19.934  0.00  0.00    +0.396 C 
ATOM     20  C   UNL     1      48.695  17.491  19.127  0.00  0.00    -0.281 A 
ATOM     21  C   UNL     1      49.949  17.351  19.742  0.00  0.00    +0.225 A 
ATOM     24  C   UNL     1      51.083  17.237  18.958  0.00  0.00    -0.073 A 
ATOM     25  C   UNL     1      50.977  17.263  17.572  0.00  0.00    +0.198 A 
ATOM     28  C   UNL     1      49.739  17.407  16.959  0.00  0.00    -0.056 A 
ATOM     29  C   UNL     1      48.592  17.525  17.724  0.00  0.00    +0.211 A 
ATOM     30  O   UNL     1      47.472  17.362  21.123  0.00  0.00    -0.406 OA
ATOM     31  O   UNL     1      47.390  17.678  17.119  0.00  0.00    -0.283 OA
ENDROOT
BRANCH   4   3
ATOM      1  C   UNL     1      45.903  13.948  19.513  0.00  0.00    +0.033 A 
ATOM      2  C   UNL     1      45.930  15.316  19.315  0.00  0.00    +0.032 A 
ATOM      3  C   UNL     1      46.184  15.830  18.056  0.00  0.00    -0.144 A 
ATOM     32  C   UNL     1      46.412  14.974  16.992  0.00  0.00    +0.101 A 
ATOM     35  C   UNL     1      46.386  13.597  17.192  0.00  0.00    +0.087 A 
ATOM     38  C   UNL     1      46.130  13.088  18.455  0.00  0.00    +0.022 A 
BRANCH  32  33
ATOM     33  O   UNL     1      46.663  15.477  15.753  0.00  0.00    -0.485 OA
ATOM     34  H   UNL     1      45.868  15.739  15.267  0.00  0.00    +0.392 HD
ENDBRANCH  32  33
BRANCH  35  36
ATOM     36  O   UNL     1      46.610  12.752  16.150  0.00  0.00    -0.484 OA
ATOM     37  H   UNL     1      45.917  12.091  16.022  0.00  0.00    +0.391 HD
ENDBRANCH  35  36
ENDBRANCH   4   3
BRANCH  21  22
ATOM     22  O   UNL     1      50.049  17.330  21.094  0.00  0.00    -0.476 OA
ATOM     23  H   UNL     1      49.354  16.819  21.531  0.00  0.00    +0.402 HD
ENDBRANCH  21  22
BRANCH  25  26
ATOM     26  O   UNL     1      52.094  17.146  16.811  0.00  0.00    -0.489 OA
ATOM     27  H   UNL     1      52.755  17.833  16.975  0.00  0.00    +0.402 HD
ENDBRANCH  25  26
BRANCH   5   6
ATOM      6  O   UNL     1      46.222  19.450  19.012  0.00  0.00    -0.329 OA
BRANCH   6   7
ATOM      7  C   UNL     1      45.458  20.171  19.980  0.00  0.00    +0.289 C 
ATOM      8  C   UNL     1      44.567  21.194  19.268  0.00  0.00    +0.190 C 
ATOM     11  C   UNL     1      43.796  22.003  20.315  0.00  0.00    +0.203 C 
ATOM     14  C   UNL     1      44.796  22.667  21.269  0.00  0.00    +0.125 C 
ATOM     17  C   UNL     1      45.678  21.588  21.902  0.00  0.00    +0.215 C 
ATOM     18  O   UNL     1      46.342  20.852  20.873  0.00  0.00    -0.377 OA
BRANCH   8   9
ATOM      9  O   UNL     1      45.378  22.071  18.486  0.00  0.00    -0.536 OA
ATOM     10  H   UNL     1      46.325  21.881  18.535  0.00  0.00    +0.387 HD
ENDBRANCH   8   9
BRANCH  11  12
ATOM     12  O   UNL     1      43.016  23.007  19.664  0.00  0.00    -0.544 OA
ATOM     13  H   UNL     1      43.432  23.879  19.648  0.00  0.00    +0.389 HD
ENDBRANCH  11  12
BRANCH  14  15
ATOM     15  O   UNL     1      44.086  23.367  22.292  0.00  0.00    -0.562 OA
ATOM     16  H   UNL     1      43.247  23.748  21.998  0.00  0.00    +0.388 HD
ENDBRANCH  14  15
ENDBRANCH   6   7
ENDBRANCH   5   6
TORSDOF 10
ENDMDL
MODEL 5
REMARK VINA RESULT:      -6.5      5.505      8.184
REMARK  Name = ZINC95486339
REMARK  10 active torsions:
REMARK  status: ('A' for Active; 'I' for Inactive)
REMARK    1  A    between atoms: C3_3  and  C7_9
REMARK    2  A    between atoms: C4_4  and  O2_8
REMARK    3  A    between atoms: C5_5  and  O1_7
REMARK    4  A    between atoms: C8_11  and  O7_24
REMARK    5  A    between atoms: C11_16  and  O6_23
REMARK    6  A    between atoms: C13_18  and  O5_22
REMARK    7  A    between atoms: O7_24  and  C16_25
REMARK    8  A    between atoms: C17_27  and  O11_37
REMARK    9  A    between atoms: C18_29  and  O10_36
REMARK   10  A    between atoms: C19_31  and  O9_35
REMARK                            x       y       z     vdW  Elec       q    Type
REMARK                         _______ _______ _______ _____ _____    ______ ____
ROOT
ATOM      4  C   UNL     1      50.069  17.301  19.320  0.00  0.00    +0.301 C 
ATOM      5  C   UNL     1      51.141  16.288  18.894  0.00  0.00    +0.144 C 
ATOM     19  C   UNL     1      51.460  16.557  17.434  0.00  0.00    +0.396 C 
ATOM     20  C   UNL     1      51.535  17.965  17.028  0.00  0.00    -0.281 A 
ATOM     21  C   UNL     1      52.068  18.322  15.780  0.00  0.00    +0.225 A 
ATOM     24  C   UNL     1      52.117  19.656  15.416  0.00  0.00    -0.073 A 
ATOM     25  C   UNL     1      51.643  20.632  16.285  0.00  0.00    +0.198 A 
ATOM     28  C   UNL     1      51.121  20.284  17.524  0.00  0.00    -0.056 A 
ATOM     29  C   UNL     1      51.064  18.956  17.908  0.00  0.00    +0.211 A 
ATOM     30  O   UNL     1      51.642  15.654  16.644  0.00  0.00    -0.406 OA
ATOM     31  O   UNL     1      50.564  18.625  19.123  0.00  0.00    -0.283 OA
ENDROOT
BRANCH   4   3
ATOM      1  C   UNL     1      47.542  15.760  16.973  0.00  0.00    +0.033 A 
ATOM      2  C   UNL     1      48.680  15.948  17.736  0.00  0.00    +0.032 A 
ATOM      3  C   UNL     1      48.828  17.099  18.488  0.00  0.00    -0.144 A 
ATOM     32  C   UNL     1      47.836  18.066  18.478  0.00  0.00    +0.101 A 
ATOM     35  C   UNL     1      46.692  17.876  17.709  0.00  0.00    +0.087 A 
ATOM     38  C   UNL     1      46.549  16.721  16.958  0.00  0.00    +0.022 A 
BRANCH  32  33
ATOM     33  O   UNL     1      47.981  19.200  19.217  0.00  0.00    -0.485 OA
ATOM     34  H   UNL     1      48.784  19.217  19.756  0.00  0.00    +0.392 HD
ENDBRANCH  32  33
BRANCH  35  36
ATOM     36  O   UNL     1      45.716  18.824  17.696  0.00  0.00    -0.484 OA
ATOM     37  H   UNL     1      46.040  19.722  17.543  0.00  0.00    +0.391 HD
ENDBRANCH  35  36
ENDBRANCH   4   3
BRANCH  21  22
ATOM     22  O   UNL     1      52.532  17.367  14.936  0.00  0.00    -0.476 OA
ATOM     23  H   UNL     1      53.492  17.374  14.825  0.00  0.00    +0.402 HD
ENDBRANCH  21  22
BRANCH  25  26
ATOM     26  O   UNL     1      51.692  21.937  15.919  0.00  0.00    -0.489 OA
ATOM     27  H   UNL     1      50.909  22.241  15.441  0.00  0.00    +0.402 HD
ENDBRANCH  25  26
BRANCH   5   6
ATOM      6  O   UNL     1      52.315  16.458  19.690  0.00  0.00    -0.329 OA
BRANCH   6   7
ATOM      7  C   UNL     1      53.406  15.618  19.306  0.00  0.00    +0.289 C 
ATOM      8  C   UNL     1      53.206  14.220  19.897  0.00  0.00    +0.190 C 
ATOM     11  C   UNL     1      54.407  13.343  19.531  0.00  0.00    +0.203 C 
ATOM     14  C   UNL     1      55.688  14.013  20.040  0.00  0.00    +0.125 C 
ATOM     17  C   UNL     1      55.792  15.419  19.443  0.00  0.00    +0.215 C 
ATOM     18  O   UNL     1      54.629  16.171  19.796  0.00  0.00    -0.377 OA
BRANCH   8   9
ATOM      9  O   UNL     1      53.097  14.314  21.318  0.00  0.00    -0.536 OA
ATOM     10  H   UNL     1      52.995  13.462  21.763  0.00  0.00    +0.387 HD
ENDBRANCH   8   9
BRANCH  11  12
ATOM     12  O   UNL     1      54.265  12.058  20.138  0.00  0.00    -0.544 OA
ATOM     13  H   UNL     1      54.973  11.835  20.756  0.00  0.00    +0.389 HD
ENDBRANCH  11  12
BRANCH  14  15
ATOM     15  O   UNL     1      56.822  13.239  19.641  0.00  0.00    -0.562 OA
ATOM     16  H   UNL     1      56.596  12.391  19.235  0.00  0.00    +0.388 HD
ENDBRANCH  14  15
ENDBRANCH   6   7
ENDBRANCH   5   6
TORSDOF 10
ENDMDL
MODEL 6
REMARK VINA RESULT:      -6.4      6.347      8.216
REMARK  Name = ZINC95486339
REMARK  10 active torsions:
REMARK  status: ('A' for Active; 'I' for Inactive)
REMARK    1  A    between atoms: C3_3  and  C7_9
REMARK    2  A    between atoms: C4_4  and  O2_8
REMARK    3  A    between atoms: C5_5  and  O1_7
REMARK    4  A    between atoms: C8_11  and  O7_24
REMARK    5  A    between atoms: C11_16  and  O6_23
REMARK    6  A    between atoms: C13_18  and  O5_22
REMARK    7  A    between atoms: O7_24  and  C16_25
REMARK    8  A    between atoms: C17_27  and  O11_37
REMARK    9  A    between atoms: C18_29  and  O10_36
REMARK   10  A    between atoms: C19_31  and  O9_35
REMARK                            x       y       z     vdW  Elec       q    Type
REMARK                         _______ _______ _______ _____ _____    ______ ____
ROOT
ATOM      4  C   UNL     1      52.797  17.521  18.442  0.00  0.00    +0.301 C 
ATOM      5  C   UNL     1      52.588  17.305  19.948  0.00  0.00    +0.144 C 
ATOM     19  C   UNL     1      51.092  17.333  20.203  0.00  0.00    +0.396 C 
ATOM     20  C   UNL     1      50.244  16.664  19.211  0.00  0.00    -0.281 A 
ATOM     21  C   UNL     1      48.889  16.414  19.479  0.00  0.00    +0.225 A 
ATOM     24  C   UNL     1      48.108  15.792  18.521  0.00  0.00    -0.073 A 
ATOM     25  C   UNL     1      48.666  15.417  17.304  0.00  0.00    +0.198 A 
ATOM     28  C   UNL     1      50.008  15.657  17.037  0.00  0.00    -0.056 A 
ATOM     29  C   UNL     1      50.807  16.276  17.981  0.00  0.00    +0.211 A 
ATOM     30  O   UNL     1      50.621  17.883  21.178  0.00  0.00    -0.406 OA
ATOM     31  O   UNL     1      52.117  16.496  17.718  0.00  0.00    -0.283 OA
ENDROOT
BRANCH   4   3
ATOM      1  C   UNL     1      51.386  21.018  18.660  0.00  0.00    +0.033 A 
ATOM      2  C   UNL     1      51.891  19.782  19.020  0.00  0.00    +0.032 A 
ATOM      3  C   UNL     1      52.245  18.867  18.046  0.00  0.00    -0.144 A 
ATOM     32  C   UNL     1      52.093  19.186  16.707  0.00  0.00    +0.101 A 
ATOM     35  C   UNL     1      51.584  20.430  16.345  0.00  0.00    +0.087 A 
ATOM     38  C   UNL     1      51.231  21.343  17.326  0.00  0.00    +0.022 A 
BRANCH  32  33
ATOM     33  O   UNL     1      52.440  18.286  15.747  0.00  0.00    -0.485 OA
ATOM     34  H   UNL     1      52.546  17.383  16.076  0.00  0.00    +0.392 HD
ENDBRANCH  32  33
BRANCH  35  36
ATOM     36  O   UNL     1      51.432  20.747  15.031  0.00  0.00    -0.484 OA
ATOM     37  H   UNL     1      52.031  20.273  14.439  0.00  0.00    +0.391 HD
ENDBRANCH  35  36
ENDBRANCH   4   3
BRANCH  21  22
ATOM     22  O   UNL     1      48.348  16.779  20.668  0.00  0.00    -0.476 OA
ATOM     23  H   UNL     1      48.946  17.289  21.231  0.00  0.00    +0.402 HD
ENDBRANCH  21  22
BRANCH  25  26
ATOM     26  O   UNL     1      47.892  14.810  16.370  0.00  0.00    -0.489 OA
ATOM     27  H   UNL     1      46.942  14.909  16.522  0.00  0.00    +0.402 HD
ENDBRANCH  25  26
BRANCH   5   6
ATOM      6  O   UNL     1      53.126  16.039  20.337  0.00  0.00    -0.329 OA
BRANCH   6   7
ATOM      7  C   UNL     1      54.531  15.910  20.113  0.00  0.00    +0.289 C 
ATOM      8  C   UNL     1      54.853  14.469  19.707  0.00  0.00    +0.190 C 
ATOM     11  C   UNL     1      56.367  14.324  19.527  0.00  0.00    +0.203 C 
ATOM     14  C   UNL     1      57.066  14.732  20.828  0.00  0.00    +0.125 C 
ATOM     17  C   UNL     1      56.658  16.163  21.190  0.00  0.00    +0.215 C 
ATOM     18  O   UNL     1      55.236  16.235  21.312  0.00  0.00    -0.377 OA
BRANCH   8   9
ATOM      9  O   UNL     1      54.404  13.575  20.727  0.00  0.00    -0.536 OA
ATOM     10  H   UNL     1      54.693  12.660  20.605  0.00  0.00    +0.387 HD
ENDBRANCH   8   9
BRANCH  11  12
ATOM     12  O   UNL     1      56.683  12.966  19.219  0.00  0.00    -0.544 OA
ATOM     13  H   UNL     1      56.303  12.652  18.387  0.00  0.00    +0.389 HD
ENDBRANCH  11  12
BRANCH  14  15
ATOM     15  O   UNL     1      58.482  14.669  20.649  0.00  0.00    -0.562 OA
ATOM     16  H   UNL     1      58.980  15.250  21.240  0.00  0.00    +0.388 HD
ENDBRANCH  14  15
ENDBRANCH   6   7
ENDBRANCH   5   6
TORSDOF 10
ENDMDL
MODEL 7
REMARK VINA RESULT:      -6.4      2.215      7.198
REMARK  Name = ZINC95486339
REMARK  10 active torsions:
REMARK  status: ('A' for Active; 'I' for Inactive)
REMARK    1  A    between atoms: C3_3  and  C7_9
REMARK    2  A    between atoms: C4_4  and  O2_8
REMARK    3  A    between atoms: C5_5  and  O1_7
REMARK    4  A    between atoms: C8_11  and  O7_24
REMARK    5  A    between atoms: C11_16  and  O6_23
REMARK    6  A    between atoms: C13_18  and  O5_22
REMARK    7  A    between atoms: O7_24  and  C16_25
REMARK    8  A    between atoms: C17_27  and  O11_37
REMARK    9  A    between atoms: C18_29  and  O10_36
REMARK   10  A    between atoms: C19_31  and  O9_35
REMARK                            x       y       z     vdW  Elec       q    Type
REMARK                         _______ _______ _______ _____ _____    ______ ____
ROOT
ATOM      4  C   UNL     1      45.637  17.456  18.543  0.00  0.00    +0.301 C 
ATOM      5  C   UNL     1      45.331  17.560  20.044  0.00  0.00    +0.144 C 
ATOM     19  C   UNL     1      46.589  17.152  20.789  0.00  0.00    +0.396 C 
ATOM     20  C   UNL     1      47.862  17.626  20.235  0.00  0.00    -0.281 A 
ATOM     21  C   UNL     1      49.049  17.523  20.977  0.00  0.00    +0.225 A 
ATOM     24  C   UNL     1      50.238  17.967  20.427  0.00  0.00    -0.073 A 
ATOM     25  C   UNL     1      50.253  18.512  19.148  0.00  0.00    +0.198 A 
ATOM     28  C   UNL     1      49.080  18.621  18.412  0.00  0.00    -0.056 A 
ATOM     29  C   UNL     1      47.880  18.186  18.944  0.00  0.00    +0.211 A 
ATOM     30  O   UNL     1      46.545  16.469  21.791  0.00  0.00    -0.406 OA
ATOM     31  O   UNL     1      46.739  18.307  18.224  0.00  0.00    -0.283 OA
ENDROOT
BRANCH   4   3
ATOM      1  C   UNL     1      46.094  13.716  18.810  0.00  0.00    +0.033 A 
ATOM      2  C   UNL     1      45.776  15.025  19.123  0.00  0.00    +0.032 A 
ATOM      3  C   UNL     1      45.986  16.031  18.198  0.00  0.00    -0.144 A 
ATOM     32  C   UNL     1      46.518  15.729  16.955  0.00  0.00    +0.101 A 
ATOM     35  C   UNL     1      46.839  14.412  16.640  0.00  0.00    +0.087 A 
ATOM     38  C   UNL     1      46.625  13.408  17.571  0.00  0.00    +0.022 A 
BRANCH  32  33
ATOM     33  O   UNL     1      46.726  16.718  16.044  0.00  0.00    -0.485 OA
ATOM     34  H   UNL     1      46.656  17.610  16.410  0.00  0.00    +0.392 HD
ENDBRANCH  32  33
BRANCH  35  36
ATOM     36  O   UNL     1      47.361  14.111  15.421  0.00  0.00    -0.484 OA
ATOM     37  H   UNL     1      47.615  13.184  15.318  0.00  0.00    +0.391 HD
ENDBRANCH  35  36
ENDBRANCH   4   3
BRANCH  21  22
ATOM     22  O   UNL     1      49.030  16.994  22.226  0.00  0.00    -0.476 OA
ATOM     23  H   UNL     1      49.674  17.388  22.830  0.00  0.00    +0.402 HD
ENDBRANCH  21  22
BRANCH  25  26
ATOM     26  O   UNL     1      51.424  18.942  18.616  0.00  0.00    -0.489 OA
ATOM     27  H   UNL     1      52.197  18.759  19.167  0.00  0.00    +0.402 HD
ENDBRANCH  25  26
BRANCH   5   6
ATOM      6  O   UNL     1      44.980  18.904  20.377  0.00  0.00    -0.329 OA
BRANCH   6   7
ATOM      7  C   UNL     1      43.841  19.400  19.671  0.00  0.00    +0.289 C 
ATOM      8  C   UNL     1      43.796  20.927  19.783  0.00  0.00    +0.190 C 
ATOM     11  C   UNL     1      42.542  21.446  19.074  0.00  0.00    +0.203 C 
ATOM     14  C   UNL     1      41.307  20.780  19.692  0.00  0.00    +0.125 C 
ATOM     17  C   UNL     1      41.449  19.260  19.584  0.00  0.00    +0.215 C 
ATOM     18  O   UNL     1      42.651  18.847  20.236  0.00  0.00    -0.377 OA
BRANCH   8   9
ATOM      9  O   UNL     1      43.759  21.303  21.161  0.00  0.00    -0.536 OA
ATOM     10  H   UNL     1      44.493  21.869  21.434  0.00  0.00    +0.387 HD
ENDBRANCH   8   9
BRANCH  11  12
ATOM     12  O   UNL     1      42.454  22.863  19.235  0.00  0.00    -0.544 OA
ATOM     13  H   UNL     1      41.555  23.211  19.161  0.00  0.00    +0.389 HD
ENDBRANCH  11  12
BRANCH  14  15
ATOM     15  O   UNL     1      40.136  21.204  18.991  0.00  0.00    -0.562 OA
ATOM     16  H   UNL     1      40.306  21.507  18.089  0.00  0.00    +0.388 HD
ENDBRANCH  14  15
ENDBRANCH   6   7
ENDBRANCH   5   6
TORSDOF 10
ENDMDL
MODEL 8
REMARK VINA RESULT:      -6.2      4.342      7.811
REMARK  Name = ZINC95486339
REMARK  10 active torsions:
REMARK  status: ('A' for Active; 'I' for Inactive)
REMARK    1  A    between atoms: C3_3  and  C7_9
REMARK    2  A    between atoms: C4_4  and  O2_8
REMARK    3  A    between atoms: C5_5  and  O1_7
REMARK    4  A    between atoms: C8_11  and  O7_24
REMARK    5  A    between atoms: C11_16  and  O6_23
REMARK    6  A    between atoms: C13_18  and  O5_22
REMARK    7  A    between atoms: O7_24  and  C16_25
REMARK    8  A    between atoms: C17_27  and  O11_37
REMARK    9  A    between atoms: C18_29  and  O10_36
REMARK   10  A    between atoms: C19_31  and  O9_35
REMARK                            x       y       z     vdW  Elec       q    Type
REMARK                         _______ _______ _______ _____ _____    ______ ____
ROOT
ATOM      4  C   UNL     1      49.471  18.087  19.779  0.00  0.00    +0.301 C 
ATOM      5  C   UNL     1      48.955  19.505  19.494  0.00  0.00    +0.144 C 
ATOM     19  C   UNL     1      50.033  20.225  18.705  0.00  0.00    +0.396 C 
ATOM     20  C   UNL     1      50.726  19.443  17.675  0.00  0.00    -0.281 A 
ATOM     21  C   UNL     1      51.548  20.074  16.729  0.00  0.00    +0.225 A 
ATOM     24  C   UNL     1      52.199  19.312  15.775  0.00  0.00    -0.073 A 
ATOM     25  C   UNL     1      52.036  17.931  15.756  0.00  0.00    +0.198 A 
ATOM     28  C   UNL     1      51.218  17.303  16.687  0.00  0.00    -0.056 A 
ATOM     29  C   UNL     1      50.556  18.046  17.648  0.00  0.00    +0.211 A 
ATOM     30  O   UNL     1      50.309  21.388  18.916  0.00  0.00    -0.406 OA
ATOM     31  O   UNL     1      49.751  17.427  18.545  0.00  0.00    -0.283 OA
ENDROOT
BRANCH   4   3
ATOM      1  C   UNL     1      52.249  19.438  21.953  0.00  0.00    +0.033 A 
ATOM      2  C   UNL     1      51.095  19.362  21.194  0.00  0.00    +0.032 A 
ATOM      3  C   UNL     1      50.729  18.166  20.605  0.00  0.00    -0.144 A 
ATOM     32  C   UNL     1      51.520  17.041  20.772  0.00  0.00    +0.101 A 
ATOM     35  C   UNL     1      52.682  17.118  21.535  0.00  0.00    +0.087 A 
ATOM     38  C   UNL     1      53.042  18.319  22.123  0.00  0.00    +0.022 A 
BRANCH  32  33
ATOM     33  O   UNL     1      51.162  15.863  20.192  0.00  0.00    -0.485 OA
ATOM     34  H   UNL     1      51.194  15.105  20.790  0.00  0.00    +0.392 HD
ENDBRANCH  32  33
BRANCH  35  36
ATOM     36  O   UNL     1      53.461  16.016  21.701  0.00  0.00    -0.484 OA
ATOM     37  H   UNL     1      53.303  15.319  21.050  0.00  0.00    +0.391 HD
ENDBRANCH  35  36
ENDBRANCH   4   3
BRANCH  21  22
ATOM     22  O   UNL     1      51.703  21.421  16.748  0.00  0.00    -0.476 OA
ATOM     23  H   UNL     1      51.318  21.872  15.984  0.00  0.00    +0.402 HD
ENDBRANCH  21  22
BRANCH  25  26
ATOM     26  O   UNL     1      52.680  17.192  14.820  0.00  0.00    -0.489 OA
ATOM     27  H   UNL     1      52.091  16.677  14.252  0.00  0.00    +0.402 HD
ENDBRANCH  25  26
BRANCH   5   6
ATOM      6  O   UNL     1      47.750  19.440  18.729  0.00  0.00    -0.329 OA
BRANCH   6   7
ATOM      7  C   UNL     1      46.614  20.006  19.383  0.00  0.00    +0.289 C 
ATOM      8  C   UNL     1      45.437  19.029  19.301  0.00  0.00    +0.190 C 
ATOM     11  C   UNL     1      44.207  19.667  19.952  0.00  0.00    +0.203 C 
ATOM     14  C   UNL     1      43.907  20.999  19.255  0.00  0.00    +0.125 C 
ATOM     17  C   UNL     1      45.142  21.899  19.339  0.00  0.00    +0.215 C 
ATOM     18  O   UNL     1      46.257  21.233  18.743  0.00  0.00    -0.377 OA
BRANCH   8   9
ATOM      9  O   UNL     1      45.156  18.734  17.932  0.00  0.00    -0.536 OA
ATOM     10  H   UNL     1      45.240  17.798  17.705  0.00  0.00    +0.387 HD
ENDBRANCH   8   9
BRANCH  11  12
ATOM     12  O   UNL     1      43.086  18.792  19.817  0.00  0.00    -0.544 OA
ATOM     13  H   UNL     1      43.322  17.856  19.765  0.00  0.00    +0.389 HD
ENDBRANCH  11  12
BRANCH  14  15
ATOM     15  O   UNL     1      42.804  21.637  19.900  0.00  0.00    -0.562 OA
ATOM     16  H   UNL     1      42.451  21.144  20.654  0.00  0.00    +0.388 HD
ENDBRANCH  14  15
ENDBRANCH   6   7
ENDBRANCH   5   6
TORSDOF 10
ENDMDL
MODEL 9
REMARK VINA RESULT:      -6.2      3.257      6.165
REMARK  Name = ZINC95486339
REMARK  10 active torsions:
REMARK  status: ('A' for Active; 'I' for Inactive)
REMARK    1  A    between atoms: C3_3  and  C7_9
REMARK    2  A    between atoms: C4_4  and  O2_8
REMARK    3  A    between atoms: C5_5  and  O1_7
REMARK    4  A    between atoms: C8_11  and  O7_24
REMARK    5  A    between atoms: C11_16  and  O6_23
REMARK    6  A    between atoms: C13_18  and  O5_22
REMARK    7  A    between atoms: O7_24  and  C16_25
REMARK    8  A    between atoms: C17_27  and  O11_37
REMARK    9  A    between atoms: C18_29  and  O10_36
REMARK   10  A    between atoms: C19_31  and  O9_35
REMARK                            x       y       z     vdW  Elec       q    Type
REMARK                         _______ _______ _______ _____ _____    ______ ____
ROOT
ATOM      4  C   UNL     1      47.895  16.527  20.466  0.00  0.00    +0.301 C 
ATOM      5  C   UNL     1      48.226  17.283  19.172  0.00  0.00    +0.144 C 
ATOM     19  C   UNL     1      46.926  17.864  18.645  0.00  0.00    +0.396 C 
ATOM     20  C   UNL     1      46.006  18.423  19.641  0.00  0.00    -0.281 A 
ATOM     21  C   UNL     1      44.909  19.204  19.244  0.00  0.00    +0.225 A 
ATOM     24  C   UNL     1      44.050  19.709  20.204  0.00  0.00    -0.073 A 
ATOM     25  C   UNL     1      44.276  19.446  21.550  0.00  0.00    +0.198 A 
ATOM     28  C   UNL     1      45.364  18.678  21.948  0.00  0.00    -0.056 A 
ATOM     29  C   UNL     1      46.236  18.165  21.005  0.00  0.00    +0.211 A 
ATOM     30  O   UNL     1      46.661  17.865  17.461  0.00  0.00    -0.406 OA
ATOM     31  O   UNL     1      47.301  17.428  21.402  0.00  0.00    -0.283 OA
ENDROOT
BRANCH   4   3
ATOM      1  C   UNL     1      45.786  14.032  18.570  0.00  0.00    +0.033 A 
ATOM      2  C   UNL     1      46.669  15.058  18.851  0.00  0.00    +0.032 A 
ATOM      3  C   UNL     1      46.931  15.409  20.163  0.00  0.00    -0.144 A 
ATOM     32  C   UNL     1      46.306  14.733  21.199  0.00  0.00    +0.101 A 
ATOM     35  C   UNL     1      45.417  13.701  20.915  0.00  0.00    +0.087 A 
ATOM     38  C   UNL     1      45.160  13.354  19.599  0.00  0.00    +0.022 A 
BRANCH  32  33
ATOM     33  O   UNL     1      46.562  15.077  22.490  0.00  0.00    -0.485 OA
ATOM     34  H   UNL     1      46.767  14.326  23.064  0.00  0.00    +0.392 HD
ENDBRANCH  32  33
BRANCH  35  36
ATOM     36  O   UNL     1      44.802  13.035  21.928  0.00  0.00    -0.484 OA
ATOM     37  H   UNL     1      44.135  12.399  21.635  0.00  0.00    +0.391 HD
ENDBRANCH  35  36
ENDBRANCH   4   3
BRANCH  21  22
ATOM     22  O   UNL     1      44.693  19.462  17.930  0.00  0.00    -0.476 OA
ATOM     23  H   UNL     1      45.164  20.238  17.600  0.00  0.00    +0.402 HD
ENDBRANCH  21  22
BRANCH  25  26
ATOM     26  O   UNL     1      43.426  19.943  22.483  0.00  0.00    -0.489 OA
ATOM     27  H   UNL     1      43.233  19.330  23.205  0.00  0.00    +0.402 HD
ENDBRANCH  25  26
BRANCH   5   6
ATOM      6  O   UNL     1      49.155  18.334  19.445  0.00  0.00    -0.329 OA
BRANCH   6   7
ATOM      7  C   UNL     1      49.680  18.966  18.276  0.00  0.00    +0.289 C 
ATOM      8  C   UNL     1      50.613  17.995  17.547  0.00  0.00    +0.190 C 
ATOM     11  C   UNL     1      51.217  18.699  16.328  0.00  0.00    +0.203 C 
ATOM     14  C   UNL     1      51.943  19.967  16.793  0.00  0.00    +0.125 C 
ATOM     17  C   UNL     1      50.959  20.860  17.551  0.00  0.00    +0.215 C 
ATOM     18  O   UNL     1      50.410  20.135  18.653  0.00  0.00    -0.377 OA
BRANCH   8   9
ATOM      9  O   UNL     1      51.658  17.584  18.430  0.00  0.00    -0.536 OA
ATOM     10  H   UNL     1      52.441  18.150  18.404  0.00  0.00    +0.387 HD
ENDBRANCH   8   9
BRANCH  11  12
ATOM     12  O   UNL     1      52.145  17.826  15.682  0.00  0.00    -0.544 OA
ATOM     13  H   UNL     1      51.944  17.658  14.752  0.00  0.00    +0.389 HD
ENDBRANCH  11  12
BRANCH  14  15
ATOM     15  O   UNL     1      52.450  20.669  15.657  0.00  0.00    -0.562 OA
ATOM     16  H   UNL     1      53.294  21.115  15.814  0.00  0.00    +0.388 HD
ENDBRANCH  14  15
ENDBRANCH   6   7
ENDBRANCH   5   6
TORSDOF 10
ENDMDL
