MODEL 1
REMARK VINA RESULT:      -6.6      0.000      0.000
REMARK  Name = ZINC13393282
REMARK  16 active torsions:
REMARK  status: ('A' for Active; 'I' for Inactive)
REMARK    1  A    between atoms: C1_1  and  C2_2
REMARK    2  A    between atoms: C2_2  and  C28_34
REMARK    3  A    between atoms: C3_3  and  C4_4
REMARK    4  A    between atoms: C4_4  and  C5_5
REMARK    5  A    between atoms: C5_5  and  C6_6
REMARK    6  A    between atoms: C6_6  and  C27_33
REMARK    7  A    between atoms: C7_7  and  C8_8
REMARK    8  A    between atoms: C8_8  and  C9_9
REMARK    9  A    between atoms: C13_13  and  O2_16
REMARK   10  A    between atoms: C14_14  and  O1_15
REMARK   11  A    between atoms: C17_20  and  O6_32
REMARK   12  A    between atoms: C18_21  and  C22_27
REMARK   13  A    between atoms: C19_22  and  O5_26
REMARK   14  A    between atoms: C22_27  and  C23_28
REMARK   15  A    between atoms: C24_29  and  C25_30
REMARK   16  A    between atoms: C24_29  and  C26_31
REMARK                            x       y       z     vdW  Elec       q    Type
REMARK                         _______ _______ _______ _____ _____    ______ ____
ROOT
ATOM     11  C   UNL     1      48.045  15.864  18.256  0.00  0.00    +0.011 A 
ATOM     12  C   UNL     1      46.916  16.475  18.806  0.00  0.00    -0.224 A 
ATOM     13  C   UNL     1      45.981  15.720  19.532  0.00  0.00    +0.177 A 
ATOM     14  O   UNL     1      44.886  16.299  20.068  0.00  0.00    -0.225 OA
ATOM     15  C   UNL     1      44.608  17.614  19.954  0.00  0.00    +0.193 A 
ATOM     16  C   UNL     1      43.460  18.131  20.535  0.00  0.00    -0.032 A 
ATOM     17  C   UNL     1      43.168  19.482  20.424  0.00  0.00    +0.198 A 
ATOM     20  C   UNL     1      44.016  20.336  19.729  0.00  0.00    -0.161 A 
ATOM     26  C   UNL     1      45.166  19.841  19.141  0.00  0.00    +0.223 A 
ATOM     29  C   UNL     1      45.467  18.477  19.251  0.00  0.00    -0.267 A 
ATOM     30  C   UNL     1      46.193  14.357  19.697  0.00  0.00    -0.015 A 
ATOM     31  C   UNL     1      47.312  13.756  19.150  0.00  0.00    +0.159 A 
ATOM     34  C   UNL     1      46.685  17.922  18.635  0.00  0.00    +0.439 A 
ATOM     35  O   UNL     1      47.463  18.624  18.016  0.00  0.00    -0.422 OA
ATOM     36  C   UNL     1      48.238  14.508  18.422  0.00  0.00    +0.050 A 
ENDROOT
BRANCH  17  18
ATOM     18  O   UNL     1      42.042  19.976  20.998  0.00  0.00    -0.482 OA
ATOM     19  H   UNL     1      41.234  19.797  20.496  0.00  0.00    +0.401 HD
ENDBRANCH  17  18
BRANCH  26  27
ATOM     27  O   UNL     1      45.997  20.672  18.462  0.00  0.00    -0.468 OA
ATOM     28  H   UNL     1      46.845  20.272  18.225  0.00  0.00    +0.400 HD
ENDBRANCH  26  27
BRANCH  31  32
ATOM     32  O   UNL     1      47.510  12.422  19.316  0.00  0.00    -0.483 OA
ATOM     33  H   UNL     1      47.494  12.135  20.239  0.00  0.00    +0.404 HD
ENDBRANCH  31  32
BRANCH  36  37
ATOM     37  O   UNL     1      49.332  13.905  17.884  0.00  0.00    -0.479 OA
ATOM     38  H   UNL     1      49.180  13.524  17.007  0.00  0.00    +0.392 HD
ENDBRANCH  36  37
BRANCH  11  10
ATOM     10  C   UNL     1      49.044  16.680  17.477  0.00  0.00    +0.136 C 
BRANCH  10   9
ATOM      7  C   UNL     1      51.415  17.029  17.944  0.00  0.00    -0.128 C 
ATOM      8  C   UNL     1      51.709  16.452  16.583  0.00  0.00    +0.075 C 
ATOM      9  C   UNL     1      50.182  17.078  18.382  0.00  0.00    -0.034 C 
BRANCH   7   6
ATOM      6  C   UNL     1      52.541  17.551  18.799  0.00  0.00    +0.062 C 
BRANCH   6   5
ATOM      5  C   UNL     1      52.305  19.031  19.105  0.00  0.00    +0.051 C 
BRANCH   5   4
ATOM      1  C   UNL     1      50.298  20.875  18.385  0.00  0.00    +0.071 C 
ATOM      2  C   UNL     1      51.478  20.649  17.474  0.00  0.00    -0.132 C 
ATOM      3  C   UNL     1      51.554  21.361  16.148  0.00  0.00    +0.072 C 
ATOM      4  C   UNL     1      52.436  19.833  17.835  0.00  0.00    -0.060 C 
ENDBRANCH   5   4
ENDBRANCH   6   5
ENDBRANCH   7   6
ENDBRANCH  10   9
ENDBRANCH  11  10
BRANCH  20  21
ATOM     21  C   UNL     1      43.684  21.802  19.616  0.00  0.00    +0.135 C 
BRANCH  21  22
ATOM     22  C   UNL     1      44.620  22.598  20.488  0.00  0.00    -0.060 C 
ATOM     23  C   UNL     1      44.977  23.807  20.132  0.00  0.00    -0.124 C 
ATOM     24  C   UNL     1      45.870  24.625  21.029  0.00  0.00    +0.073 C 
ATOM     25  C   UNL     1      44.494  24.381  18.824  0.00  0.00    +0.077 C 
ENDBRANCH  21  22
ENDBRANCH  20  21
TORSDOF 11
ENDMDL
MODEL 2
REMARK VINA RESULT:      -6.2      1.822      2.315
REMARK  Name = ZINC13393282
REMARK  16 active torsions:
REMARK  status: ('A' for Active; 'I' for Inactive)
REMARK    1  A    between atoms: C1_1  and  C2_2
REMARK    2  A    between atoms: C2_2  and  C28_34
REMARK    3  A    between atoms: C3_3  and  C4_4
REMARK    4  A    between atoms: C4_4  and  C5_5
REMARK    5  A    between atoms: C5_5  and  C6_6
REMARK    6  A    between atoms: C6_6  and  C27_33
REMARK    7  A    between atoms: C7_7  and  C8_8
REMARK    8  A    between atoms: C8_8  and  C9_9
REMARK    9  A    between atoms: C13_13  and  O2_16
REMARK   10  A    between atoms: C14_14  and  O1_15
REMARK   11  A    between atoms: C17_20  and  O6_32
REMARK   12  A    between atoms: C18_21  and  C22_27
REMARK   13  A    between atoms: C19_22  and  O5_26
REMARK   14  A    between atoms: C22_27  and  C23_28
REMARK   15  A    between atoms: C24_29  and  C25_30
REMARK   16  A    between atoms: C24_29  and  C26_31
REMARK                            x       y       z     vdW  Elec       q    Type
REMARK                         _______ _______ _______ _____ _____    ______ ____
ROOT
ATOM     11  C   UNL     1      48.879  15.584  17.699  0.00  0.00    +0.011 A 
ATOM     12  C   UNL     1      47.780  16.136  18.362  0.00  0.00    -0.224 A 
ATOM     13  C   UNL     1      46.485  15.651  18.120  0.00  0.00    +0.177 A 
ATOM     14  O   UNL     1      45.417  16.177  18.754  0.00  0.00    -0.225 OA
ATOM     15  C   UNL     1      45.502  17.183  19.648  0.00  0.00    +0.193 A 
ATOM     16  C   UNL     1      44.353  17.667  20.257  0.00  0.00    -0.032 A 
ATOM     17  C   UNL     1      44.433  18.701  21.177  0.00  0.00    +0.198 A 
ATOM     20  C   UNL     1      45.659  19.267  21.503  0.00  0.00    -0.161 A 
ATOM     26  C   UNL     1      46.817  18.801  20.908  0.00  0.00    +0.223 A 
ATOM     29  C   UNL     1      46.743  17.756  19.977  0.00  0.00    -0.267 A 
ATOM     30  C   UNL     1      46.309  14.613  17.213  0.00  0.00    -0.015 A 
ATOM     31  C   UNL     1      47.400  14.070  16.559  0.00  0.00    +0.159 A 
ATOM     34  C   UNL     1      47.959  17.238  19.327  0.00  0.00    +0.439 A 
ATOM     35  O   UNL     1      49.059  17.696  19.575  0.00  0.00    -0.422 OA
ATOM     36  C   UNL     1      48.687  14.559  16.796  0.00  0.00    +0.050 A 
ENDROOT
BRANCH  17  18
ATOM     18  O   UNL     1      43.302  19.165  21.766  0.00  0.00    -0.482 OA
ATOM     19  H   UNL     1      42.956  19.977  21.369  0.00  0.00    +0.401 HD
ENDBRANCH  17  18
BRANCH  26  27
ATOM     27  O   UNL     1      48.016  19.351  21.223  0.00  0.00    -0.468 OA
ATOM     28  H   UNL     1      48.280  20.079  20.644  0.00  0.00    +0.400 HD
ENDBRANCH  26  27
BRANCH  31  32
ATOM     32  O   UNL     1      47.218  13.056  15.673  0.00  0.00    -0.483 OA
ATOM     33  H   UNL     1      46.795  12.274  16.052  0.00  0.00    +0.404 HD
ENDBRANCH  31  32
BRANCH  36  37
ATOM     37  O   UNL     1      49.752  14.020  16.142  0.00  0.00    -0.479 OA
ATOM     38  H   UNL     1      49.911  14.403  15.267  0.00  0.00    +0.392 HD
ENDBRANCH  36  37
BRANCH  11  10
ATOM     10  C   UNL     1      50.266  16.110  17.964  0.00  0.00    +0.136 C 
BRANCH  10   9
ATOM      7  C   UNL     1      51.683  17.905  17.109  0.00  0.00    -0.128 C 
ATOM      8  C   UNL     1      52.565  17.705  18.315  0.00  0.00    +0.075 C 
ATOM      9  C   UNL     1      50.583  17.206  16.979  0.00  0.00    -0.034 C 
BRANCH   7   6
ATOM      6  C   UNL     1      52.068  18.910  16.054  0.00  0.00    +0.062 C 
BRANCH   6   5
ATOM      5  C   UNL     1      51.490  20.278  16.419  0.00  0.00    +0.051 C 
BRANCH   5   4
ATOM      1  C   UNL     1      49.965  20.947  18.694  0.00  0.00    +0.071 C 
ATOM      2  C   UNL     1      51.458  21.159  18.696  0.00  0.00    -0.132 C 
ATOM      3  C   UNL     1      52.128  21.788  19.890  0.00  0.00    +0.072 C 
ATOM      4  C   UNL     1      52.171  20.797  17.659  0.00  0.00    -0.060 C 
ENDBRANCH   5   4
ENDBRANCH   6   5
ENDBRANCH   7   6
ENDBRANCH  10   9
ENDBRANCH  11  10
BRANCH  20  21
ATOM     21  C   UNL     1      45.728  20.391  22.505  0.00  0.00    +0.135 C 
BRANCH  21  22
ATOM     22  C   UNL     1      45.331  21.683  21.840  0.00  0.00    -0.060 C 
ATOM     23  C   UNL     1      46.190  22.669  21.759  0.00  0.00    -0.124 C 
ATOM     24  C   UNL     1      45.811  23.942  21.047  0.00  0.00    +0.073 C 
ATOM     25  C   UNL     1      47.557  22.530  22.380  0.00  0.00    +0.077 C 
ENDBRANCH  21  22
ENDBRANCH  20  21
TORSDOF 11
ENDMDL
MODEL 3
REMARK VINA RESULT:      -6.2      1.900      2.573
REMARK  Name = ZINC13393282
REMARK  16 active torsions:
REMARK  status: ('A' for Active; 'I' for Inactive)
REMARK    1  A    between atoms: C1_1  and  C2_2
REMARK    2  A    between atoms: C2_2  and  C28_34
REMARK    3  A    between atoms: C3_3  and  C4_4
REMARK    4  A    between atoms: C4_4  and  C5_5
REMARK    5  A    between atoms: C5_5  and  C6_6
REMARK    6  A    between atoms: C6_6  and  C27_33
REMARK    7  A    between atoms: C7_7  and  C8_8
REMARK    8  A    between atoms: C8_8  and  C9_9
REMARK    9  A    between atoms: C13_13  and  O2_16
REMARK   10  A    between atoms: C14_14  and  O1_15
REMARK   11  A    between atoms: C17_20  and  O6_32
REMARK   12  A    between atoms: C18_21  and  C22_27
REMARK   13  A    between atoms: C19_22  and  O5_26
REMARK   14  A    between atoms: C22_27  and  C23_28
REMARK   15  A    between atoms: C24_29  and  C25_30
REMARK   16  A    between atoms: C24_29  and  C26_31
REMARK                            x       y       z     vdW  Elec       q    Type
REMARK                         _______ _______ _______ _____ _____    ______ ____
ROOT
ATOM     11  C   UNL     1      47.500  14.522  19.377  0.00  0.00    +0.011 A 
ATOM     12  C   UNL     1      46.520  15.253  20.053  0.00  0.00    -0.224 A 
ATOM     13  C   UNL     1      46.033  14.813  21.294  0.00  0.00    +0.177 A 
ATOM     14  O   UNL     1      45.086  15.511  21.956  0.00  0.00    -0.225 OA
ATOM     15  C   UNL     1      44.546  16.657  21.493  0.00  0.00    +0.193 A 
ATOM     16  C   UNL     1      43.576  17.314  22.237  0.00  0.00    -0.032 A 
ATOM     17  C   UNL     1      43.017  18.493  21.768  0.00  0.00    +0.198 A 
ATOM     20  C   UNL     1      43.416  19.033  20.551  0.00  0.00    -0.161 A 
ATOM     26  C   UNL     1      44.381  18.394  19.794  0.00  0.00    +0.223 A 
ATOM     29  C   UNL     1      44.950  17.202  20.262  0.00  0.00    -0.267 A 
ATOM     30  C   UNL     1      46.537  13.641  21.842  0.00  0.00    -0.015 A 
ATOM     31  C   UNL     1      47.507  12.920  21.170  0.00  0.00    +0.159 A 
ATOM     34  C   UNL     1      45.979  16.500  19.477  0.00  0.00    +0.439 A 
ATOM     35  O   UNL     1      46.366  16.928  18.405  0.00  0.00    -0.422 OA
ATOM     36  C   UNL     1      47.985  13.357  19.932  0.00  0.00    +0.050 A 
ENDROOT
BRANCH  17  18
ATOM     18  O   UNL     1      42.070  19.127  22.505  0.00  0.00    -0.482 OA
ATOM     19  H   UNL     1      42.186  19.032  23.461  0.00  0.00    +0.401 HD
ENDBRANCH  17  18
BRANCH  26  27
ATOM     27  O   UNL     1      44.773  18.918  18.605  0.00  0.00    -0.468 OA
ATOM     28  H   UNL     1      45.592  19.428  18.651  0.00  0.00    +0.400 HD
ENDBRANCH  26  27
BRANCH  31  32
ATOM     32  O   UNL     1      47.994  11.774  21.714  0.00  0.00    -0.483 OA
ATOM     33  H   UNL     1      48.021  11.779  22.680  0.00  0.00    +0.404 HD
ENDBRANCH  31  32
BRANCH  36  37
ATOM     37  O   UNL     1      48.935  12.636  19.276  0.00  0.00    -0.479 OA
ATOM     38  H   UNL     1      48.578  12.007  18.632  0.00  0.00    +0.392 HD
ENDBRANCH  36  37
BRANCH  11  10
ATOM     10  C   UNL     1      48.017  15.001  18.045  0.00  0.00    +0.136 C 
BRANCH  10   9
ATOM      7  C   UNL     1      50.330  15.581  17.522  0.00  0.00    -0.128 C 
ATOM      8  C   UNL     1      50.344  14.420  16.561  0.00  0.00    +0.075 C 
ATOM      9  C   UNL     1      49.269  15.812  18.256  0.00  0.00    -0.034 C 
BRANCH   7   6
ATOM      6  C   UNL     1      51.537  16.476  17.639  0.00  0.00    +0.062 C 
BRANCH   6   5
ATOM      5  C   UNL     1      51.092  17.881  18.049  0.00  0.00    +0.051 C 
BRANCH   5   4
ATOM      1  C   UNL     1      50.557  20.627  18.397  0.00  0.00    +0.071 C 
ATOM      2  C   UNL     1      51.316  20.154  17.184  0.00  0.00    -0.132 C 
ATOM      3  C   UNL     1      51.734  21.139  16.124  0.00  0.00    +0.072 C 
ATOM      4  C   UNL     1      51.611  18.884  17.051  0.00  0.00    -0.060 C 
ENDBRANCH   5   4
ENDBRANCH   6   5
ENDBRANCH   7   6
ENDBRANCH  10   9
ENDBRANCH  11  10
BRANCH  20  21
ATOM     21  C   UNL     1      42.797  20.315  20.056  0.00  0.00    +0.135 C 
BRANCH  21  22
ATOM     22  C   UNL     1      41.463  20.018  19.423  0.00  0.00    -0.060 C 
ATOM     23  C   UNL     1      40.831  20.953  18.757  0.00  0.00    -0.124 C 
ATOM     24  C   UNL     1      39.522  20.641  18.077  0.00  0.00    +0.073 C 
ATOM     25  C   UNL     1      41.413  22.341  18.671  0.00  0.00    +0.077 C 
ENDBRANCH  21  22
ENDBRANCH  20  21
TORSDOF 11
ENDMDL
MODEL 4
REMARK VINA RESULT:      -6.1      2.748      5.405
REMARK  Name = ZINC13393282
REMARK  16 active torsions:
REMARK  status: ('A' for Active; 'I' for Inactive)
REMARK    1  A    between atoms: C1_1  and  C2_2
REMARK    2  A    between atoms: C2_2  and  C28_34
REMARK    3  A    between atoms: C3_3  and  C4_4
REMARK    4  A    between atoms: C4_4  and  C5_5
REMARK    5  A    between atoms: C5_5  and  C6_6
REMARK    6  A    between atoms: C6_6  and  C27_33
REMARK    7  A    between atoms: C7_7  and  C8_8
REMARK    8  A    between atoms: C8_8  and  C9_9
REMARK    9  A    between atoms: C13_13  and  O2_16
REMARK   10  A    between atoms: C14_14  and  O1_15
REMARK   11  A    between atoms: C17_20  and  O6_32
REMARK   12  A    between atoms: C18_21  and  C22_27
REMARK   13  A    between atoms: C19_22  and  O5_26
REMARK   14  A    between atoms: C22_27  and  C23_28
REMARK   15  A    between atoms: C24_29  and  C25_30
REMARK   16  A    between atoms: C24_29  and  C26_31
REMARK                            x       y       z     vdW  Elec       q    Type
REMARK                         _______ _______ _______ _____ _____    ______ ____
ROOT
ATOM     11  C   UNL     1      50.310  18.900  17.797  0.00  0.00    +0.011 A 
ATOM     12  C   UNL     1      49.319  19.416  18.635  0.00  0.00    -0.224 A 
ATOM     13  C   UNL     1      49.596  20.498  19.485  0.00  0.00    +0.177 A 
ATOM     14  O   UNL     1      48.646  21.004  20.298  0.00  0.00    -0.225 OA
ATOM     15  C   UNL     1      47.386  20.526  20.360  0.00  0.00    +0.193 A 
ATOM     16  C   UNL     1      46.468  21.104  21.225  0.00  0.00    -0.032 A 
ATOM     17  C   UNL     1      45.171  20.619  21.292  0.00  0.00    +0.198 A 
ATOM     20  C   UNL     1      44.772  19.549  20.500  0.00  0.00    -0.161 A 
ATOM     26  C   UNL     1      45.671  18.958  19.631  0.00  0.00    +0.223 A 
ATOM     29  C   UNL     1      46.983  19.444  19.558  0.00  0.00    -0.267 A 
ATOM     30  C   UNL     1      50.871  21.051  19.483  0.00  0.00    -0.015 A 
ATOM     31  C   UNL     1      51.850  20.537  18.652  0.00  0.00    +0.159 A 
ATOM     34  C   UNL     1      47.962  18.834  18.642  0.00  0.00    +0.439 A 
ATOM     35  O   UNL     1      47.667  17.896  17.925  0.00  0.00    -0.422 OA
ATOM     36  C   UNL     1      51.573  19.456  17.812  0.00  0.00    +0.050 A 
ENDROOT
BRANCH  17  18
ATOM     18  O   UNL     1      44.283  21.193  22.142  0.00  0.00    -0.482 OA
ATOM     19  H   UNL     1      43.479  21.516  21.711  0.00  0.00    +0.401 HD
ENDBRANCH  17  18
BRANCH  26  27
ATOM     27  O   UNL     1      45.285  17.913  18.856  0.00  0.00    -0.468 OA
ATOM     28  H   UNL     1      44.662  17.312  19.287  0.00  0.00    +0.400 HD
ENDBRANCH  26  27
BRANCH  31  32
ATOM     32  O   UNL     1      53.094  21.084  18.658  0.00  0.00    -0.483 OA
ATOM     33  H   UNL     1      53.746  20.582  18.151  0.00  0.00    +0.404 HD
ENDBRANCH  31  32
BRANCH  36  37
ATOM     37  O   UNL     1      52.546  18.955  17.003  0.00  0.00    -0.479 OA
ATOM     38  H   UNL     1      53.246  19.589  16.790  0.00  0.00    +0.392 HD
ENDBRANCH  36  37
BRANCH  11  10
ATOM     10  C   UNL     1      50.005  17.738  16.888  0.00  0.00    +0.136 C 
BRANCH  10   9
ATOM      7  C   UNL     1      50.412  15.359  17.257  0.00  0.00    -0.128 C 
ATOM      8  C   UNL     1      48.936  15.134  17.051  0.00  0.00    +0.075 C 
ATOM      9  C   UNL     1      50.897  16.576  17.242  0.00  0.00    -0.034 C 
BRANCH   7   6
ATOM      6  C   UNL     1      51.329  14.184  17.480  0.00  0.00    +0.062 C 
BRANCH   6   5
ATOM      5  C   UNL     1      50.892  13.020  16.590  0.00  0.00    +0.051 C 
BRANCH   5   4
ATOM      1  C   UNL     1      49.199  12.602  14.374  0.00  0.00    +0.071 C 
ATOM      2  C   UNL     1      50.640  12.988  14.161  0.00  0.00    -0.132 C 
ATOM      3  C   UNL     1      51.195  13.088  12.763  0.00  0.00    +0.072 C 
ATOM      4  C   UNL     1      51.410  13.235  15.191  0.00  0.00    -0.060 C 
ENDBRANCH   5   4
ENDBRANCH   6   5
ENDBRANCH   7   6
ENDBRANCH  10   9
ENDBRANCH  11  10
BRANCH  20  21
ATOM     21  C   UNL     1      43.358  19.034  20.587  0.00  0.00    +0.135 C 
BRANCH  21  22
ATOM     22  C   UNL     1      42.469  19.849  19.684  0.00  0.00    -0.060 C 
ATOM     23  C   UNL     1      41.187  19.940  19.936  0.00  0.00    -0.124 C 
ATOM     24  C   UNL     1      40.306  20.799  19.065  0.00  0.00    +0.073 C 
ATOM     25  C   UNL     1      40.591  19.184  21.097  0.00  0.00    +0.077 C 
ENDBRANCH  21  22
ENDBRANCH  20  21
TORSDOF 11
ENDMDL
MODEL 5
REMARK VINA RESULT:      -6.1      1.978      2.969
REMARK  Name = ZINC13393282
REMARK  16 active torsions:
REMARK  status: ('A' for Active; 'I' for Inactive)
REMARK    1  A    between atoms: C1_1  and  C2_2
REMARK    2  A    between atoms: C2_2  and  C28_34
REMARK    3  A    between atoms: C3_3  and  C4_4
REMARK    4  A    between atoms: C4_4  and  C5_5
REMARK    5  A    between atoms: C5_5  and  C6_6
REMARK    6  A    between atoms: C6_6  and  C27_33
REMARK    7  A    between atoms: C7_7  and  C8_8
REMARK    8  A    between atoms: C8_8  and  C9_9
REMARK    9  A    between atoms: C13_13  and  O2_16
REMARK   10  A    between atoms: C14_14  and  O1_15
REMARK   11  A    between atoms: C17_20  and  O6_32
REMARK   12  A    between atoms: C18_21  and  C22_27
REMARK   13  A    between atoms: C19_22  and  O5_26
REMARK   14  A    between atoms: C22_27  and  C23_28
REMARK   15  A    between atoms: C24_29  and  C25_30
REMARK   16  A    between atoms: C24_29  and  C26_31
REMARK                            x       y       z     vdW  Elec       q    Type
REMARK                         _______ _______ _______ _____ _____    ______ ____
ROOT
ATOM     11  C   UNL     1      49.274  16.417  17.975  0.00  0.00    +0.011 A 
ATOM     12  C   UNL     1      48.137  16.362  18.785  0.00  0.00    -0.224 A 
ATOM     13  C   UNL     1      47.828  15.194  19.500  0.00  0.00    +0.177 A 
ATOM     14  O   UNL     1      46.733  15.129  20.284  0.00  0.00    -0.225 OA
ATOM     15  C   UNL     1      45.869  16.152  20.443  0.00  0.00    +0.193 A 
ATOM     16  C   UNL     1      44.765  16.004  21.271  0.00  0.00    -0.032 A 
ATOM     17  C   UNL     1      43.873  17.052  21.440  0.00  0.00    +0.198 A 
ATOM     20  C   UNL     1      44.069  18.263  20.787  0.00  0.00    -0.161 A 
ATOM     26  C   UNL     1      45.163  18.432  19.957  0.00  0.00    +0.223 A 
ATOM     29  C   UNL     1      46.067  17.376  19.782  0.00  0.00    -0.267 A 
ATOM     30  C   UNL     1      48.667  14.092  19.391  0.00  0.00    -0.015 A 
ATOM     31  C   UNL     1      49.792  14.151  18.588  0.00  0.00    +0.159 A 
ATOM     34  C   UNL     1      47.241  17.529  18.905  0.00  0.00    +0.439 A 
ATOM     35  O   UNL     1      47.462  18.566  18.309  0.00  0.00    -0.422 OA
ATOM     36  C   UNL     1      50.094  15.312  17.873  0.00  0.00    +0.050 A 
ENDROOT
BRANCH  17  18
ATOM     18  O   UNL     1      42.797  16.894  22.252  0.00  0.00    -0.482 OA
ATOM     19  H   UNL     1      42.360  16.036  22.164  0.00  0.00    +0.401 HD
ENDBRANCH  17  18
BRANCH  26  27
ATOM     27  O   UNL     1      45.357  19.613  19.317  0.00  0.00    -0.468 OA
ATOM     28  H   UNL     1      45.557  19.522  18.376  0.00  0.00    +0.400 HD
ENDBRANCH  26  27
BRANCH  31  32
ATOM     32  O   UNL     1      50.606  13.068  18.488  0.00  0.00    -0.483 OA
ATOM     33  H   UNL     1      50.305  12.407  17.849  0.00  0.00    +0.404 HD
ENDBRANCH  31  32
BRANCH  36  37
ATOM     37  O   UNL     1      51.199  15.357  17.081  0.00  0.00    -0.479 OA
ATOM     38  H   UNL     1      52.002  15.022  17.506  0.00  0.00    +0.392 HD
ENDBRANCH  36  37
BRANCH  11  10
ATOM     10  C   UNL     1      49.599  17.674  17.211  0.00  0.00    +0.136 C 
BRANCH  10   9
ATOM      7  C   UNL     1      51.606  19.062  17.303  0.00  0.00    -0.128 C 
ATOM      8  C   UNL     1      51.743  18.861  15.816  0.00  0.00    +0.075 C 
ATOM      9  C   UNL     1      50.645  18.460  17.959  0.00  0.00    -0.034 C 
BRANCH   7   6
ATOM      6  C   UNL     1      52.574  19.956  18.034  0.00  0.00    +0.062 C 
BRANCH   6   5
ATOM      5  C   UNL     1      51.820  21.148  18.626  0.00  0.00    +0.051 C 
BRANCH   5   4
ATOM      1  C   UNL     1      50.189  20.694  20.880  0.00  0.00    +0.071 C 
ATOM      2  C   UNL     1      51.568  21.279  21.051  0.00  0.00    -0.132 C 
ATOM      3  C   UNL     1      52.052  21.682  22.420  0.00  0.00    +0.072 C 
ATOM      4  C   UNL     1      52.345  21.438  20.009  0.00  0.00    -0.060 C 
ENDBRANCH   5   4
ENDBRANCH   6   5
ENDBRANCH   7   6
ENDBRANCH  10   9
ENDBRANCH  11  10
BRANCH  20  21
ATOM     21  C   UNL     1      43.090  19.391  20.981  0.00  0.00    +0.135 C 
BRANCH  21  22
ATOM     22  C   UNL     1      41.978  19.273  19.972  0.00  0.00    -0.060 C 
ATOM     23  C   UNL     1      41.717  20.270  19.163  0.00  0.00    -0.124 C 
ATOM     24  C   UNL     1      40.641  20.132  18.117  0.00  0.00    +0.073 C 
ATOM     25  C   UNL     1      42.495  21.557  19.280  0.00  0.00    +0.077 C 
ENDBRANCH  21  22
ENDBRANCH  20  21
TORSDOF 11
ENDMDL
MODEL 6
REMARK VINA RESULT:      -6.1      2.253      5.217
REMARK  Name = ZINC13393282
REMARK  16 active torsions:
REMARK  status: ('A' for Active; 'I' for Inactive)
REMARK    1  A    between atoms: C1_1  and  C2_2
REMARK    2  A    between atoms: C2_2  and  C28_34
REMARK    3  A    between atoms: C3_3  and  C4_4
REMARK    4  A    between atoms: C4_4  and  C5_5
REMARK    5  A    between atoms: C5_5  and  C6_6
REMARK    6  A    between atoms: C6_6  and  C27_33
REMARK    7  A    between atoms: C7_7  and  C8_8
REMARK    8  A    between atoms: C8_8  and  C9_9
REMARK    9  A    between atoms: C13_13  and  O2_16
REMARK   10  A    between atoms: C14_14  and  O1_15
REMARK   11  A    between atoms: C17_20  and  O6_32
REMARK   12  A    between atoms: C18_21  and  C22_27
REMARK   13  A    between atoms: C19_22  and  O5_26
REMARK   14  A    between atoms: C22_27  and  C23_28
REMARK   15  A    between atoms: C24_29  and  C25_30
REMARK   16  A    between atoms: C24_29  and  C26_31
REMARK                            x       y       z     vdW  Elec       q    Type
REMARK                         _______ _______ _______ _____ _____    ______ ____
ROOT
ATOM     11  C   UNL     1      50.317  18.649  17.936  0.00  0.00    +0.011 A 
ATOM     12  C   UNL     1      49.265  19.295  18.590  0.00  0.00    -0.224 A 
ATOM     13  C   UNL     1      49.474  20.527  19.230  0.00  0.00    +0.177 A 
ATOM     14  O   UNL     1      48.467  21.160  19.865  0.00  0.00    -0.225 OA
ATOM     15  C   UNL     1      47.210  20.675  19.936  0.00  0.00    +0.193 A 
ATOM     16  C   UNL     1      46.230  21.389  20.610  0.00  0.00    -0.032 A 
ATOM     17  C   UNL     1      44.936  20.897  20.686  0.00  0.00    +0.198 A 
ATOM     20  C   UNL     1      44.601  19.686  20.093  0.00  0.00    -0.161 A 
ATOM     26  C   UNL     1      45.563  18.957  19.416  0.00  0.00    +0.223 A 
ATOM     29  C   UNL     1      46.872  19.449  19.336  0.00  0.00    -0.267 A 
ATOM     30  C   UNL     1      50.741  21.097  19.203  0.00  0.00    -0.015 A 
ATOM     31  C   UNL     1      51.780  20.454  18.554  0.00  0.00    +0.159 A 
ATOM     34  C   UNL     1      47.917  18.695  18.622  0.00  0.00    +0.439 A 
ATOM     35  O   UNL     1      47.680  17.630  18.084  0.00  0.00    -0.422 OA
ATOM     36  C   UNL     1      51.570  19.224  17.924  0.00  0.00    +0.050 A 
ENDROOT
BRANCH  17  18
ATOM     18  O   UNL     1      43.986  21.606  21.347  0.00  0.00    -0.482 OA
ATOM     19  H   UNL     1      44.187  22.548  21.434  0.00  0.00    +0.401 HD
ENDBRANCH  17  18
BRANCH  26  27
ATOM     27  O   UNL     1      45.240  17.774  18.836  0.00  0.00    -0.468 OA
ATOM     28  H   UNL     1      45.548  16.999  19.325  0.00  0.00    +0.400 HD
ENDBRANCH  26  27
BRANCH  31  32
ATOM     32  O   UNL     1      53.015  21.019  18.535  0.00  0.00    -0.483 OA
ATOM     33  H   UNL     1      53.691  20.472  18.111  0.00  0.00    +0.404 HD
ENDBRANCH  31  32
BRANCH  36  37
ATOM     37  O   UNL     1      52.601  18.598  17.294  0.00  0.00    -0.479 OA
ATOM     38  H   UNL     1      52.376  18.256  16.417  0.00  0.00    +0.392 HD
ENDBRANCH  36  37
BRANCH  11  10
ATOM     10  C   UNL     1      50.085  17.326  17.252  0.00  0.00    +0.136 C 
BRANCH  10   9
ATOM      7  C   UNL     1      49.903  15.007  17.992  0.00  0.00    -0.128 C 
ATOM      8  C   UNL     1      48.945  14.778  16.851  0.00  0.00    +0.075 C 
ATOM      9  C   UNL     1      50.383  16.205  18.214  0.00  0.00    -0.034 C 
BRANCH   7   6
ATOM      6  C   UNL     1      50.307  13.856  18.878  0.00  0.00    +0.062 C 
BRANCH   6   5
ATOM      5  C   UNL     1      49.107  13.411  19.715  0.00  0.00    +0.051 C 
BRANCH   5   4
ATOM      1  C   UNL     1      46.515  14.518  19.623  0.00  0.00    +0.071 C 
ATOM      2  C   UNL     1      47.536  15.066  20.587  0.00  0.00    -0.132 C 
ATOM      3  C   UNL     1      47.194  16.247  21.458  0.00  0.00    +0.072 C 
ATOM      4  C   UNL     1      48.722  14.515  20.667  0.00  0.00    -0.060 C 
ENDBRANCH   5   4
ENDBRANCH   6   5
ENDBRANCH   7   6
ENDBRANCH  10   9
ENDBRANCH  11  10
BRANCH  20  21
ATOM     21  C   UNL     1      43.189  19.166  20.186  0.00  0.00    +0.135 C 
BRANCH  21  22
ATOM     22  C   UNL     1      42.325  19.875  19.176  0.00  0.00    -0.060 C 
ATOM     23  C   UNL     1      41.079  20.160  19.465  0.00  0.00    -0.124 C 
ATOM     24  C   UNL     1      40.229  20.916  18.477  0.00  0.00    +0.073 C 
ATOM     25  C   UNL     1      40.495  19.730  20.788  0.00  0.00    +0.077 C 
ENDBRANCH  21  22
ENDBRANCH  20  21
TORSDOF 11
ENDMDL
MODEL 7
REMARK VINA RESULT:      -6.0      2.461      8.072
REMARK  Name = ZINC13393282
REMARK  16 active torsions:
REMARK  status: ('A' for Active; 'I' for Inactive)
REMARK    1  A    between atoms: C1_1  and  C2_2
REMARK    2  A    between atoms: C2_2  and  C28_34
REMARK    3  A    between atoms: C3_3  and  C4_4
REMARK    4  A    between atoms: C4_4  and  C5_5
REMARK    5  A    between atoms: C5_5  and  C6_6
REMARK    6  A    between atoms: C6_6  and  C27_33
REMARK    7  A    between atoms: C7_7  and  C8_8
REMARK    8  A    between atoms: C8_8  and  C9_9
REMARK    9  A    between atoms: C13_13  and  O2_16
REMARK   10  A    between atoms: C14_14  and  O1_15
REMARK   11  A    between atoms: C17_20  and  O6_32
REMARK   12  A    between atoms: C18_21  and  C22_27
REMARK   13  A    between atoms: C19_22  and  O5_26
REMARK   14  A    between atoms: C22_27  and  C23_28
REMARK   15  A    between atoms: C24_29  and  C25_30
REMARK   16  A    between atoms: C24_29  and  C26_31
REMARK                            x       y       z     vdW  Elec       q    Type
REMARK                         _______ _______ _______ _____ _____    ______ ____
ROOT
ATOM     11  C   UNL     1      50.476  19.627  18.249  0.00  0.00    +0.011 A 
ATOM     12  C   UNL     1      50.536  18.295  17.833  0.00  0.00    -0.224 A 
ATOM     13  C   UNL     1      51.342  17.925  16.744  0.00  0.00    +0.177 A 
ATOM     14  O   UNL     1      51.407  16.642  16.333  0.00  0.00    -0.225 OA
ATOM     15  C   UNL     1      50.724  15.636  16.917  0.00  0.00    +0.193 A 
ATOM     16  C   UNL     1      50.847  14.342  16.432  0.00  0.00    -0.032 A 
ATOM     17  C   UNL     1      50.149  13.304  17.028  0.00  0.00    +0.198 A 
ATOM     20  C   UNL     1      49.316  13.541  18.116  0.00  0.00    -0.161 A 
ATOM     26  C   UNL     1      49.179  14.823  18.615  0.00  0.00    +0.223 A 
ATOM     29  C   UNL     1      49.882  15.877  18.017  0.00  0.00    -0.267 A 
ATOM     30  C   UNL     1      52.079  18.901  16.086  0.00  0.00    -0.015 A 
ATOM     31  C   UNL     1      52.017  20.219  16.502  0.00  0.00    +0.159 A 
ATOM     34  C   UNL     1      49.755  17.253  18.528  0.00  0.00    +0.439 A 
ATOM     35  O   UNL     1      49.041  17.517  19.477  0.00  0.00    -0.422 OA
ATOM     36  C   UNL     1      51.209  20.585  17.581  0.00  0.00    +0.050 A 
ENDROOT
BRANCH  17  18
ATOM     18  O   UNL     1      50.278  12.043  16.545  0.00  0.00    -0.482 OA
ATOM     19  H   UNL     1      51.027  11.554  16.915  0.00  0.00    +0.401 HD
ENDBRANCH  17  18
BRANCH  26  27
ATOM     27  O   UNL     1      48.367  15.059  19.677  0.00  0.00    -0.468 OA
ATOM     28  H   UNL     1      47.848  14.291  19.953  0.00  0.00    +0.400 HD
ENDBRANCH  26  27
BRANCH  31  32
ATOM     32  O   UNL     1      52.742  21.166  15.851  0.00  0.00    -0.483 OA
ATOM     33  H   UNL     1      53.636  21.284  16.198  0.00  0.00    +0.404 HD
ENDBRANCH  31  32
BRANCH  36  37
ATOM     37  O   UNL     1      51.150  21.886  17.977  0.00  0.00    -0.479 OA
ATOM     38  H   UNL     1      51.538  22.508  17.344  0.00  0.00    +0.392 HD
ENDBRANCH  36  37
BRANCH  11  10
ATOM     10  C   UNL     1      49.608  20.016  19.418  0.00  0.00    +0.136 C 
BRANCH  10   9
ATOM      7  C   UNL     1      47.259  20.599  19.736  0.00  0.00    -0.128 C 
ATOM      8  C   UNL     1      47.389  20.108  21.155  0.00  0.00    +0.075 C 
ATOM      9  C   UNL     1      48.273  20.499  18.913  0.00  0.00    -0.034 C 
BRANCH   7   6
ATOM      6  C   UNL     1      45.962  21.206  19.265  0.00  0.00    +0.062 C 
BRANCH   6   5
ATOM      5  C   UNL     1      44.924  20.099  19.068  0.00  0.00    +0.051 C 
BRANCH   5   4
ATOM      1  C   UNL     1      45.132  17.379  19.780  0.00  0.00    +0.071 C 
ATOM      2  C   UNL     1      45.592  17.841  18.421  0.00  0.00    -0.132 C 
ATOM      3  C   UNL     1      46.223  16.862  17.465  0.00  0.00    +0.072 C 
ATOM      4  C   UNL     1      45.445  19.095  18.071  0.00  0.00    -0.060 C 
ENDBRANCH   5   4
ENDBRANCH   6   5
ENDBRANCH   7   6
ENDBRANCH  10   9
ENDBRANCH  11  10
BRANCH  20  21
ATOM     21  C   UNL     1      48.564  12.400  18.752  0.00  0.00    +0.135 C 
BRANCH  21  22
ATOM     22  C   UNL     1      47.657  11.765  17.730  0.00  0.00    -0.060 C 
ATOM     23  C   UNL     1      46.397  12.118  17.663  0.00  0.00    -0.124 C 
ATOM     24  C   UNL     1      45.502  11.523  16.607  0.00  0.00    +0.073 C 
ATOM     25  C   UNL     1      45.842  13.121  18.644  0.00  0.00    +0.077 C 
ENDBRANCH  21  22
ENDBRANCH  20  21
TORSDOF 11
ENDMDL
MODEL 8
REMARK VINA RESULT:      -6.0      2.588      5.100
REMARK  Name = ZINC13393282
REMARK  16 active torsions:
REMARK  status: ('A' for Active; 'I' for Inactive)
REMARK    1  A    between atoms: C1_1  and  C2_2
REMARK    2  A    between atoms: C2_2  and  C28_34
REMARK    3  A    between atoms: C3_3  and  C4_4
REMARK    4  A    between atoms: C4_4  and  C5_5
REMARK    5  A    between atoms: C5_5  and  C6_6
REMARK    6  A    between atoms: C6_6  and  C27_33
REMARK    7  A    between atoms: C7_7  and  C8_8
REMARK    8  A    between atoms: C8_8  and  C9_9
REMARK    9  A    between atoms: C13_13  and  O2_16
REMARK   10  A    between atoms: C14_14  and  O1_15
REMARK   11  A    between atoms: C17_20  and  O6_32
REMARK   12  A    between atoms: C18_21  and  C22_27
REMARK   13  A    between atoms: C19_22  and  O5_26
REMARK   14  A    between atoms: C22_27  and  C23_28
REMARK   15  A    between atoms: C24_29  and  C25_30
REMARK   16  A    between atoms: C24_29  and  C26_31
REMARK                            x       y       z     vdW  Elec       q    Type
REMARK                         _______ _______ _______ _____ _____    ______ ____
ROOT
ATOM     11  C   UNL     1      50.368  18.646  17.940  0.00  0.00    +0.011 A 
ATOM     12  C   UNL     1      49.311  19.252  18.623  0.00  0.00    -0.224 A 
ATOM     13  C   UNL     1      49.499  20.476  19.285  0.00  0.00    +0.177 A 
ATOM     14  O   UNL     1      48.486  21.070  19.948  0.00  0.00    -0.225 OA
ATOM     15  C   UNL     1      47.243  20.552  20.028  0.00  0.00    +0.193 A 
ATOM     16  C   UNL     1      46.256  21.228  20.731  0.00  0.00    -0.032 A 
ATOM     17  C   UNL     1      44.976  20.703  20.817  0.00  0.00    +0.198 A 
ATOM     20  C   UNL     1      44.662  19.496  20.204  0.00  0.00    -0.161 A 
ATOM     26  C   UNL     1      45.631  18.805  19.498  0.00  0.00    +0.223 A 
ATOM     29  C   UNL     1      46.927  19.331  19.408  0.00  0.00    -0.267 A 
ATOM     30  C   UNL     1      50.751  21.078  19.251  0.00  0.00    -0.015 A 
ATOM     31  C   UNL     1      51.795  20.474  18.573  0.00  0.00    +0.159 A 
ATOM     34  C   UNL     1      47.978  18.618  18.663  0.00  0.00    +0.439 A 
ATOM     35  O   UNL     1      47.759  17.558  18.107  0.00  0.00    -0.422 OA
ATOM     36  C   UNL     1      51.606  19.253  17.921  0.00  0.00    +0.050 A 
ENDROOT
BRANCH  17  18
ATOM     18  O   UNL     1      44.020  21.374  21.507  0.00  0.00    -0.482 OA
ATOM     19  H   UNL     1      43.221  21.559  20.994  0.00  0.00    +0.401 HD
ENDBRANCH  17  18
BRANCH  26  27
ATOM     27  O   UNL     1      45.329  17.626  18.899  0.00  0.00    -0.468 OA
ATOM     28  H   UNL     1      46.056  16.990  18.892  0.00  0.00    +0.400 HD
ENDBRANCH  26  27
BRANCH  31  32
ATOM     32  O   UNL     1      53.015  21.070  18.546  0.00  0.00    -0.483 OA
ATOM     33  H   UNL     1      53.411  21.117  17.665  0.00  0.00    +0.404 HD
ENDBRANCH  31  32
BRANCH  36  37
ATOM     37  O   UNL     1      52.642  18.665  17.263  0.00  0.00    -0.479 OA
ATOM     38  H   UNL     1      52.446  18.442  16.341  0.00  0.00    +0.392 HD
ENDBRANCH  36  37
BRANCH  11  10
ATOM     10  C   UNL     1      50.158  17.332  17.233  0.00  0.00    +0.136 C 
BRANCH  10   9
ATOM      7  C   UNL     1      50.416  14.975  17.816  0.00  0.00    -0.128 C 
ATOM      8  C   UNL     1      49.336  14.667  16.812  0.00  0.00    +0.075 C 
ATOM      9  C   UNL     1      50.754  16.219  18.055  0.00  0.00    -0.034 C 
BRANCH   7   6
ATOM      6  C   UNL     1      51.109  13.853  18.546  0.00  0.00    +0.062 C 
BRANCH   6   5
ATOM      5  C   UNL     1      51.865  14.417  19.749  0.00  0.00    +0.051 C 
BRANCH   5   4
ATOM      1  C   UNL     1      54.137  16.084  19.651  0.00  0.00    +0.071 C 
ATOM      2  C   UNL     1      54.301  14.586  19.701  0.00  0.00    -0.132 C 
ATOM      3  C   UNL     1      55.677  13.975  19.634  0.00  0.00    +0.072 C 
ATOM      4  C   UNL     1      53.246  13.816  19.801  0.00  0.00    -0.060 C 
ENDBRANCH   5   4
ENDBRANCH   6   5
ENDBRANCH   7   6
ENDBRANCH  10   9
ENDBRANCH  11  10
BRANCH  20  21
ATOM     21  C   UNL     1      43.266  18.938  20.308  0.00  0.00    +0.135 C 
BRANCH  21  22
ATOM     22  C   UNL     1      42.346  19.715  19.402  0.00  0.00    -0.060 C 
ATOM     23  C   UNL     1      41.109  19.946  19.766  0.00  0.00    -0.124 C 
ATOM     24  C   UNL     1      40.204  20.769  18.885  0.00  0.00    +0.073 C 
ATOM     25  C   UNL     1      40.590  19.388  21.067  0.00  0.00    +0.077 C 
ENDBRANCH  21  22
ENDBRANCH  20  21
TORSDOF 11
ENDMDL
MODEL 9
REMARK VINA RESULT:      -5.7      2.683      6.619
REMARK  Name = ZINC13393282
REMARK  16 active torsions:
REMARK  status: ('A' for Active; 'I' for Inactive)
REMARK    1  A    between atoms: C1_1  and  C2_2
REMARK    2  A    between atoms: C2_2  and  C28_34
REMARK    3  A    between atoms: C3_3  and  C4_4
REMARK    4  A    between atoms: C4_4  and  C5_5
REMARK    5  A    between atoms: C5_5  and  C6_6
REMARK    6  A    between atoms: C6_6  and  C27_33
REMARK    7  A    between atoms: C7_7  and  C8_8
REMARK    8  A    between atoms: C8_8  and  C9_9
REMARK    9  A    between atoms: C13_13  and  O2_16
REMARK   10  A    between atoms: C14_14  and  O1_15
REMARK   11  A    between atoms: C17_20  and  O6_32
REMARK   12  A    between atoms: C18_21  and  C22_27
REMARK   13  A    between atoms: C19_22  and  O5_26
REMARK   14  A    between atoms: C22_27  and  C23_28
REMARK   15  A    between atoms: C24_29  and  C25_30
REMARK   16  A    between atoms: C24_29  and  C26_31
REMARK                            x       y       z     vdW  Elec       q    Type
REMARK                         _______ _______ _______ _____ _____    ______ ____
ROOT
ATOM     11  C   UNL     1      46.048  14.060  19.093  0.00  0.00    +0.011 A 
ATOM     12  C   UNL     1      47.215  14.433  18.422  0.00  0.00    -0.224 A 
ATOM     13  C   UNL     1      47.511  13.899  17.157  0.00  0.00    +0.177 A 
ATOM     14  O   UNL     1      48.636  14.251  16.500  0.00  0.00    -0.225 OA
ATOM     15  C   UNL     1      49.543  15.121  16.990  0.00  0.00    +0.193 A 
ATOM     16  C   UNL     1      50.674  15.431  16.249  0.00  0.00    -0.032 A 
ATOM     17  C   UNL     1      51.610  16.326  16.745  0.00  0.00    +0.198 A 
ATOM     20  C   UNL     1      51.431  16.923  17.987  0.00  0.00    -0.161 A 
ATOM     26  C   UNL     1      50.311  16.629  18.742  0.00  0.00    +0.223 A 
ATOM     29  C   UNL     1      49.361  15.725  18.246  0.00  0.00    -0.267 A 
ATOM     30  C   UNL     1      46.628  12.994  16.581  0.00  0.00    -0.015 A 
ATOM     31  C   UNL     1      45.474  12.628  17.249  0.00  0.00    +0.159 A 
ATOM     34  C   UNL     1      48.158  15.393  19.028  0.00  0.00    +0.439 A 
ATOM     35  O   UNL     1      47.951  15.887  20.121  0.00  0.00    -0.422 OA
ATOM     36  C   UNL     1      45.185  13.155  18.510  0.00  0.00    +0.050 A 
ENDROOT
BRANCH  17  18
ATOM     18  O   UNL     1      52.712  16.621  16.011  0.00  0.00    -0.482 OA
ATOM     19  H   UNL     1      53.540  16.576  16.509  0.00  0.00    +0.401 HD
ENDBRANCH  17  18
BRANCH  26  27
ATOM     27  O   UNL     1      50.133  17.210  19.955  0.00  0.00    -0.468 OA
ATOM     28  H   UNL     1      49.212  17.420  20.160  0.00  0.00    +0.400 HD
ENDBRANCH  26  27
BRANCH  31  32
ATOM     32  O   UNL     1      44.617  11.742  16.677  0.00  0.00    -0.483 OA
ATOM     33  H   UNL     1      44.242  12.044  15.838  0.00  0.00    +0.404 HD
ENDBRANCH  31  32
BRANCH  36  37
ATOM     37  O   UNL     1      44.049  12.783  19.160  0.00  0.00    -0.479 OA
ATOM     38  H   UNL     1      44.093  12.889  20.121  0.00  0.00    +0.392 HD
ENDBRANCH  36  37
BRANCH  11  10
ATOM     10  C   UNL     1      45.737  14.637  20.449  0.00  0.00    +0.136 C 
BRANCH  10   9
ATOM      7  C   UNL     1      44.764  16.738  21.223  0.00  0.00    -0.128 C 
ATOM      8  C   UNL     1      45.535  16.557  22.505  0.00  0.00    +0.075 C 
ATOM      9  C   UNL     1      44.811  15.814  20.294  0.00  0.00    -0.034 C 
BRANCH   7   6
ATOM      6  C   UNL     1      43.938  17.981  21.009  0.00  0.00    +0.062 C 
BRANCH   6   5
ATOM      5  C   UNL     1      44.289  18.599  19.655  0.00  0.00    +0.051 C 
BRANCH   5   4
ATOM      1  C   UNL     1      46.300  18.123  17.737  0.00  0.00    +0.071 C 
ATOM      2  C   UNL     1      46.566  19.049  18.896  0.00  0.00    -0.132 C 
ATOM      3  C   UNL     1      47.928  19.672  19.067  0.00  0.00    +0.072 C 
ATOM      4  C   UNL     1      45.613  19.312  19.756  0.00  0.00    -0.060 C 
ENDBRANCH   5   4
ENDBRANCH   6   5
ENDBRANCH   7   6
ENDBRANCH  10   9
ENDBRANCH  11  10
BRANCH  20  21
ATOM     21  C   UNL     1      52.459  17.893  18.512  0.00  0.00    +0.135 C 
BRANCH  21  22
ATOM     22  C   UNL     1      51.799  19.216  18.803  0.00  0.00    -0.060 C 
ATOM     23  C   UNL     1      51.699  20.120  17.860  0.00  0.00    -0.124 C 
ATOM     24  C   UNL     1      50.992  21.422  18.136  0.00  0.00    +0.073 C 
ATOM     25  C   UNL     1      52.292  19.858  16.499  0.00  0.00    +0.077 C 
ENDBRANCH  21  22
ENDBRANCH  20  21
TORSDOF 11
ENDMDL
