MODEL 1
REMARK VINA RESULT:      -6.0      0.000      0.000
REMARK  Name = ZINC95486348
REMARK  13 active torsions:
REMARK  status: ('A' for Active; 'I' for Inactive)
REMARK    1  A    between atoms: C1_1  and  C2_2
REMARK    2  A    between atoms: C2_2  and  C3_4
REMARK    3  A    between atoms: C2_2  and  C10_13
REMARK    4  A    between atoms: C3_4  and  C4_5
REMARK    5  A    between atoms: C4_5  and  C5_6
REMARK    6  A    between atoms: C5_6  and  C6_7
REMARK    7  A    between atoms: C5_6  and  C7_9
REMARK    8  A    between atoms: C5_6  and  O2_12
REMARK    9  A    between atoms: C7_9  and  C8_10
REMARK   10  A    between atoms: C7_9  and  C9_11
REMARK   11  A    between atoms: C14_19  and  C28_37
REMARK   12  A    between atoms: C22_29  and  C27_36
REMARK   13  A    between atoms: C25_32  and  O3_35
REMARK                            x       y       z     vdW  Elec       q    Type
REMARK                         _______ _______ _______ _____ _____    ______ ____
ROOT
ATOM      3  C   UNL     1      44.182  18.627  21.164  0.00  0.00    -0.003 C 
ATOM      4  C   UNL     1      43.617  17.696  22.266  0.00  0.00    +0.006 C 
ATOM      5  C   UNL     1      44.228  16.291  22.007  0.00  0.00    +0.009 C 
ATOM      6  C   UNL     1      44.569  16.335  20.514  0.00  0.00    -0.006 C 
ATOM      7  C   UNL     1      45.624  15.347  20.049  0.00  0.00    +0.008 C 
ATOM      8  C   UNL     1      45.089  13.919  20.198  0.00  0.00    +0.058 C 
ATOM      9  C   UNL     1      46.061  12.958  19.578  0.00  0.00    -0.060 C 
ATOM     10  C   UNL     1      46.874  13.292  18.620  0.00  0.00    -0.092 C 
ATOM     11  C   UNL     1      46.978  14.699  18.031  0.00  0.00    -0.009 C 
ATOM     12  C   UNL     1      48.338  15.312  18.373  0.00  0.00    +0.024 C 
ATOM     13  C   UNL     1      46.887  14.600  16.506  0.00  0.00    +0.031 C 
ATOM     14  C   UNL     1      47.973  13.652  15.993  0.00  0.00    +0.032 C 
ATOM     15  C   UNL     1      47.735  12.248  16.550  0.00  0.00    +0.163 C 
ATOM     18  C   UNL     1      47.810  12.230  18.067  0.00  0.00    +0.026 C 
ATOM     19  C   UNL     1      45.895  15.625  18.558  0.00  0.00    -0.004 C 
ATOM     20  C   UNL     1      46.285  17.077  18.295  0.00  0.00    +0.011 C 
ATOM     21  C   UNL     1      45.257  18.059  18.881  0.00  0.00    +0.023 C 
ATOM     22  C   UNL     1      45.157  17.766  20.366  0.00  0.00    -0.055 C 
ATOM     23  C   UNL     1      46.546  17.826  21.007  0.00  0.00    +0.021 C 
ENDROOT
BRANCH   3   2
ATOM      1  C   UNL     1      41.707  18.901  20.954  0.00  0.00    +0.013 C 
ATOM      2  C   UNL     1      43.052  19.123  20.259  0.00  0.00    -0.009 C 
BRANCH   2  24
ATOM     24  C   UNL     1      43.241  20.616  19.980  0.00  0.00    +0.023 C 
BRANCH  24  25
ATOM     25  C   UNL     1      44.338  21.170  20.889  0.00  0.00    +0.007 C 
BRANCH  25  26
ATOM     26  C   UNL     1      45.298  22.031  20.064  0.00  0.00    +0.076 C 
BRANCH  26  29
ATOM     29  C   UNL     1      46.714  21.902  20.630  0.00  0.00    -0.037 C 
ATOM     30  C   UNL     1      47.529  20.947  19.755  0.00  0.00    +0.031 C 
ATOM     31  C   UNL     1      46.645  21.353  22.057  0.00  0.00    +0.031 C 
ENDBRANCH  26  29
BRANCH  26  27
ATOM     27  O   UNL     1      45.287  21.587  18.705  0.00  0.00    -0.541 OA
ATOM     28  H   UNL     1      44.626  22.026  18.154  0.00  0.00    +0.382 HD
ENDBRANCH  26  27
BRANCH  26  32
ATOM     32  C   UNL     1      44.861  23.470  20.127  0.00  0.00    +0.465 C 
ATOM     33  O   UNL     1      44.465  24.026  19.130  0.00  0.00    -0.433 OA
ENDBRANCH  26  32
ENDBRANCH  25  26
ENDBRANCH  24  25
ENDBRANCH   2  24
ENDBRANCH   3   2
BRANCH  15  16
ATOM     16  O   UNL     1      46.420  11.811  16.198  0.00  0.00    -0.565 OA
ATOM     17  H   UNL     1      45.717  12.406  16.490  0.00  0.00    +0.374 HD
ENDBRANCH  15  16
TORSDOF 8
ENDMDL
MODEL 2
REMARK VINA RESULT:      -5.8      3.075      4.637
REMARK  Name = ZINC95486348
REMARK  13 active torsions:
REMARK  status: ('A' for Active; 'I' for Inactive)
REMARK    1  A    between atoms: C1_1  and  C2_2
REMARK    2  A    between atoms: C2_2  and  C3_4
REMARK    3  A    between atoms: C2_2  and  C10_13
REMARK    4  A    between atoms: C3_4  and  C4_5
REMARK    5  A    between atoms: C4_5  and  C5_6
REMARK    6  A    between atoms: C5_6  and  C6_7
REMARK    7  A    between atoms: C5_6  and  C7_9
REMARK    8  A    between atoms: C5_6  and  O2_12
REMARK    9  A    between atoms: C7_9  and  C8_10
REMARK   10  A    between atoms: C7_9  and  C9_11
REMARK   11  A    between atoms: C14_19  and  C28_37
REMARK   12  A    between atoms: C22_29  and  C27_36
REMARK   13  A    between atoms: C25_32  and  O3_35
REMARK                            x       y       z     vdW  Elec       q    Type
REMARK                         _______ _______ _______ _____ _____    ______ ____
ROOT
ATOM      3  C   UNL     1      48.503  18.266  19.705  0.00  0.00    -0.003 C 
ATOM      4  C   UNL     1      47.268  18.139  20.631  0.00  0.00    +0.006 C 
ATOM      5  C   UNL     1      46.708  16.706  20.419  0.00  0.00    +0.009 C 
ATOM      6  C   UNL     1      47.218  16.342  19.021  0.00  0.00    -0.006 C 
ATOM      7  C   UNL     1      47.291  14.857  18.711  0.00  0.00    +0.008 C 
ATOM      8  C   UNL     1      45.876  14.270  18.682  0.00  0.00    +0.058 C 
ATOM      9  C   UNL     1      45.940  12.847  18.208  0.00  0.00    -0.060 C 
ATOM     10  C   UNL     1      46.887  12.399  17.438  0.00  0.00    -0.092 C 
ATOM     11  C   UNL     1      48.070  13.237  16.953  0.00  0.00    -0.009 C 
ATOM     12  C   UNL     1      49.369  12.719  17.576  0.00  0.00    +0.024 C 
ATOM     13  C   UNL     1      48.192  13.080  15.435  0.00  0.00    +0.031 C 
ATOM     14  C   UNL     1      48.323  11.595  15.086  0.00  0.00    +0.032 C 
ATOM     15  C   UNL     1      47.057  10.853  15.515  0.00  0.00    +0.163 C 
ATOM     18  C   UNL     1      46.841  10.939  17.016  0.00  0.00    +0.026 C 
ATOM     19  C   UNL     1      47.923  14.705  17.314  0.00  0.00    -0.004 C 
ATOM     20  C   UNL     1      49.276  15.401  17.206  0.00  0.00    +0.011 C 
ATOM     21  C   UNL     1      49.197  16.874  17.638  0.00  0.00    +0.023 C 
ATOM     22  C   UNL     1      48.670  16.893  19.061  0.00  0.00    -0.055 C 
ATOM     23  C   UNL     1      49.540  16.004  19.953  0.00  0.00    +0.021 C 
ENDROOT
BRANCH   3   2
ATOM      1  C   UNL     1      46.830  19.870  18.771  0.00  0.00    +0.013 C 
ATOM      2  C   UNL     1      48.254  19.328  18.631  0.00  0.00    -0.009 C 
BRANCH   2  24
ATOM     24  C   UNL     1      49.255  20.472  18.803  0.00  0.00    +0.023 C 
BRANCH  24  25
ATOM     25  C   UNL     1      50.546  19.932  19.420  0.00  0.00    +0.007 C 
BRANCH  25  26
ATOM     26  C   UNL     1      51.750  20.528  18.688  0.00  0.00    +0.076 C 
BRANCH  26  29
ATOM     29  C   UNL     1      52.536  19.408  18.003  0.00  0.00    -0.037 C 
ATOM     30  C   UNL     1      51.952  19.150  16.613  0.00  0.00    +0.031 C 
ATOM     31  C   UNL     1      52.441  18.132  18.842  0.00  0.00    +0.031 C 
ENDBRANCH  26  29
BRANCH  26  27
ATOM     27  O   UNL     1      51.295  21.460  17.704  0.00  0.00    -0.541 OA
ATOM     28  H   UNL     1      50.597  21.117  17.130  0.00  0.00    +0.382 HD
ENDBRANCH  26  27
BRANCH  26  32
ATOM     32  C   UNL     1      52.639  21.234  19.677  0.00  0.00    +0.465 C 
ATOM     33  O   UNL     1      52.509  21.031  20.860  0.00  0.00    -0.433 OA
ENDBRANCH  26  32
ENDBRANCH  25  26
ENDBRANCH  24  25
ENDBRANCH   2  24
ENDBRANCH   3   2
BRANCH  15  16
ATOM     16  O   UNL     1      45.917  11.459  14.900  0.00  0.00    -0.565 OA
ATOM     17  H   UNL     1      45.188  10.847  14.734  0.00  0.00    +0.374 HD
ENDBRANCH  15  16
TORSDOF 8
ENDMDL
MODEL 3
REMARK VINA RESULT:      -5.3      3.350      5.149
REMARK  Name = ZINC95486348
REMARK  13 active torsions:
REMARK  status: ('A' for Active; 'I' for Inactive)
REMARK    1  A    between atoms: C1_1  and  C2_2
REMARK    2  A    between atoms: C2_2  and  C3_4
REMARK    3  A    between atoms: C2_2  and  C10_13
REMARK    4  A    between atoms: C3_4  and  C4_5
REMARK    5  A    between atoms: C4_5  and  C5_6
REMARK    6  A    between atoms: C5_6  and  C6_7
REMARK    7  A    between atoms: C5_6  and  C7_9
REMARK    8  A    between atoms: C5_6  and  O2_12
REMARK    9  A    between atoms: C7_9  and  C8_10
REMARK   10  A    between atoms: C7_9  and  C9_11
REMARK   11  A    between atoms: C14_19  and  C28_37
REMARK   12  A    between atoms: C22_29  and  C27_36
REMARK   13  A    between atoms: C25_32  and  O3_35
REMARK                            x       y       z     vdW  Elec       q    Type
REMARK                         _______ _______ _______ _____ _____    ______ ____
ROOT
ATOM      3  C   UNL     1      47.846  17.365  19.660  0.00  0.00    -0.003 C 
ATOM      4  C   UNL     1      46.338  17.093  19.432  0.00  0.00    +0.006 C 
ATOM      5  C   UNL     1      46.250  15.810  18.562  0.00  0.00    +0.009 C 
ATOM      6  C   UNL     1      47.608  15.784  17.852  0.00  0.00    -0.006 C 
ATOM      7  C   UNL     1      48.055  14.428  17.333  0.00  0.00    +0.008 C 
ATOM      8  C   UNL     1      47.115  13.975  16.211  0.00  0.00    +0.058 C 
ATOM      9  C   UNL     1      47.658  12.723  15.585  0.00  0.00    -0.060 C 
ATOM     10  C   UNL     1      48.923  12.421  15.588  0.00  0.00    -0.092 C 
ATOM     11  C   UNL     1      50.008  13.266  16.256  0.00  0.00    -0.009 C 
ATOM     12  C   UNL     1      50.602  12.511  17.447  0.00  0.00    +0.024 C 
ATOM     13  C   UNL     1      51.137  13.500  15.248  0.00  0.00    +0.031 C 
ATOM     14  C   UNL     1      51.652  12.151  14.741  0.00  0.00    +0.032 C 
ATOM     15  C   UNL     1      50.532  11.418  14.001  0.00  0.00    +0.163 C 
ATOM     18  C   UNL     1      49.355  11.128  14.915  0.00  0.00    +0.026 C 
ATOM     19  C   UNL     1      49.474  14.597  16.756  0.00  0.00    -0.004 C 
ATOM     20  C   UNL     1      50.448  15.196  17.767  0.00  0.00    +0.011 C 
ATOM     21  C   UNL     1      49.915  16.508  18.365  0.00  0.00    +0.023 C 
ATOM     22  C   UNL     1      48.572  16.197  18.999  0.00  0.00    -0.055 C 
ATOM     23  C   UNL     1      48.718  15.045  19.996  0.00  0.00    +0.021 C 
ENDROOT
BRANCH   3   2
ATOM      1  C   UNL     1      47.000  19.507  18.689  0.00  0.00    +0.013 C 
ATOM      2  C   UNL     1      48.253  18.684  18.998  0.00  0.00    -0.009 C 
BRANCH   2  24
ATOM     24  C   UNL     1      49.160  19.471  19.946  0.00  0.00    +0.023 C 
BRANCH  24  25
ATOM     25  C   UNL     1      49.663  20.732  19.242  0.00  0.00    +0.007 C 
BRANCH  25  26
ATOM     26  C   UNL     1      51.115  20.527  18.804  0.00  0.00    +0.076 C 
BRANCH  26  29
ATOM     29  C   UNL     1      51.147  20.047  17.352  0.00  0.00    -0.037 C 
ATOM     30  C   UNL     1      52.220  18.967  17.196  0.00  0.00    +0.031 C 
ATOM     31  C   UNL     1      51.471  21.225  16.432  0.00  0.00    +0.031 C 
ENDBRANCH  26  29
BRANCH  26  27
ATOM     27  O   UNL     1      51.823  21.765  18.911  0.00  0.00    -0.541 OA
ATOM     28  H   UNL     1      52.055  22.160  18.060  0.00  0.00    +0.382 HD
ENDBRANCH  26  27
BRANCH  26  32
ATOM     32  C   UNL     1      51.765  19.497  19.689  0.00  0.00    +0.465 C 
ATOM     33  O   UNL     1      52.405  19.845  20.653  0.00  0.00    -0.433 OA
ENDBRANCH  26  32
ENDBRANCH  25  26
ENDBRANCH  24  25
ENDBRANCH   2  24
ENDBRANCH   3   2
BRANCH  15  16
ATOM     16  O   UNL     1      50.038  12.245  12.944  0.00  0.00    -0.565 OA
ATOM     17  H   UNL     1      49.101  12.468  13.025  0.00  0.00    +0.374 HD
ENDBRANCH  15  16
TORSDOF 8
ENDMDL
MODEL 4
REMARK VINA RESULT:      -5.3      2.948      8.521
REMARK  Name = ZINC95486348
REMARK  13 active torsions:
REMARK  status: ('A' for Active; 'I' for Inactive)
REMARK    1  A    between atoms: C1_1  and  C2_2
REMARK    2  A    between atoms: C2_2  and  C3_4
REMARK    3  A    between atoms: C2_2  and  C10_13
REMARK    4  A    between atoms: C3_4  and  C4_5
REMARK    5  A    between atoms: C4_5  and  C5_6
REMARK    6  A    between atoms: C5_6  and  C6_7
REMARK    7  A    between atoms: C5_6  and  C7_9
REMARK    8  A    between atoms: C5_6  and  O2_12
REMARK    9  A    between atoms: C7_9  and  C8_10
REMARK   10  A    between atoms: C7_9  and  C9_11
REMARK   11  A    between atoms: C14_19  and  C28_37
REMARK   12  A    between atoms: C22_29  and  C27_36
REMARK   13  A    between atoms: C25_32  and  O3_35
REMARK                            x       y       z     vdW  Elec       q    Type
REMARK                         _______ _______ _______ _____ _____    ______ ____
ROOT
ATOM      3  C   UNL     1      50.938  17.533  18.305  0.00  0.00    -0.003 C 
ATOM      4  C   UNL     1      51.768  18.597  19.065  0.00  0.00    +0.006 C 
ATOM      5  C   UNL     1      50.749  19.487  19.826  0.00  0.00    +0.009 C 
ATOM      6  C   UNL     1      49.462  19.305  19.014  0.00  0.00    -0.006 C 
ATOM      7  C   UNL     1      48.169  19.613  19.749  0.00  0.00    +0.008 C 
ATOM      8  C   UNL     1      48.112  21.108  20.081  0.00  0.00    +0.058 C 
ATOM      9  C   UNL     1      46.763  21.438  20.650  0.00  0.00    -0.060 C 
ATOM     10  C   UNL     1      45.692  20.752  20.378  0.00  0.00    -0.092 C 
ATOM     11  C   UNL     1      45.670  19.509  19.488  0.00  0.00    -0.009 C 
ATOM     12  C   UNL     1      45.332  18.272  20.324  0.00  0.00    +0.024 C 
ATOM     13  C   UNL     1      44.564  19.675  18.442  0.00  0.00    +0.031 C 
ATOM     14  C   UNL     1      43.232  19.934  19.148  0.00  0.00    +0.032 C 
ATOM     15  C   UNL     1      43.310  21.245  19.931  0.00  0.00    +0.163 C 
ATOM     18  C   UNL     1      44.379  21.188  21.008  0.00  0.00    +0.026 C 
ATOM     19  C   UNL     1      47.004  19.268  18.802  0.00  0.00    -0.004 C 
ATOM     20  C   UNL     1      47.070  17.831  18.294  0.00  0.00    +0.011 C 
ATOM     21  C   UNL     1      48.433  17.512  17.660  0.00  0.00    +0.023 C 
ATOM     22  C   UNL     1      49.490  17.781  18.715  0.00  0.00    -0.055 C 
ATOM     23  C   UNL     1      49.169  16.995  19.989  0.00  0.00    +0.021 C 
ENDROOT
BRANCH   3   2
ATOM      1  C   UNL     1      51.997  18.923  16.518  0.00  0.00    +0.013 C 
ATOM      2  C   UNL     1      51.099  17.715  16.794  0.00  0.00    -0.009 C 
BRANCH   2  24
ATOM     24  C   UNL     1      51.734  16.459  16.194  0.00  0.00    +0.023 C 
BRANCH  24  25
ATOM     25  C   UNL     1      51.686  15.324  17.217  0.00  0.00    +0.007 C 
BRANCH  25  26
ATOM     26  C   UNL     1      51.078  14.078  16.570  0.00  0.00    +0.076 C 
BRANCH  26  29
ATOM     29  C   UNL     1      49.551  14.185  16.591  0.00  0.00    -0.037 C 
ATOM     30  C   UNL     1      49.033  13.817  17.982  0.00  0.00    +0.031 C 
ATOM     31  C   UNL     1      48.958  13.228  15.556  0.00  0.00    +0.031 C 
ENDBRANCH  26  29
BRANCH  26  27
ATOM     27  O   UNL     1      51.528  13.976  15.217  0.00  0.00    -0.541 OA
ATOM     28  H   UNL     1      51.798  14.819  14.828  0.00  0.00    +0.382 HD
ENDBRANCH  26  27
BRANCH  26  32
ATOM     32  C   UNL     1      51.506  12.854  17.336  0.00  0.00    +0.465 C 
ATOM     33  O   UNL     1      52.345  12.117  16.877  0.00  0.00    -0.433 OA
ENDBRANCH  26  32
ENDBRANCH  25  26
ENDBRANCH  24  25
ENDBRANCH   2  24
ENDBRANCH   3   2
BRANCH  15  16
ATOM     16  O   UNL     1      43.674  22.308  19.047  0.00  0.00    -0.565 OA
ATOM     17  H   UNL     1      44.130  23.042  19.480  0.00  0.00    +0.374 HD
ENDBRANCH  15  16
TORSDOF 8
ENDMDL
MODEL 5
REMARK VINA RESULT:      -5.3      1.832      8.272
REMARK  Name = ZINC95486348
REMARK  13 active torsions:
REMARK  status: ('A' for Active; 'I' for Inactive)
REMARK    1  A    between atoms: C1_1  and  C2_2
REMARK    2  A    between atoms: C2_2  and  C3_4
REMARK    3  A    between atoms: C2_2  and  C10_13
REMARK    4  A    between atoms: C3_4  and  C4_5
REMARK    5  A    between atoms: C4_5  and  C5_6
REMARK    6  A    between atoms: C5_6  and  C6_7
REMARK    7  A    between atoms: C5_6  and  C7_9
REMARK    8  A    between atoms: C5_6  and  O2_12
REMARK    9  A    between atoms: C7_9  and  C8_10
REMARK   10  A    between atoms: C7_9  and  C9_11
REMARK   11  A    between atoms: C14_19  and  C28_37
REMARK   12  A    between atoms: C22_29  and  C27_36
REMARK   13  A    between atoms: C25_32  and  O3_35
REMARK                            x       y       z     vdW  Elec       q    Type
REMARK                         _______ _______ _______ _____ _____    ______ ____
ROOT
ATOM      3  C   UNL     1      49.390  16.197  18.841  0.00  0.00    -0.003 C 
ATOM      4  C   UNL     1      50.620  16.924  19.440  0.00  0.00    +0.006 C 
ATOM      5  C   UNL     1      50.082  18.222  20.101  0.00  0.00    +0.009 C 
ATOM      6  C   UNL     1      48.772  18.475  19.346  0.00  0.00    -0.006 C 
ATOM      7  C   UNL     1      47.755  19.347  20.061  0.00  0.00    +0.008 C 
ATOM      8  C   UNL     1      48.308  20.770  20.198  0.00  0.00    +0.058 C 
ATOM      9  C   UNL     1      47.236  21.666  20.747  0.00  0.00    -0.060 C 
ATOM     10  C   UNL     1      45.967  21.433  20.587  0.00  0.00    -0.092 C 
ATOM     11  C   UNL     1      45.401  20.209  19.866  0.00  0.00    -0.009 C 
ATOM     12  C   UNL     1      44.668  19.306  20.861  0.00  0.00    +0.024 C 
ATOM     13  C   UNL     1      44.377  20.681  18.830  0.00  0.00    +0.031 C 
ATOM     14  C   UNL     1      43.303  21.521  19.523  0.00  0.00    +0.032 C 
ATOM     15  C   UNL     1      43.939  22.772  20.129  0.00  0.00    +0.163 C 
ATOM     18  C   UNL     1      44.974  22.417  21.182  0.00  0.00    +0.026 C 
ATOM     19  C   UNL     1      46.485  19.387  19.190  0.00  0.00    -0.004 C 
ATOM     20  C   UNL     1      45.951  17.993  18.870  0.00  0.00    +0.011 C 
ATOM     21  C   UNL     1      47.036  17.094  18.255  0.00  0.00    +0.023 C 
ATOM     22  C   UNL     1      48.185  17.040  19.245  0.00  0.00    -0.055 C 
ATOM     23  C   UNL     1      47.673  16.590  20.616  0.00  0.00    +0.021 C 
ENDROOT
BRANCH   3   2
ATOM      1  C   UNL     1      50.801  16.813  16.872  0.00  0.00    +0.013 C 
ATOM      2  C   UNL     1      49.504  16.132  17.316  0.00  0.00    -0.009 C 
BRANCH   2  24
ATOM     24  C   UNL     1      49.515  14.670  16.868  0.00  0.00    +0.023 C 
BRANCH  24  25
ATOM     25  C   UNL     1      48.331  13.934  17.496  0.00  0.00    +0.007 C 
BRANCH  25  26
ATOM     26  C   UNL     1      47.359  13.498  16.398  0.00  0.00    +0.076 C 
BRANCH  26  29
ATOM     29  C   UNL     1      46.165  12.779  17.029  0.00  0.00    -0.037 C 
ATOM     30  C   UNL     1      45.838  13.421  18.379  0.00  0.00    +0.031 C 
ATOM     31  C   UNL     1      46.510  11.303  17.236  0.00  0.00    +0.031 C 
ENDBRANCH  26  29
BRANCH  26  27
ATOM     27  O   UNL     1      46.899  14.649  15.686  0.00  0.00    -0.541 OA
ATOM     28  H   UNL     1      45.967  14.857  15.835  0.00  0.00    +0.382 HD
ENDBRANCH  26  27
BRANCH  26  32
ATOM     32  C   UNL     1      48.062  12.566  15.447  0.00  0.00    +0.465 C 
ATOM     33  O   UNL     1      48.059  12.796  14.261  0.00  0.00    -0.433 OA
ENDBRANCH  26  32
ENDBRANCH  25  26
ENDBRANCH  24  25
ENDBRANCH   2  24
ENDBRANCH   3   2
BRANCH  15  16
ATOM     16  O   UNL     1      44.625  23.501  19.108  0.00  0.00    -0.565 OA
ATOM     17  H   UNL     1      45.544  23.708  19.322  0.00  0.00    +0.374 HD
ENDBRANCH  15  16
TORSDOF 8
ENDMDL
MODEL 6
REMARK VINA RESULT:      -5.2      4.033      8.132
REMARK  Name = ZINC95486348
REMARK  13 active torsions:
REMARK  status: ('A' for Active; 'I' for Inactive)
REMARK    1  A    between atoms: C1_1  and  C2_2
REMARK    2  A    between atoms: C2_2  and  C3_4
REMARK    3  A    between atoms: C2_2  and  C10_13
REMARK    4  A    between atoms: C3_4  and  C4_5
REMARK    5  A    between atoms: C4_5  and  C5_6
REMARK    6  A    between atoms: C5_6  and  C6_7
REMARK    7  A    between atoms: C5_6  and  C7_9
REMARK    8  A    between atoms: C5_6  and  O2_12
REMARK    9  A    between atoms: C7_9  and  C8_10
REMARK   10  A    between atoms: C7_9  and  C9_11
REMARK   11  A    between atoms: C14_19  and  C28_37
REMARK   12  A    between atoms: C22_29  and  C27_36
REMARK   13  A    between atoms: C25_32  and  O3_35
REMARK                            x       y       z     vdW  Elec       q    Type
REMARK                         _______ _______ _______ _____ _____    ______ ____
ROOT
ATOM      3  C   UNL     1      51.118  18.957  18.618  0.00  0.00    -0.003 C 
ATOM      4  C   UNL     1      51.106  20.421  18.114  0.00  0.00    +0.006 C 
ATOM      5  C   UNL     1      49.759  21.035  18.585  0.00  0.00    +0.009 C 
ATOM      6  C   UNL     1      48.862  19.805  18.757  0.00  0.00    -0.006 C 
ATOM      7  C   UNL     1      47.666  19.983  19.676  0.00  0.00    +0.008 C 
ATOM      8  C   UNL     1      46.690  20.988  19.055  0.00  0.00    +0.058 C 
ATOM      9  C   UNL     1      45.435  21.030  19.877  0.00  0.00    -0.060 C 
ATOM     10  C   UNL     1      45.026  20.029  20.599  0.00  0.00    -0.092 C 
ATOM     11  C   UNL     1      45.780  18.706  20.740  0.00  0.00    -0.009 C 
ATOM     12  C   UNL     1      46.295  18.546  22.172  0.00  0.00    +0.024 C 
ATOM     13  C   UNL     1      44.805  17.556  20.469  0.00  0.00    +0.031 C 
ATOM     14  C   UNL     1      43.609  17.671  21.416  0.00  0.00    +0.032 C 
ATOM     15  C   UNL     1      42.856  18.973  21.139  0.00  0.00    +0.163 C 
ATOM     18  C   UNL     1      43.734  20.187  21.384  0.00  0.00    +0.026 C 
ATOM     19  C   UNL     1      46.966  18.616  19.795  0.00  0.00    -0.004 C 
ATOM     20  C   UNL     1      47.913  17.513  20.260  0.00  0.00    +0.011 C 
ATOM     21  C   UNL     1      49.171  17.433  19.382  0.00  0.00    +0.023 C 
ATOM     22  C   UNL     1      49.836  18.797  19.429  0.00  0.00    -0.055 C 
ATOM     23  C   UNL     1      50.086  19.207  20.883  0.00  0.00    +0.021 C 
ENDROOT
BRANCH   3   2
ATOM      1  C   UNL     1      51.489  18.745  16.156  0.00  0.00    +0.013 C 
ATOM      2  C   UNL     1      51.118  17.988  17.433  0.00  0.00    -0.009 C 
BRANCH   2  24
ATOM     24  C   UNL     1      52.140  16.877  17.682  0.00  0.00    +0.023 C 
BRANCH  24  25
ATOM     25  C   UNL     1      52.980  17.224  18.913  0.00  0.00    +0.007 C 
BRANCH  25  26
ATOM     26  C   UNL     1      53.405  15.935  19.620  0.00  0.00    +0.076 C 
BRANCH  26  29
ATOM     29  C   UNL     1      52.983  15.996  21.089  0.00  0.00    -0.037 C 
ATOM     30  C   UNL     1      51.527  15.544  21.221  0.00  0.00    +0.031 C 
ATOM     31  C   UNL     1      53.119  17.432  21.600  0.00  0.00    +0.031 C 
ENDBRANCH  26  29
BRANCH  26  27
ATOM     27  O   UNL     1      52.776  14.817  18.990  0.00  0.00    -0.541 OA
ATOM     28  H   UNL     1      53.390  14.223  18.538  0.00  0.00    +0.382 HD
ENDBRANCH  26  27
BRANCH  26  32
ATOM     32  C   UNL     1      54.901  15.785  19.533  0.00  0.00    +0.465 C 
ATOM     33  O   UNL     1      55.402  14.687  19.580  0.00  0.00    -0.433 OA
ENDBRANCH  26  32
ENDBRANCH  25  26
ENDBRANCH  24  25
ENDBRANCH   2  24
ENDBRANCH   3   2
BRANCH  15  16
ATOM     16  O   UNL     1      42.469  19.016  19.763  0.00  0.00    -0.565 OA
ATOM     17  H   UNL     1      43.200  18.891  19.144  0.00  0.00    +0.374 HD
ENDBRANCH  15  16
TORSDOF 8
ENDMDL
MODEL 7
REMARK VINA RESULT:      -5.0      1.938      4.242
REMARK  Name = ZINC95486348
REMARK  13 active torsions:
REMARK  status: ('A' for Active; 'I' for Inactive)
REMARK    1  A    between atoms: C1_1  and  C2_2
REMARK    2  A    between atoms: C2_2  and  C3_4
REMARK    3  A    between atoms: C2_2  and  C10_13
REMARK    4  A    between atoms: C3_4  and  C4_5
REMARK    5  A    between atoms: C4_5  and  C5_6
REMARK    6  A    between atoms: C5_6  and  C6_7
REMARK    7  A    between atoms: C5_6  and  C7_9
REMARK    8  A    between atoms: C5_6  and  O2_12
REMARK    9  A    between atoms: C7_9  and  C8_10
REMARK   10  A    between atoms: C7_9  and  C9_11
REMARK   11  A    between atoms: C14_19  and  C28_37
REMARK   12  A    between atoms: C22_29  and  C27_36
REMARK   13  A    between atoms: C25_32  and  O3_35
REMARK                            x       y       z     vdW  Elec       q    Type
REMARK                         _______ _______ _______ _____ _____    ______ ____
ROOT
ATOM      3  C   UNL     1      46.434  18.033  19.146  0.00  0.00    -0.003 C 
ATOM      4  C   UNL     1      47.646  18.979  18.958  0.00  0.00    +0.006 C 
ATOM      5  C   UNL     1      48.699  18.183  18.139  0.00  0.00    +0.009 C 
ATOM      6  C   UNL     1      48.333  16.725  18.435  0.00  0.00    -0.006 C 
ATOM      7  C   UNL     1      48.816  15.704  17.419  0.00  0.00    +0.008 C 
ATOM      8  C   UNL     1      50.347  15.645  17.442  0.00  0.00    +0.058 C 
ATOM      9  C   UNL     1      50.812  14.518  16.567  0.00  0.00    -0.060 C 
ATOM     10  C   UNL     1      50.086  13.468  16.318  0.00  0.00    -0.092 C 
ATOM     11  C   UNL     1      48.665  13.262  16.841  0.00  0.00    -0.009 C 
ATOM     12  C   UNL     1      47.669  13.289  15.679  0.00  0.00    +0.024 C 
ATOM     13  C   UNL     1      48.578  11.877  17.491  0.00  0.00    +0.031 C 
ATOM     14  C   UNL     1      49.007  10.814  16.478  0.00  0.00    +0.032 C 
ATOM     15  C   UNL     1      50.468  11.036  16.086  0.00  0.00    +0.163 C 
ATOM     18  C   UNL     1      50.668  12.387  15.422  0.00  0.00    +0.026 C 
ATOM     19  C   UNL     1      48.258  14.331  17.841  0.00  0.00    -0.004 C 
ATOM     20  C   UNL     1      46.740  14.340  17.996  0.00  0.00    +0.011 C 
ATOM     21  C   UNL     1      46.270  15.460  18.939  0.00  0.00    +0.023 C 
ATOM     22  C   UNL     1      46.781  16.769  18.366  0.00  0.00    -0.055 C 
ATOM     23  C   UNL     1      46.329  16.916  16.911  0.00  0.00    +0.021 C 
ENDROOT
BRANCH   3   2
ATOM      1  C   UNL     1      47.256  18.495  21.461  0.00  0.00    +0.013 C 
ATOM      2  C   UNL     1      46.243  17.705  20.629  0.00  0.00    -0.009 C 
BRANCH   2  24
ATOM     24  C   UNL     1      44.824  18.085  21.057  0.00  0.00    +0.023 C 
BRANCH  24  25
ATOM     25  C   UNL     1      43.987  18.407  19.819  0.00  0.00    +0.007 C 
BRANCH  25  26
ATOM     26  C   UNL     1      43.130  19.645  20.090  0.00  0.00    +0.076 C 
BRANCH  26  29
ATOM     29  C   UNL     1      41.658  19.312  19.841  0.00  0.00    -0.037 C 
ATOM     30  C   UNL     1      40.952  20.532  19.245  0.00  0.00    +0.031 C 
ATOM     31  C   UNL     1      40.990  18.932  21.163  0.00  0.00    +0.031 C 
ENDBRANCH  26  29
BRANCH  26  27
ATOM     27  O   UNL     1      43.302  20.055  21.449  0.00  0.00    -0.541 OA
ATOM     28  H   UNL     1      44.125  20.533  21.615  0.00  0.00    +0.382 HD
ENDBRANCH  26  27
BRANCH  26  32
ATOM     32  C   UNL     1      43.556  20.760  19.172  0.00  0.00    +0.465 C 
ATOM     33  O   UNL     1      44.693  21.165  19.199  0.00  0.00    -0.433 OA
ENDBRANCH  26  32
ENDBRANCH  25  26
ENDBRANCH  24  25
ENDBRANCH   2  24
ENDBRANCH   3   2
BRANCH  15  16
ATOM     16  O   UNL     1      51.283  11.030  17.260  0.00  0.00    -0.565 OA
ATOM     17  H   UNL     1      50.832  11.345  18.054  0.00  0.00    +0.374 HD
ENDBRANCH  15  16
TORSDOF 8
ENDMDL
MODEL 8
REMARK VINA RESULT:      -4.9      1.822      8.385
REMARK  Name = ZINC95486348
REMARK  13 active torsions:
REMARK  status: ('A' for Active; 'I' for Inactive)
REMARK    1  A    between atoms: C1_1  and  C2_2
REMARK    2  A    between atoms: C2_2  and  C3_4
REMARK    3  A    between atoms: C2_2  and  C10_13
REMARK    4  A    between atoms: C3_4  and  C4_5
REMARK    5  A    between atoms: C4_5  and  C5_6
REMARK    6  A    between atoms: C5_6  and  C6_7
REMARK    7  A    between atoms: C5_6  and  C7_9
REMARK    8  A    between atoms: C5_6  and  O2_12
REMARK    9  A    between atoms: C7_9  and  C8_10
REMARK   10  A    between atoms: C7_9  and  C9_11
REMARK   11  A    between atoms: C14_19  and  C28_37
REMARK   12  A    between atoms: C22_29  and  C27_36
REMARK   13  A    between atoms: C25_32  and  O3_35
REMARK                            x       y       z     vdW  Elec       q    Type
REMARK                         _______ _______ _______ _____ _____    ______ ____
ROOT
ATOM      3  C   UNL     1      47.867  14.741  18.488  0.00  0.00    -0.003 C 
ATOM      4  C   UNL     1      48.416  14.332  19.878  0.00  0.00    +0.006 C 
ATOM      5  C   UNL     1      47.944  15.425  20.874  0.00  0.00    +0.009 C 
ATOM      6  C   UNL     1      47.719  16.641  19.969  0.00  0.00    -0.006 C 
ATOM      7  C   UNL     1      46.787  17.708  20.516  0.00  0.00    +0.008 C 
ATOM      8  C   UNL     1      47.423  18.359  21.749  0.00  0.00    +0.058 C 
ATOM      9  C   UNL     1      46.582  19.525  22.181  0.00  0.00    -0.060 C 
ATOM     10  C   UNL     1      45.824  20.193  21.364  0.00  0.00    -0.092 C 
ATOM     11  C   UNL     1      45.654  19.861  19.881  0.00  0.00    -0.009 C 
ATOM     12  C   UNL     1      44.226  19.381  19.612  0.00  0.00    +0.024 C 
ATOM     13  C   UNL     1      45.873  21.138  19.064  0.00  0.00    +0.031 C 
ATOM     14  C   UNL     1      44.911  22.224  19.551  0.00  0.00    +0.032 C 
ATOM     15  C   UNL     1      45.217  22.565  21.010  0.00  0.00    +0.163 C 
ATOM     18  C   UNL     1      45.023  21.362  21.917  0.00  0.00    +0.026 C 
ATOM     19  C   UNL     1      46.614  18.777  19.420  0.00  0.00    -0.004 C 
ATOM     20  C   UNL     1      46.130  18.188  18.099  0.00  0.00    +0.011 C 
ATOM     21  C   UNL     1      47.026  17.030  17.628  0.00  0.00    +0.023 C 
ATOM     22  C   UNL     1      47.031  15.992  18.735  0.00  0.00    -0.055 C 
ATOM     23  C   UNL     1      45.595  15.596  19.089  0.00  0.00    +0.021 C 
ENDROOT
BRANCH   3   2
ATOM      1  C   UNL     1      50.351  14.937  18.284  0.00  0.00    +0.013 C 
ATOM      2  C   UNL     1      49.022  15.055  17.534  0.00  0.00    -0.009 C 
BRANCH   2  24
ATOM     24  C   UNL     1      49.004  14.064  16.368  0.00  0.00    +0.023 C 
BRANCH  24  25
ATOM     25  C   UNL     1      47.559  13.676  16.050  0.00  0.00    +0.007 C 
BRANCH  25  26
ATOM     26  C   UNL     1      47.509  12.212  15.610  0.00  0.00    +0.076 C 
BRANCH  26  29
ATOM     29  C   UNL     1      46.622  11.420  16.573  0.00  0.00    -0.037 C 
ATOM     30  C   UNL     1      45.547  12.342  17.153  0.00  0.00    +0.031 C 
ATOM     31  C   UNL     1      47.478  10.856  17.709  0.00  0.00    +0.031 C 
ENDBRANCH  26  29
BRANCH  26  27
ATOM     27  O   UNL     1      46.968  12.130  14.290  0.00  0.00    -0.541 OA
ATOM     28  H   UNL     1      47.623  11.929  13.608  0.00  0.00    +0.382 HD
ENDBRANCH  26  27
BRANCH  26  32
ATOM     32  C   UNL     1      48.900  11.636  15.621  0.00  0.00    +0.465 C 
ATOM     33  O   UNL     1      49.305  11.016  14.667  0.00  0.00    -0.433 OA
ENDBRANCH  26  32
ENDBRANCH  25  26
ENDBRANCH  24  25
ENDBRANCH   2  24
ENDBRANCH   3   2
BRANCH  15  16
ATOM     16  O   UNL     1      46.586  22.956  21.132  0.00  0.00    -0.565 OA
ATOM     17  H   UNL     1      46.877  23.586  20.460  0.00  0.00    +0.374 HD
ENDBRANCH  15  16
TORSDOF 8
ENDMDL
MODEL 9
REMARK VINA RESULT:      -4.9      2.964      8.188
REMARK  Name = ZINC95486348
REMARK  13 active torsions:
REMARK  status: ('A' for Active; 'I' for Inactive)
REMARK    1  A    between atoms: C1_1  and  C2_2
REMARK    2  A    between atoms: C2_2  and  C3_4
REMARK    3  A    between atoms: C2_2  and  C10_13
REMARK    4  A    between atoms: C3_4  and  C4_5
REMARK    5  A    between atoms: C4_5  and  C5_6
REMARK    6  A    between atoms: C5_6  and  C6_7
REMARK    7  A    between atoms: C5_6  and  C7_9
REMARK    8  A    between atoms: C5_6  and  O2_12
REMARK    9  A    between atoms: C7_9  and  C8_10
REMARK   10  A    between atoms: C7_9  and  C9_11
REMARK   11  A    between atoms: C14_19  and  C28_37
REMARK   12  A    between atoms: C22_29  and  C27_36
REMARK   13  A    between atoms: C25_32  and  O3_35
REMARK                            x       y       z     vdW  Elec       q    Type
REMARK                         _______ _______ _______ _____ _____    ______ ____
ROOT
ATOM      3  C   UNL     1      51.203  18.835  18.452  0.00  0.00    -0.003 C 
ATOM      4  C   UNL     1      51.314  20.345  18.127  0.00  0.00    +0.006 C 
ATOM      5  C   UNL     1      50.016  21.006  18.668  0.00  0.00    +0.009 C 
ATOM      6  C   UNL     1      49.022  19.840  18.692  0.00  0.00    -0.006 C 
ATOM      7  C   UNL     1      47.835  20.004  19.626  0.00  0.00    +0.008 C 
ATOM      8  C   UNL     1      46.949  21.151  19.131  0.00  0.00    +0.058 C 
ATOM      9  C   UNL     1      45.694  21.197  19.952  0.00  0.00    -0.060 C 
ATOM     10  C   UNL     1      45.199  20.153  20.549  0.00  0.00    -0.092 C 
ATOM     11  C   UNL     1      45.842  18.766  20.530  0.00  0.00    -0.009 C 
ATOM     12  C   UNL     1      46.330  18.395  21.932  0.00  0.00    +0.024 C 
ATOM     13  C   UNL     1      44.781  17.739  20.124  0.00  0.00    +0.031 C 
ATOM     14  C   UNL     1      43.588  17.837  21.078  0.00  0.00    +0.032 C 
ATOM     15  C   UNL     1      42.946  19.219  20.958  0.00  0.00    +0.163 C 
ATOM     18  C   UNL     1      43.916  20.321  21.347  0.00  0.00    +0.026 C 
ATOM     19  C   UNL     1      47.026  18.693  19.581  0.00  0.00    -0.004 C 
ATOM     20  C   UNL     1      47.877  17.470  19.910  0.00  0.00    +0.011 C 
ATOM     21  C   UNL     1      49.133  17.394  19.028  0.00  0.00    +0.023 C 
ATOM     22  C   UNL     1      49.904  18.684  19.238  0.00  0.00    -0.055 C 
ATOM     23  C   UNL     1      50.173  18.895  20.730  0.00  0.00    +0.021 C 
ENDROOT
BRANCH   3   2
ATOM      1  C   UNL     1      51.791  18.807  16.023  0.00  0.00    +0.013 C 
ATOM      2  C   UNL     1      51.137  18.018  17.159  0.00  0.00    -0.009 C 
BRANCH   2  24
ATOM     24  C   UNL     1      51.878  16.694  17.354  0.00  0.00    +0.023 C 
BRANCH  24  25
ATOM     25  C   UNL     1      51.631  15.788  16.147  0.00  0.00    +0.007 C 
BRANCH  25  26
ATOM     26  C   UNL     1      50.798  14.579  16.578  0.00  0.00    +0.076 C 
BRANCH  26  29
ATOM     29  C   UNL     1      51.156  14.199  18.016  0.00  0.00    -0.037 C 
ATOM     30  C   UNL     1      52.115  13.007  18.005  0.00  0.00    +0.031 C 
ATOM     31  C   UNL     1      49.883  13.823  18.777  0.00  0.00    +0.031 C 
ENDBRANCH  26  29
BRANCH  26  27
ATOM     27  O   UNL     1      49.409  14.908  16.505  0.00  0.00    -0.541 OA
ATOM     28  H   UNL     1      49.084  15.048  15.606  0.00  0.00    +0.382 HD
ENDBRANCH  26  27
BRANCH  26  32
ATOM     32  C   UNL     1      51.088  13.418  15.664  0.00  0.00    +0.465 C 
ATOM     33  O   UNL     1      50.215  12.968  14.963  0.00  0.00    -0.433 OA
ENDBRANCH  26  32
ENDBRANCH  25  26
ENDBRANCH  24  25
ENDBRANCH   2  24
ENDBRANCH   3   2
BRANCH  15  16
ATOM     16  O   UNL     1      42.576  19.458  19.598  0.00  0.00    -0.565 OA
ATOM     17  H   UNL     1      41.624  19.553  19.460  0.00  0.00    +0.374 HD
ENDBRANCH  15  16
TORSDOF 8
ENDMDL
