MODEL 1
REMARK VINA RESULT:      -7.3      0.000      0.000
REMARK  Name = ZINC95486198
REMARK  5 active torsions:
REMARK  status: ('A' for Active; 'I' for Inactive)
REMARK    1  A    between atoms: C1_1  and  O1_2
REMARK    2  A    between atoms: O1_2  and  C2_3
REMARK    3  A    between atoms: C7_8  and  O2_9
REMARK    4  A    between atoms: O2_9  and  C8_10
REMARK    5  A    between atoms: C28_34  and  O6_35
REMARK                            x       y       z     vdW  Elec       q    Type
REMARK                         _______ _______ _______ _____ _____    ______ ____
ROOT
ATOM      3  C   UNL     1      52.963  16.800  18.952  0.00  0.00    +0.152 A 
ATOM      4  C   UNL     1      53.206  18.163  18.967  0.00  0.00    -0.092 A 
ATOM      5  C   UNL     1      52.149  19.060  18.997  0.00  0.00    +0.000 A 
ATOM      6  C   UNL     1      50.856  18.588  18.975  0.00  0.00    -0.166 A 
ATOM      7  C   UNL     1      50.596  17.227  18.834  0.00  0.00    +0.138 A 
ATOM      8  O   UNL     1      49.352  16.817  18.518  0.00  0.00    -0.125 OA
ATOM      9  O   UNL     1      48.928  15.447  18.679  0.00  0.00    -0.102 OA
ATOM     10  C   UNL     1      49.008  14.563  17.667  0.00  0.00    +0.080 A 
ATOM     11  C   UNL     1      50.111  14.556  16.823  0.00  0.00    +0.007 A 
ATOM     12  C   UNL     1      50.274  13.575  15.872  0.00  0.00    +0.030 A 
ATOM     13  C   UNL     1      49.306  12.599  15.732  0.00  0.00    +0.007 A 
ATOM     14  C   UNL     1      48.151  12.655  16.494  0.00  0.00    -0.054 A 
ATOM     15  C   UNL     1      47.123  11.562  16.325  0.00  0.00    +0.094 C 
ATOM     16  C   UNL     1      46.119  11.646  17.479  0.00  0.00    +0.147 C 
ATOM     17  N   UNL     1      45.585  13.040  17.458  0.00  0.00    -0.601 NA
ATOM     18  H   UNL     1      44.863  13.007  18.243  0.00  0.00    +0.322 HD
ATOM     19  C   UNL     1      46.630  13.917  18.045  0.00  0.00    +0.191 C 
ATOM     20  C   UNL     1      46.647  13.751  19.555  0.00  0.00    +0.073 C 
ATOM     21  C   UNL     1      46.105  15.012  20.190  0.00  0.00    -0.067 A 
ATOM     22  C   UNL     1      45.192  15.796  19.509  0.00  0.00    +0.028 A 
ATOM     23  C   UNL     1      44.745  16.984  20.055  0.00  0.00    +0.020 A 
ATOM     24  C   UNL     1      45.201  17.380  21.302  0.00  0.00    +0.072 A 
ATOM     25  O   UNL     1      44.856  18.608  21.791  0.00  0.00    -0.247 OA
ATOM     26  C   UNL     1      45.787  19.579  21.530  0.00  0.00    +0.087 A 
ATOM     27  C   UNL     1      47.067  19.183  21.177  0.00  0.00    -0.037 A 
ATOM     28  C   UNL     1      48.046  20.131  20.934  0.00  0.00    -0.048 A 
ATOM     29  C   UNL     1      49.441  19.670  20.641  0.00  0.00    +0.077 C 
ATOM     30  C   UNL     1      47.738  21.476  21.000  0.00  0.00    +0.021 A 
ATOM     31  C   UNL     1      46.455  21.876  21.338  0.00  0.00    +0.023 A 
ATOM     32  C   UNL     1      45.476  20.927  21.610  0.00  0.00    +0.085 A 
ATOM     35  C   UNL     1      46.053  16.555  22.019  0.00  0.00    +0.004 A 
ATOM     36  C   UNL     1      46.510  15.376  21.462  0.00  0.00    +0.024 A 
ATOM     37  C   UNL     1      47.959  13.673  17.405  0.00  0.00    -0.076 A 
ATOM     38  C   UNL     1      49.704  19.534  19.144  0.00  0.00    +0.209 C 
ATOM     39  N   UNL     1      50.026  20.880  18.581  0.00  0.00    -0.584 NA
ATOM     40  H   UNL     1      50.461  20.615  17.635  0.00  0.00    +0.322 HD
ATOM     41  C   UNL     1      51.221  21.391  19.304  0.00  0.00    +0.173 C 
ATOM     42  C   UNL     1      52.439  20.533  19.024  0.00  0.00    +0.064 C 
ATOM     43  C   UNL     1      51.657  16.325  18.912  0.00  0.00    -0.007 A 
ENDROOT
BRANCH   3   2
ATOM      1  C   UNL     1      54.884  15.996  20.097  0.00  0.00    +0.244 C 
ATOM      2  O   UNL     1      54.000  15.925  18.977  0.00  0.00    -0.299 OA
ENDBRANCH   3   2
BRANCH  32  33
ATOM     33  O   UNL     1      44.223  21.324  21.952  0.00  0.00    -0.487 OA
ATOM     34  H   UNL     1      43.626  21.435  21.200  0.00  0.00    +0.387 HD
ENDBRANCH  32  33
BRANCH  43  44
ATOM     44  O   UNL     1      51.449  14.984  19.022  0.00  0.00    -0.304 OA
ATOM     45  C   UNL     1      51.515  14.423  20.335  0.00  0.00    +0.216 C 
ENDBRANCH  43  44
TORSDOF 3
ENDMDL
MODEL 2
REMARK VINA RESULT:      -6.6      1.797      2.020
REMARK  Name = ZINC95486198
REMARK  5 active torsions:
REMARK  status: ('A' for Active; 'I' for Inactive)
REMARK    1  A    between atoms: C1_1  and  O1_2
REMARK    2  A    between atoms: O1_2  and  C2_3
REMARK    3  A    between atoms: C7_8  and  O2_9
REMARK    4  A    between atoms: O2_9  and  C8_10
REMARK    5  A    between atoms: C28_34  and  O6_35
REMARK                            x       y       z     vdW  Elec       q    Type
REMARK                         _______ _______ _______ _____ _____    ______ ____
ROOT
ATOM      3  C   UNL     1      52.619  16.796  21.752  0.00  0.00    +0.152 A 
ATOM      4  C   UNL     1      52.965  18.068  22.175  0.00  0.00    -0.092 A 
ATOM      5  C   UNL     1      52.159  19.151  21.861  0.00  0.00    +0.000 A 
ATOM      6  C   UNL     1      51.031  18.960  21.095  0.00  0.00    -0.166 A 
ATOM      7  C   UNL     1      50.737  17.708  20.558  0.00  0.00    +0.138 A 
ATOM      8  O   UNL     1      49.812  17.603  19.584  0.00  0.00    -0.125 OA
ATOM      9  O   UNL     1      49.220  16.339  19.217  0.00  0.00    -0.102 OA
ATOM     10  C   UNL     1      49.726  15.589  18.220  0.00  0.00    +0.080 A 
ATOM     11  C   UNL     1      51.101  15.461  18.063  0.00  0.00    +0.007 A 
ATOM     12  C   UNL     1      51.634  14.592  17.138  0.00  0.00    +0.030 A 
ATOM     13  C   UNL     1      50.786  13.858  16.330  0.00  0.00    +0.007 A 
ATOM     14  C   UNL     1      49.417  14.055  16.403  0.00  0.00    -0.054 A 
ATOM     15  C   UNL     1      48.521  13.225  15.516  0.00  0.00    +0.094 C 
ATOM     16  C   UNL     1      47.075  13.369  15.999  0.00  0.00    +0.147 C 
ATOM     17  N   UNL     1      46.790  14.834  16.009  0.00  0.00    -0.601 NA
ATOM     18  H   UNL     1      45.764  14.853  16.300  0.00  0.00    +0.322 HD
ATOM     19  C   UNL     1      47.455  15.401  17.211  0.00  0.00    +0.191 C 
ATOM     20  C   UNL     1      46.651  15.051  18.452  0.00  0.00    +0.073 C 
ATOM     21  C   UNL     1      45.998  16.308  18.980  0.00  0.00    -0.067 A 
ATOM     22  C   UNL     1      45.677  17.340  18.116  0.00  0.00    +0.028 A 
ATOM     23  C   UNL     1      45.142  18.517  18.603  0.00  0.00    +0.020 A 
ATOM     24  C   UNL     1      44.909  18.655  19.961  0.00  0.00    +0.072 A 
ATOM     25  O   UNL     1      44.495  19.858  20.459  0.00  0.00    -0.247 OA
ATOM     26  C   UNL     1      45.523  20.643  20.911  0.00  0.00    +0.087 A 
ATOM     27  C   UNL     1      46.743  20.040  21.172  0.00  0.00    -0.037 A 
ATOM     28  C   UNL     1      47.800  20.791  21.659  0.00  0.00    -0.048 A 
ATOM     29  C   UNL     1      49.077  20.095  22.014  0.00  0.00    +0.077 C 
ATOM     30  C   UNL     1      47.653  22.152  21.845  0.00  0.00    +0.021 A 
ATOM     31  C   UNL     1      46.439  22.761  21.571  0.00  0.00    +0.023 A 
ATOM     32  C   UNL     1      45.367  22.006  21.108  0.00  0.00    +0.085 A 
ATOM     35  C   UNL     1      45.156  17.592  20.815  0.00  0.00    +0.004 A 
ATOM     36  C   UNL     1      45.705  16.422  20.327  0.00  0.00    +0.024 A 
ATOM     37  C   UNL     1      48.885  14.970  17.287  0.00  0.00    -0.076 A 
ATOM     38  C   UNL     1      50.076  20.093  20.860  0.00  0.00    +0.209 C 
ATOM     39  N   UNL     1      50.793  21.403  20.833  0.00  0.00    -0.584 NA
ATOM     40  H   UNL     1      51.630  21.173  20.202  0.00  0.00    +0.322 HD
ATOM     41  C   UNL     1      51.472  21.567  22.147  0.00  0.00    +0.173 C 
ATOM     42  C   UNL     1      52.550  20.519  22.340  0.00  0.00    +0.064 C 
ATOM     43  C   UNL     1      51.489  16.605  20.965  0.00  0.00    -0.007 A 
ENDROOT
BRANCH   3   2
ATOM      1  C   UNL     1      54.731  15.713  21.637  0.00  0.00    +0.244 C 
ATOM      2  O   UNL     1      53.382  15.730  22.107  0.00  0.00    -0.299 OA
ENDBRANCH   3   2
BRANCH  32  33
ATOM     33  O   UNL     1      44.175  22.605  20.852  0.00  0.00    -0.487 OA
ATOM     34  H   UNL     1      44.008  22.763  19.912  0.00  0.00    +0.387 HD
ENDBRANCH  32  33
BRANCH  43  44
ATOM     44  O   UNL     1      51.108  15.332  20.669  0.00  0.00    -0.304 OA
ATOM     45  C   UNL     1      50.460  14.592  21.705  0.00  0.00    +0.216 C 
ENDBRANCH  43  44
TORSDOF 3
ENDMDL
MODEL 3
REMARK VINA RESULT:      -6.5      1.360      2.023
REMARK  Name = ZINC95486198
REMARK  5 active torsions:
REMARK  status: ('A' for Active; 'I' for Inactive)
REMARK    1  A    between atoms: C1_1  and  O1_2
REMARK    2  A    between atoms: O1_2  and  C2_3
REMARK    3  A    between atoms: C7_8  and  O2_9
REMARK    4  A    between atoms: O2_9  and  C8_10
REMARK    5  A    between atoms: C28_34  and  O6_35
REMARK                            x       y       z     vdW  Elec       q    Type
REMARK                         _______ _______ _______ _____ _____    ______ ____
ROOT
ATOM      3  C   UNL     1      53.103  16.592  18.908  0.00  0.00    +0.152 A 
ATOM      4  C   UNL     1      52.971  17.938  19.200  0.00  0.00    -0.092 A 
ATOM      5  C   UNL     1      51.712  18.510  19.300  0.00  0.00    +0.000 A 
ATOM      6  C   UNL     1      50.595  17.739  19.072  0.00  0.00    -0.166 A 
ATOM      7  C   UNL     1      50.715  16.415  18.655  0.00  0.00    +0.138 A 
ATOM      8  O   UNL     1      49.640  15.775  18.155  0.00  0.00    -0.125 OA
ATOM      9  O   UNL     1      49.593  14.340  18.017  0.00  0.00    -0.102 OA
ATOM     10  C   UNL     1      49.946  13.732  16.869  0.00  0.00    +0.080 A 
ATOM     11  C   UNL     1      51.043  14.180  16.144  0.00  0.00    +0.007 A 
ATOM     12  C   UNL     1      51.501  13.489  15.045  0.00  0.00    +0.030 A 
ATOM     13  C   UNL     1      50.836  12.348  14.636  0.00  0.00    +0.007 A 
ATOM     14  C   UNL     1      49.680  11.951  15.286  0.00  0.00    -0.054 A 
ATOM     15  C   UNL     1      48.989  10.690  14.822  0.00  0.00    +0.094 C 
ATOM     16  C   UNL     1      47.955  10.277  15.874  0.00  0.00    +0.147 C 
ATOM     17  N   UNL     1      47.068  11.463  16.065  0.00  0.00    -0.601 NA
ATOM     18  H   UNL     1      46.352  11.087  16.761  0.00  0.00    +0.322 HD
ATOM     19  C   UNL     1      47.816  12.438  16.900  0.00  0.00    +0.191 C 
ATOM     20  C   UNL     1      47.818  11.976  18.347  0.00  0.00    +0.073 C 
ATOM     21  C   UNL     1      46.934  12.900  19.154  0.00  0.00    -0.067 A 
ATOM     22  C   UNL     1      45.871  13.547  18.551  0.00  0.00    +0.028 A 
ATOM     23  C   UNL     1      45.101  14.444  19.266  0.00  0.00    +0.020 A 
ATOM     24  C   UNL     1      45.385  14.679  20.602  0.00  0.00    +0.072 A 
ATOM     25  O   UNL     1      44.704  15.652  21.278  0.00  0.00    -0.247 OA
ATOM     26  C   UNL     1      45.350  16.860  21.290  0.00  0.00    +0.087 A 
ATOM     27  C   UNL     1      46.702  16.884  20.988  0.00  0.00    -0.037 A 
ATOM     28  C   UNL     1      47.400  18.079  21.018  0.00  0.00    -0.048 A 
ATOM     29  C   UNL     1      48.878  18.060  20.774  0.00  0.00    +0.077 C 
ATOM     30  C   UNL     1      46.740  19.259  21.306  0.00  0.00    +0.021 A 
ATOM     31  C   UNL     1      45.385  19.240  21.594  0.00  0.00    +0.023 A 
ATOM     32  C   UNL     1      44.686  18.038  21.592  0.00  0.00    +0.085 A 
ATOM     35  C   UNL     1      46.398  13.970  21.226  0.00  0.00    +0.004 A 
ATOM     36  C   UNL     1      47.176  13.086  20.504  0.00  0.00    +0.024 A 
ATOM     37  C   UNL     1      49.186  12.676  16.350  0.00  0.00    -0.076 A 
ATOM     38  C   UNL     1      49.225  18.304  19.308  0.00  0.00    +0.209 C 
ATOM     39  N   UNL     1      49.197  19.774  19.038  0.00  0.00    -0.584 NA
ATOM     40  H   UNL     1      49.724  19.828  18.104  0.00  0.00    +0.322 HD
ATOM     41  C   UNL     1      50.182  20.414  19.952  0.00  0.00    +0.173 C 
ATOM     42  C   UNL     1      51.595  19.971  19.628  0.00  0.00    +0.064 C 
ATOM     43  C   UNL     1      51.976  15.817  18.660  0.00  0.00    -0.007 A 
ENDROOT
BRANCH   3   2
ATOM      1  C   UNL     1      55.043  15.909  20.100  0.00  0.00    +0.244 C 
ATOM      2  O   UNL     1      54.336  16.023  18.863  0.00  0.00    -0.299 OA
ENDBRANCH   3   2
BRANCH  32  33
ATOM     33  O   UNL     1      43.360  18.023  21.886  0.00  0.00    -0.487 OA
ATOM     34  H   UNL     1      42.947  17.153  21.798  0.00  0.00    +0.387 HD
ENDBRANCH  32  33
BRANCH  43  44
ATOM     44  O   UNL     1      52.130  14.474  18.498  0.00  0.00    -0.304 OA
ATOM     45  C   UNL     1      52.203  13.682  19.684  0.00  0.00    +0.216 C 
ENDBRANCH  43  44
TORSDOF 3
ENDMDL
MODEL 4
REMARK VINA RESULT:      -6.4      2.828      6.765
REMARK  Name = ZINC95486198
REMARK  5 active torsions:
REMARK  status: ('A' for Active; 'I' for Inactive)
REMARK    1  A    between atoms: C1_1  and  O1_2
REMARK    2  A    between atoms: O1_2  and  C2_3
REMARK    3  A    between atoms: C7_8  and  O2_9
REMARK    4  A    between atoms: O2_9  and  C8_10
REMARK    5  A    between atoms: C28_34  and  O6_35
REMARK                            x       y       z     vdW  Elec       q    Type
REMARK                         _______ _______ _______ _____ _____    ______ ____
ROOT
ATOM      3  C   UNL     1      51.782  20.576  20.863  0.00  0.00    +0.152 A 
ATOM      4  C   UNL     1      52.690  19.720  21.463  0.00  0.00    -0.092 A 
ATOM      5  C   UNL     1      52.366  18.386  21.661  0.00  0.00    +0.000 A 
ATOM      6  C   UNL     1      51.122  17.927  21.291  0.00  0.00    -0.166 A 
ATOM      7  C   UNL     1      50.154  18.802  20.803  0.00  0.00    +0.138 A 
ATOM      8  O   UNL     1      48.870  18.401  20.729  0.00  0.00    -0.125 OA
ATOM      9  O   UNL     1      47.886  19.105  19.944  0.00  0.00    -0.102 OA
ATOM     10  C   UNL     1      47.104  20.057  20.486  0.00  0.00    +0.080 A 
ATOM     11  C   UNL     1      47.628  20.964  21.399  0.00  0.00    +0.007 A 
ATOM     12  C   UNL     1      46.880  22.025  21.858  0.00  0.00    +0.030 A 
ATOM     13  C   UNL     1      45.575  22.171  21.427  0.00  0.00    +0.007 A 
ATOM     14  C   UNL     1      45.008  21.215  20.601  0.00  0.00    -0.054 A 
ATOM     15  C   UNL     1      43.584  21.417  20.138  0.00  0.00    +0.094 C 
ATOM     16  C   UNL     1      43.293  20.440  18.995  0.00  0.00    +0.147 C 
ATOM     17  N   UNL     1      43.610  19.081  19.527  0.00  0.00    -0.601 NA
ATOM     18  H   UNL     1      43.335  18.458  18.705  0.00  0.00    +0.322 HD
ATOM     19  C   UNL     1      45.090  18.946  19.526  0.00  0.00    +0.191 C 
ATOM     20  C   UNL     1      45.580  18.706  18.108  0.00  0.00    +0.073 C 
ATOM     21  C   UNL     1      46.067  17.279  17.996  0.00  0.00    -0.067 A 
ATOM     22  C   UNL     1      45.527  16.295  18.803  0.00  0.00    +0.028 A 
ATOM     23  C   UNL     1      46.014  15.003  18.752  0.00  0.00    +0.020 A 
ATOM     24  C   UNL     1      47.038  14.690  17.873  0.00  0.00    +0.072 A 
ATOM     25  O   UNL     1      47.602  13.447  17.905  0.00  0.00    -0.247 OA
ATOM     26  C   UNL     1      48.727  13.380  18.685  0.00  0.00    +0.087 A 
ATOM     27  C   UNL     1      49.363  14.564  19.021  0.00  0.00    -0.037 A 
ATOM     28  C   UNL     1      50.519  14.540  19.783  0.00  0.00    -0.048 A 
ATOM     29  C   UNL     1      51.233  15.828  20.053  0.00  0.00    +0.077 C 
ATOM     30  C   UNL     1      51.016  13.338  20.248  0.00  0.00    +0.021 A 
ATOM     31  C   UNL     1      50.373  12.153  19.927  0.00  0.00    +0.023 A 
ATOM     32  C   UNL     1      49.228  12.170  19.139  0.00  0.00    +0.085 A 
ATOM     35  C   UNL     1      47.523  15.657  17.007  0.00  0.00    +0.004 A 
ATOM     36  C   UNL     1      47.043  16.951  17.072  0.00  0.00    +0.024 A 
ATOM     37  C   UNL     1      45.737  20.119  20.189  0.00  0.00    -0.076 A 
ATOM     38  C   UNL     1      50.802  16.464  21.372  0.00  0.00    +0.209 C 
ATOM     39  N   UNL     1      51.545  15.813  22.493  0.00  0.00    -0.584 NA
ATOM     40  H   UNL     1      51.385  16.514  23.289  0.00  0.00    +0.322 HD
ATOM     41  C   UNL     1      52.998  16.008  22.238  0.00  0.00    +0.173 C 
ATOM     42  C   UNL     1      53.372  17.476  22.303  0.00  0.00    +0.064 C 
ATOM     43  C   UNL     1      50.520  20.116  20.506  0.00  0.00    -0.007 A 
ENDROOT
BRANCH   3   2
ATOM      1  C   UNL     1      53.316  22.094  19.867  0.00  0.00    +0.244 C 
ATOM      2  O   UNL     1      52.124  21.868  20.622  0.00  0.00    -0.299 OA
ENDBRANCH   3   2
BRANCH  32  33
ATOM     33  O   UNL     1      48.607  11.006  18.818  0.00  0.00    -0.487 OA
ATOM     34  H   UNL     1      48.482  10.875  17.868  0.00  0.00    +0.387 HD
ENDBRANCH  32  33
BRANCH  43  44
ATOM     44  O   UNL     1      49.697  20.947  19.809  0.00  0.00    -0.304 OA
ATOM     45  C   UNL     1      49.971  21.114  18.417  0.00  0.00    +0.216 C 
ENDBRANCH  43  44
TORSDOF 3
ENDMDL
MODEL 5
REMARK VINA RESULT:      -6.4      2.093      2.732
REMARK  Name = ZINC95486198
REMARK  5 active torsions:
REMARK  status: ('A' for Active; 'I' for Inactive)
REMARK    1  A    between atoms: C1_1  and  O1_2
REMARK    2  A    between atoms: O1_2  and  C2_3
REMARK    3  A    between atoms: C7_8  and  O2_9
REMARK    4  A    between atoms: O2_9  and  C8_10
REMARK    5  A    between atoms: C28_34  and  O6_35
REMARK                            x       y       z     vdW  Elec       q    Type
REMARK                         _______ _______ _______ _____ _____    ______ ____
ROOT
ATOM      3  C   UNL     1      52.602  14.144  21.495  0.00  0.00    +0.152 A 
ATOM      4  C   UNL     1      53.115  15.325  22.001  0.00  0.00    -0.092 A 
ATOM      5  C   UNL     1      52.603  16.544  21.583  0.00  0.00    +0.000 A 
ATOM      6  C   UNL     1      51.607  16.574  20.633  0.00  0.00    -0.166 A 
ATOM      7  C   UNL     1      51.168  15.400  20.024  0.00  0.00    +0.138 A 
ATOM      8  O   UNL     1      50.420  15.472  18.905  0.00  0.00    -0.125 OA
ATOM      9  O   UNL     1      49.661  14.348  18.412  0.00  0.00    -0.102 OA
ATOM     10  C   UNL     1      50.171  13.503  17.497  0.00  0.00    +0.080 A 
ATOM     11  C   UNL     1      51.500  13.103  17.570  0.00  0.00    +0.007 A 
ATOM     12  C   UNL     1      52.000  12.136  16.727  0.00  0.00    +0.030 A 
ATOM     13  C   UNL     1      51.174  11.579  15.769  0.00  0.00    +0.007 A 
ATOM     14  C   UNL     1      49.879  12.044  15.616  0.00  0.00    -0.054 A 
ATOM     15  C   UNL     1      49.001  11.400  14.570  0.00  0.00    +0.094 C 
ATOM     16  C   UNL     1      47.551  11.833  14.806  0.00  0.00    +0.147 C 
ATOM     17  N   UNL     1      47.563  13.326  14.805  0.00  0.00    -0.601 NA
ATOM     18  H   UNL     1      46.527  13.551  14.919  0.00  0.00    +0.322 HD
ATOM     19  C   UNL     1      48.112  13.760  16.115  0.00  0.00    +0.191 C 
ATOM     20  C   UNL     1      47.057  13.588  17.194  0.00  0.00    +0.073 C 
ATOM     21  C   UNL     1      46.585  14.954  17.636  0.00  0.00    -0.067 A 
ATOM     22  C   UNL     1      46.624  16.022  16.756  0.00  0.00    +0.028 A 
ATOM     23  C   UNL     1      46.258  17.286  17.175  0.00  0.00    +0.020 A 
ATOM     24  C   UNL     1      45.829  17.481  18.478  0.00  0.00    +0.072 A 
ATOM     25  O   UNL     1      45.582  18.746  18.928  0.00  0.00    -0.247 OA
ATOM     26  C   UNL     1      46.652  19.316  19.567  0.00  0.00    +0.087 A 
ATOM     27  C   UNL     1      47.667  18.485  20.014  0.00  0.00    -0.037 A 
ATOM     28  C   UNL     1      48.753  19.015  20.690  0.00  0.00    -0.048 A 
ATOM     29  C   UNL     1      49.788  18.082  21.239  0.00  0.00    +0.077 C 
ATOM     30  C   UNL     1      48.848  20.380  20.883  0.00  0.00    +0.021 A 
ATOM     31  C   UNL     1      47.842  21.215  20.424  0.00  0.00    +0.023 A 
ATOM     32  C   UNL     1      46.737  20.684  19.769  0.00  0.00    +0.085 A 
ATOM     35  C   UNL     1      45.712  16.397  19.334  0.00  0.00    +0.004 A 
ATOM     36  C   UNL     1      46.095  15.137  18.917  0.00  0.00    +0.024 A 
ATOM     37  C   UNL     1      49.395  13.055  16.420  0.00  0.00    -0.076 A 
ATOM     38  C   UNL     1      50.948  17.871  20.269  0.00  0.00    +0.209 C 
ATOM     39  N   UNL     1      51.904  19.013  20.396  0.00  0.00    -0.584 NA
ATOM     40  H   UNL     1      52.774  18.616  19.909  0.00  0.00    +0.322 HD
ATOM     41  C   UNL     1      52.368  19.051  21.810  0.00  0.00    +0.173 C 
ATOM     42  C   UNL     1      53.170  17.811  22.155  0.00  0.00    +0.064 C 
ATOM     43  C   UNL     1      51.607  14.174  20.524  0.00  0.00    -0.007 A 
ENDROOT
BRANCH   3   2
ATOM      1  C   UNL     1      54.337  12.520  21.451  0.00  0.00    +0.244 C 
ATOM      2  O   UNL     1      53.068  12.951  21.946  0.00  0.00    -0.299 OA
ENDBRANCH   3   2
BRANCH  32  33
ATOM     33  O   UNL     1      45.748  21.505  19.330  0.00  0.00    -0.487 OA
ATOM     34  H   UNL     1      45.932  22.446  19.457  0.00  0.00    +0.387 HD
ENDBRANCH  32  33
BRANCH  43  44
ATOM     44  O   UNL     1      51.039  12.999  20.137  0.00  0.00    -0.304 OA
ATOM     45  C   UNL     1      50.091  12.411  21.030  0.00  0.00    +0.216 C 
ENDBRANCH  43  44
TORSDOF 3
ENDMDL
MODEL 6
REMARK VINA RESULT:      -6.3      2.311      6.464
REMARK  Name = ZINC95486198
REMARK  5 active torsions:
REMARK  status: ('A' for Active; 'I' for Inactive)
REMARK    1  A    between atoms: C1_1  and  O1_2
REMARK    2  A    between atoms: O1_2  and  C2_3
REMARK    3  A    between atoms: C7_8  and  O2_9
REMARK    4  A    between atoms: O2_9  and  C8_10
REMARK    5  A    between atoms: C28_34  and  O6_35
REMARK                            x       y       z     vdW  Elec       q    Type
REMARK                         _______ _______ _______ _____ _____    ______ ____
ROOT
ATOM      3  C   UNL     1      49.348  11.932  15.697  0.00  0.00    +0.152 A 
ATOM      4  C   UNL     1      48.004  11.665  15.894  0.00  0.00    -0.092 A 
ATOM      5  C   UNL     1      47.310  12.295  16.916  0.00  0.00    +0.000 A 
ATOM      6  C   UNL     1      47.974  13.159  17.757  0.00  0.00    -0.166 A 
ATOM      7  C   UNL     1      49.350  13.342  17.649  0.00  0.00    +0.138 A 
ATOM      8  O   UNL     1      50.021  13.948  18.649  0.00  0.00    -0.125 OA
ATOM      9  O   UNL     1      51.357  14.465  18.478  0.00  0.00    -0.102 OA
ATOM     10  C   UNL     1      52.441  13.727  18.781  0.00  0.00    +0.080 A 
ATOM     11  C   UNL     1      52.481  12.374  18.469  0.00  0.00    +0.007 A 
ATOM     12  C   UNL     1      53.629  11.636  18.646  0.00  0.00    +0.030 A 
ATOM     13  C   UNL     1      54.753  12.246  19.173  0.00  0.00    +0.007 A 
ATOM     14  C   UNL     1      54.693  13.566  19.586  0.00  0.00    -0.054 A 
ATOM     15  C   UNL     1      55.945  14.203  20.142  0.00  0.00    +0.094 C 
ATOM     16  C   UNL     1      55.738  15.720  20.214  0.00  0.00    +0.147 C 
ATOM     17  N   UNL     1      54.498  15.927  21.019  0.00  0.00    -0.601 NA
ATOM     18  H   UNL     1      54.449  16.991  21.070  0.00  0.00    +0.322 HD
ATOM     19  C   UNL     1      53.346  15.614  20.135  0.00  0.00    +0.191 C 
ATOM     20  C   UNL     1      53.123  16.759  19.161  0.00  0.00    +0.073 C 
ATOM     21  C   UNL     1      51.848  17.478  19.537  0.00  0.00    -0.067 A 
ATOM     22  C   UNL     1      51.416  17.487  20.851  0.00  0.00    +0.028 A 
ATOM     23  C   UNL     1      50.218  18.085  21.189  0.00  0.00    +0.020 A 
ATOM     24  C   UNL     1      49.454  18.695  20.208  0.00  0.00    +0.072 A 
ATOM     25  O   UNL     1      48.215  19.180  20.516  0.00  0.00    -0.247 OA
ATOM     26  C   UNL     1      47.204  18.293  20.258  0.00  0.00    +0.087 A 
ATOM     27  C   UNL     1      47.465  17.230  19.408  0.00  0.00    -0.037 A 
ATOM     28  C   UNL     1      46.463  16.327  19.096  0.00  0.00    -0.048 A 
ATOM     29  C   UNL     1      46.751  15.241  18.106  0.00  0.00    +0.077 C 
ATOM     30  C   UNL     1      45.211  16.458  19.667  0.00  0.00    +0.021 A 
ATOM     31  C   UNL     1      44.951  17.511  20.529  0.00  0.00    +0.023 A 
ATOM     32  C   UNL     1      45.946  18.436  20.823  0.00  0.00    +0.085 A 
ATOM     35  C   UNL     1      49.926  18.757  18.906  0.00  0.00    +0.004 A 
ATOM     36  C   UNL     1      51.118  18.144  18.569  0.00  0.00    +0.024 A 
ATOM     37  C   UNL     1      53.525  14.290  19.466  0.00  0.00    -0.076 A 
ATOM     38  C   UNL     1      47.214  13.951  18.779  0.00  0.00    +0.209 C 
ATOM     39  N   UNL     1      46.018  13.198  19.262  0.00  0.00    -0.584 NA
ATOM     40  H   UNL     1      46.437  12.225  19.437  0.00  0.00    +0.322 HD
ATOM     41  C   UNL     1      45.156  12.923  18.081  0.00  0.00    +0.173 C 
ATOM     42  C   UNL     1      45.850  11.996  17.102  0.00  0.00    +0.064 C 
ATOM     43  C   UNL     1      50.022  12.792  16.556  0.00  0.00    -0.007 A 
ENDROOT
BRANCH   3   2
ATOM      1  C   UNL     1      50.895  10.277  14.978  0.00  0.00    +0.244 C 
ATOM      2  O   UNL     1      50.011  11.355  14.663  0.00  0.00    -0.299 OA
ENDBRANCH   3   2
BRANCH  32  33
ATOM     33  O   UNL     1      45.684  19.473  21.660  0.00  0.00    -0.487 OA
ATOM     34  H   UNL     1      44.768  19.508  21.969  0.00  0.00    +0.387 HD
ENDBRANCH  32  33
BRANCH  43  44
ATOM     44  O   UNL     1      51.308  13.129  16.264  0.00  0.00    -0.304 OA
ATOM     45  C   UNL     1      51.512  14.011  15.159  0.00  0.00    +0.216 C 
ENDBRANCH  43  44
TORSDOF 3
ENDMDL
MODEL 7
REMARK VINA RESULT:      -6.1      2.108      8.627
REMARK  Name = ZINC95486198
REMARK  5 active torsions:
REMARK  status: ('A' for Active; 'I' for Inactive)
REMARK    1  A    between atoms: C1_1  and  O1_2
REMARK    2  A    between atoms: O1_2  and  C2_3
REMARK    3  A    between atoms: C7_8  and  O2_9
REMARK    4  A    between atoms: O2_9  and  C8_10
REMARK    5  A    between atoms: C28_34  and  O6_35
REMARK                            x       y       z     vdW  Elec       q    Type
REMARK                         _______ _______ _______ _____ _____    ______ ____
ROOT
ATOM      3  C   UNL     1      45.812  15.556  21.221  0.00  0.00    +0.152 A 
ATOM      4  C   UNL     1      44.937  14.606  20.723  0.00  0.00    -0.092 A 
ATOM      5  C   UNL     1      45.197  13.985  19.511  0.00  0.00    +0.000 A 
ATOM      6  C   UNL     1      46.312  14.346  18.787  0.00  0.00    -0.166 A 
ATOM      7  C   UNL     1      47.133  15.387  19.215  0.00  0.00    +0.138 A 
ATOM      8  O   UNL     1      48.032  15.918  18.363  0.00  0.00    -0.125 OA
ATOM      9  O   UNL     1      49.123  16.747  18.812  0.00  0.00    -0.102 OA
ATOM     10  C   UNL     1      49.017  18.089  18.852  0.00  0.00    +0.080 A 
ATOM     11  C   UNL     1      47.839  18.689  19.280  0.00  0.00    +0.007 A 
ATOM     12  C   UNL     1      47.759  20.052  19.457  0.00  0.00    +0.030 A 
ATOM     13  C   UNL     1      48.859  20.839  19.172  0.00  0.00    +0.007 A 
ATOM     14  C   UNL     1      50.002  20.264  18.644  0.00  0.00    -0.054 A 
ATOM     15  C   UNL     1      51.190  21.154  18.360  0.00  0.00    +0.094 C 
ATOM     16  C   UNL     1      52.418  20.273  18.109  0.00  0.00    +0.147 C 
ATOM     17  N   UNL     1      52.035  19.341  17.007  0.00  0.00    -0.601 NA
ATOM     18  H   UNL     1      52.944  18.804  16.853  0.00  0.00    +0.322 HD
ATOM     19  C   UNL     1      51.165  18.295  17.603  0.00  0.00    +0.191 C 
ATOM     20  C   UNL     1      52.013  17.310  18.389  0.00  0.00    +0.073 C 
ATOM     21  C   UNL     1      52.041  15.992  17.649  0.00  0.00    -0.067 A 
ATOM     22  C   UNL     1      51.900  15.964  16.273  0.00  0.00    +0.028 A 
ATOM     23  C   UNL     1      51.857  14.759  15.599  0.00  0.00    +0.020 A 
ATOM     24  C   UNL     1      51.977  13.573  16.305  0.00  0.00    +0.072 A 
ATOM     25  O   UNL     1      51.815  12.381  15.659  0.00  0.00    -0.247 OA
ATOM     26  C   UNL     1      50.538  11.889  15.736  0.00  0.00    +0.087 A 
ATOM     27  C   UNL     1      49.698  12.398  16.713  0.00  0.00    -0.037 A 
ATOM     28  C   UNL     1      48.409  11.908  16.846  0.00  0.00    -0.048 A 
ATOM     29  C   UNL     1      47.555  12.414  17.967  0.00  0.00    +0.077 C 
ATOM     30  C   UNL     1      47.943  10.942  15.975  0.00  0.00    +0.021 A 
ATOM     31  C   UNL     1      48.776  10.442  14.987  0.00  0.00    +0.023 A 
ATOM     32  C   UNL     1      50.080  10.911  14.868  0.00  0.00    +0.085 A 
ATOM     35  C   UNL     1      52.200  13.604  17.672  0.00  0.00    +0.004 A 
ATOM     36  C   UNL     1      52.227  14.811  18.345  0.00  0.00    +0.024 A 
ATOM     37  C   UNL     1      50.064  18.907  18.409  0.00  0.00    -0.076 A 
ATOM     38  C   UNL     1      46.682  13.593  17.544  0.00  0.00    +0.209 C 
ATOM     39  N   UNL     1      45.466  13.074  16.848  0.00  0.00    -0.584 NA
ATOM     40  H   UNL     1      44.827  13.936  16.868  0.00  0.00    +0.322 HD
ATOM     41  C   UNL     1      44.756  12.177  17.800  0.00  0.00    +0.173 C 
ATOM     42  C   UNL     1      44.238  12.951  18.997  0.00  0.00    +0.064 C 
ATOM     43  C   UNL     1      46.928  15.932  20.483  0.00  0.00    -0.007 A 
ENDROOT
BRANCH   3   2
ATOM      1  C   UNL     1      44.548  17.105  22.505  0.00  0.00    +0.244 C 
ATOM      2  O   UNL     1      45.582  16.122  22.434  0.00  0.00    -0.299 OA
ENDBRANCH   3   2
BRANCH  32  33
ATOM     33  O   UNL     1      50.897  10.410  13.905  0.00  0.00    -0.487 OA
ATOM     34  H   UNL     1      50.616   9.552  13.558  0.00  0.00    +0.387 HD
ENDBRANCH  32  33
BRANCH  43  44
ATOM     44  O   UNL     1      47.833  16.775  21.053  0.00  0.00    -0.304 OA
ATOM     45  C   UNL     1      48.721  16.215  22.022  0.00  0.00    +0.216 C 
ENDBRANCH  43  44
TORSDOF 3
ENDMDL
MODEL 8
REMARK VINA RESULT:      -5.7      2.282      3.955
REMARK  Name = ZINC95486198
REMARK  5 active torsions:
REMARK  status: ('A' for Active; 'I' for Inactive)
REMARK    1  A    between atoms: C1_1  and  O1_2
REMARK    2  A    between atoms: O1_2  and  C2_3
REMARK    3  A    between atoms: C7_8  and  O2_9
REMARK    4  A    between atoms: O2_9  and  C8_10
REMARK    5  A    between atoms: C28_34  and  O6_35
REMARK                            x       y       z     vdW  Elec       q    Type
REMARK                         _______ _______ _______ _____ _____    ______ ____
ROOT
ATOM      3  C   UNL     1      51.161  20.705  21.530  0.00  0.00    +0.152 A 
ATOM      4  C   UNL     1      50.352  21.771  21.885  0.00  0.00    -0.092 A 
ATOM      5  C   UNL     1      48.979  21.692  21.712  0.00  0.00    +0.000 A 
ATOM      6  C   UNL     1      48.428  20.562  21.151  0.00  0.00    -0.166 A 
ATOM      7  C   UNL     1      49.239  19.535  20.675  0.00  0.00    +0.138 A 
ATOM      8  O   UNL     1      48.711  18.589  19.873  0.00  0.00    -0.125 OA
ATOM      9  O   UNL     1      49.380  17.337  19.615  0.00  0.00    -0.102 OA
ATOM     10  C   UNL     1      50.185  17.176  18.547  0.00  0.00    +0.080 A 
ATOM     11  C   UNL     1      51.048  18.193  18.158  0.00  0.00    +0.007 A 
ATOM     12  C   UNL     1      51.973  17.997  17.157  0.00  0.00    +0.030 A 
ATOM     13  C   UNL     1      52.020  16.778  16.507  0.00  0.00    +0.007 A 
ATOM     14  C   UNL     1      51.095  15.794  16.813  0.00  0.00    -0.054 A 
ATOM     15  C   UNL     1      51.188  14.470  16.093  0.00  0.00    +0.094 C 
ATOM     16  C   UNL     1      50.302  13.450  16.817  0.00  0.00    +0.147 C 
ATOM     17  N   UNL     1      48.939  14.058  16.873  0.00  0.00    -0.601 NA
ATOM     18  H   UNL     1      48.374  13.280  17.335  0.00  0.00    +0.322 HD
ATOM     19  C   UNL     1      48.964  15.089  17.942  0.00  0.00    +0.191 C 
ATOM     20  C   UNL     1      48.919  14.415  19.303  0.00  0.00    +0.073 C 
ATOM     21  C   UNL     1      47.570  14.679  19.933  0.00  0.00    -0.067 A 
ATOM     22  C   UNL     1      46.459  14.886  19.136  0.00  0.00    +0.028 A 
ATOM     23  C   UNL     1      45.238  15.195  19.704  0.00  0.00    +0.020 A 
ATOM     24  C   UNL     1      45.124  15.278  21.082  0.00  0.00    +0.072 A 
ATOM     25  O   UNL     1      43.952  15.699  21.641  0.00  0.00    -0.247 OA
ATOM     26  C   UNL     1      43.929  17.043  21.910  0.00  0.00    +0.087 A 
ATOM     27  C   UNL     1      45.136  17.722  21.959  0.00  0.00    -0.037 A 
ATOM     28  C   UNL     1      45.161  19.074  22.256  0.00  0.00    -0.048 A 
ATOM     29  C   UNL     1      46.485  19.760  22.389  0.00  0.00    +0.077 C 
ATOM     30  C   UNL     1      43.979  19.760  22.462  0.00  0.00    +0.021 A 
ATOM     31  C   UNL     1      42.770  19.086  22.399  0.00  0.00    +0.023 A 
ATOM     32  C   UNL     1      42.741  17.723  22.128  0.00  0.00    +0.085 A 
ATOM     35  C   UNL     1      46.218  14.991  21.883  0.00  0.00    +0.004 A 
ATOM     36  C   UNL     1      47.441  14.698  21.310  0.00  0.00    +0.024 A 
ATOM     37  C   UNL     1      50.129  16.011  17.773  0.00  0.00    -0.076 A 
ATOM     38  C   UNL     1      46.938  20.404  21.081  0.00  0.00    +0.209 C 
ATOM     39  N   UNL     1      46.263  21.728  20.930  0.00  0.00    -0.584 NA
ATOM     40  H   UNL     1      46.862  22.185  20.164  0.00  0.00    +0.322 HD
ATOM     41  C   UNL     1      46.637  22.556  22.108  0.00  0.00    +0.173 C 
ATOM     42  C   UNL     1      48.123  22.858  22.115  0.00  0.00    +0.064 C 
ATOM     43  C   UNL     1      50.607  19.571  20.948  0.00  0.00    -0.007 A 
ENDROOT
BRANCH   3   2
ATOM      1  C   UNL     1      52.985  21.878  22.504  0.00  0.00    +0.244 C 
ATOM      2  O   UNL     1      52.500  20.764  21.751  0.00  0.00    -0.299 OA
ENDBRANCH   3   2
BRANCH  32  33
ATOM     33  O   UNL     1      41.554  17.064  22.079  0.00  0.00    -0.487 OA
ATOM     34  H   UNL     1      40.787  17.643  21.964  0.00  0.00    +0.387 HD
ENDBRANCH  32  33
BRANCH  43  44
ATOM     44  O   UNL     1      51.409  18.494  20.724  0.00  0.00    -0.304 OA
ATOM     45  C   UNL     1      51.701  17.659  21.846  0.00  0.00    +0.216 C 
ENDBRANCH  43  44
TORSDOF 3
ENDMDL
MODEL 9
REMARK VINA RESULT:      -5.7      2.790      8.185
REMARK  Name = ZINC95486198
REMARK  5 active torsions:
REMARK  status: ('A' for Active; 'I' for Inactive)
REMARK    1  A    between atoms: C1_1  and  O1_2
REMARK    2  A    between atoms: O1_2  and  C2_3
REMARK    3  A    between atoms: C7_8  and  O2_9
REMARK    4  A    between atoms: O2_9  and  C8_10
REMARK    5  A    between atoms: C28_34  and  O6_35
REMARK                            x       y       z     vdW  Elec       q    Type
REMARK                         _______ _______ _______ _____ _____    ______ ____
ROOT
ATOM      3  C   UNL     1      47.547  12.066  17.881  0.00  0.00    +0.152 A 
ATOM      4  C   UNL     1      48.358  11.120  17.278  0.00  0.00    -0.092 A 
ATOM      5  C   UNL     1      49.727  11.323  17.199  0.00  0.00    +0.000 A 
ATOM      6  C   UNL     1      50.271  12.489  17.690  0.00  0.00    -0.166 A 
ATOM      7  C   UNL     1      49.455  13.503  18.185  0.00  0.00    +0.138 A 
ATOM      8  O   UNL     1      49.968  14.734  18.381  0.00  0.00    -0.125 OA
ATOM      9  O   UNL     1      49.300  15.728  19.184  0.00  0.00    -0.102 OA
ATOM     10  C   UNL     1      48.470  16.636  18.635  0.00  0.00    +0.080 A 
ATOM     11  C   UNL     1      47.592  16.265  17.624  0.00  0.00    +0.007 A 
ATOM     12  C   UNL     1      46.645  17.142  17.148  0.00  0.00    +0.030 A 
ATOM     13  C   UNL     1      46.589  18.425  17.661  0.00  0.00    +0.007 A 
ATOM     14  C   UNL     1      47.526  18.839  18.592  0.00  0.00    -0.054 A 
ATOM     15  C   UNL     1      47.424  20.241  19.142  0.00  0.00    +0.094 C 
ATOM     16  C   UNL     1      48.333  20.359  20.370  0.00  0.00    +0.147 C 
ATOM     17  N   UNL     1      49.693  19.944  19.914  0.00  0.00    -0.601 NA
ATOM     18  H   UNL     1      50.273  20.102  20.795  0.00  0.00    +0.322 HD
ATOM     19  C   UNL     1      49.688  18.462  19.816  0.00  0.00    +0.191 C 
ATOM     20  C   UNL     1      49.770  17.858  21.207  0.00  0.00    +0.073 C 
ATOM     21  C   UNL     1      51.132  17.226  21.384  0.00  0.00    -0.067 A 
ATOM     22  C   UNL     1      52.223  17.719  20.690  0.00  0.00    +0.028 A 
ATOM     23  C   UNL     1      53.455  17.103  20.796  0.00  0.00    +0.020 A 
ATOM     24  C   UNL     1      53.602  15.998  21.619  0.00  0.00    +0.072 A 
ATOM     25  O   UNL     1      54.785  15.317  21.633  0.00  0.00    -0.247 OA
ATOM     26  C   UNL     1      54.807  14.245  20.779  0.00  0.00    +0.087 A 
ATOM     27  C   UNL     1      53.598  13.752  20.315  0.00  0.00    -0.037 A 
ATOM     28  C   UNL     1      53.572  12.653  19.474  0.00  0.00    -0.048 A 
ATOM     29  C   UNL     1      52.248  12.089  19.062  0.00  0.00    +0.077 C 
ATOM     30  C   UNL     1      54.755  12.071  19.060  0.00  0.00    +0.021 A 
ATOM     31  C   UNL     1      55.966  12.571  19.510  0.00  0.00    +0.023 A 
ATOM     32  C   UNL     1      55.996  13.658  20.376  0.00  0.00    +0.085 A 
ATOM     35  C   UNL     1      52.529  15.555  22.376  0.00  0.00    +0.004 A 
ATOM     36  C   UNL     1      51.295  16.163  22.255  0.00  0.00    +0.024 A 
ATOM     37  C   UNL     1      48.514  17.980  19.026  0.00  0.00    -0.076 A 
ATOM     38  C   UNL     1      51.760  12.667  17.736  0.00  0.00    +0.209 C 
ATOM     39  N   UNL     1      52.423  11.938  16.613  0.00  0.00    -0.584 NA
ATOM     40  H   UNL     1      51.803  12.220  15.783  0.00  0.00    +0.322 HD
ATOM     41  C   UNL     1      52.073  10.498  16.747  0.00  0.00    +0.173 C 
ATOM     42  C   UNL     1      50.586  10.277  16.551  0.00  0.00    +0.064 C 
ATOM     43  C   UNL     1      48.093  13.250  18.361  0.00  0.00    -0.007 A 
ENDROOT
BRANCH   3   2
ATOM      1  C   UNL     1      45.394  12.151  16.876  0.00  0.00    +0.244 C 
ATOM      2  O   UNL     1      46.214  11.839  18.005  0.00  0.00    -0.299 OA
ENDBRANCH   3   2
BRANCH  32  33
ATOM     33  O   UNL     1      57.185  14.138  20.824  0.00  0.00    -0.487 OA
ATOM     34  H   UNL     1      57.896  13.482  20.834  0.00  0.00    +0.387 HD
ENDBRANCH  32  33
BRANCH  43  44
ATOM     44  O   UNL     1      47.292  14.104  19.055  0.00  0.00    -0.304 OA
ATOM     45  C   UNL     1      46.993  13.756  20.409  0.00  0.00    +0.216 C 
ENDBRANCH  43  44
TORSDOF 3
ENDMDL
