MODEL 1
REMARK VINA RESULT:      -6.4      0.000      0.000
REMARK  Name = ZINC53194131
REMARK  2 active torsions:
REMARK  status: ('A' for Active; 'I' for Inactive)
REMARK    1  A    between atoms: C1_1  and  O1_2
REMARK    2  A    between atoms: O1_2  and  C2_3
REMARK                            x       y       z     vdW  Elec       q    Type
REMARK                         _______ _______ _______ _____ _____    ______ ____
ROOT
ATOM      3  C   UNL     1      46.089  21.012  20.304  0.00  0.00    +0.194 C 
ATOM      4  C   UNL     1      45.862  19.833  21.226  0.00  0.00    +0.071 C 
ATOM      5  C   UNL     1      45.063  18.719  20.573  0.00  0.00    +0.199 C 
ATOM      6  C   UNL     1      43.638  19.151  20.347  0.00  0.00    -0.092 A 
ATOM      7  C   UNL     1      43.423  20.124  19.369  0.00  0.00    +0.054 A 
ATOM      8  C   UNL     1      42.120  20.527  19.131  0.00  0.00    +0.029 A 
ATOM      9  C   UNL     1      41.052  19.972  19.853  0.00  0.00    +0.036 A 
ATOM     10  O   UNL     1      39.898  20.532  19.424  0.00  0.00    -0.305 OA
ATOM     11  C   UNL     1      40.290  21.723  18.709  0.00  0.00    +0.431 C 
ATOM     12  C   UNL     1      41.276  19.012  20.823  0.00  0.00    +0.040 A 
ATOM     13  O   UNL     1      41.630  21.436  18.256  0.00  0.00    -0.305 OA
ATOM     14  C   UNL     1      42.594  18.614  21.064  0.00  0.00    -0.062 A 
ATOM     15  C   UNL     1      42.808  17.599  22.148  0.00  0.00    +0.053 C 
ATOM     16  C   UNL     1      44.253  17.257  22.398  0.00  0.00    +0.233 C 
ATOM     17  C   UNL     1      45.682  18.414  19.217  0.00  0.00    -0.109 C 
ATOM     18  C   UNL     1      46.237  19.469  18.353  0.00  0.00    +0.050 C 
ATOM     19  C   UNL     1      45.662  17.107  19.018  0.00  0.00    +0.007 C 
ATOM     20  C   UNL     1      45.055  16.439  20.238  0.00  0.00    +0.224 C 
ATOM     21  N   UNL     1      45.154  17.462  21.305  0.00  0.00    -0.521 NA
ATOM     22  C   UNL     1      46.425  20.664  18.895  0.00  0.00    -0.052 C 
ENDROOT
BRANCH   3   2
ATOM      1  C   UNL     1      46.719  22.871  21.678  0.00  0.00    +0.201 C 
ATOM      2  O   UNL     1      47.154  21.800  20.838  0.00  0.00    -0.377 OA
ENDBRANCH   3   2
TORSDOF 1
ENDMDL
MODEL 2
REMARK VINA RESULT:      -6.1      1.949      3.722
REMARK  Name = ZINC53194131
REMARK  2 active torsions:
REMARK  status: ('A' for Active; 'I' for Inactive)
REMARK    1  A    between atoms: C1_1  and  O1_2
REMARK    2  A    between atoms: O1_2  and  C2_3
REMARK                            x       y       z     vdW  Elec       q    Type
REMARK                         _______ _______ _______ _____ _____    ______ ____
ROOT
ATOM      3  C   UNL     1      45.720  18.412  18.199  0.00  0.00    +0.194 C 
ATOM      4  C   UNL     1      46.372  19.608  18.860  0.00  0.00    +0.071 C 
ATOM      5  C   UNL     1      45.644  20.059  20.114  0.00  0.00    +0.199 C 
ATOM      6  C   UNL     1      44.305  20.653  19.763  0.00  0.00    -0.092 A 
ATOM      7  C   UNL     1      43.328  19.772  19.294  0.00  0.00    +0.054 A 
ATOM      8  C   UNL     1      42.084  20.292  18.980  0.00  0.00    +0.029 A 
ATOM      9  C   UNL     1      41.817  21.661  19.129  0.00  0.00    +0.036 A 
ATOM     10  O   UNL     1      40.538  21.900  18.761  0.00  0.00    -0.305 OA
ATOM     11  C   UNL     1      40.132  20.738  18.008  0.00  0.00    +0.431 C 
ATOM     12  C   UNL     1      42.793  22.528  19.590  0.00  0.00    +0.040 A 
ATOM     13  O   UNL     1      40.971  19.679  18.514  0.00  0.00    -0.305 OA
ATOM     14  C   UNL     1      44.050  21.998  19.899  0.00  0.00    -0.062 A 
ATOM     15  C   UNL     1      45.098  22.968  20.360  0.00  0.00    +0.053 C 
ATOM     16  C   UNL     1      46.444  22.346  20.620  0.00  0.00    +0.233 C 
ATOM     17  C   UNL     1      45.401  18.843  20.994  0.00  0.00    -0.109 C 
ATOM     18  C   UNL     1      45.066  17.523  20.433  0.00  0.00    +0.050 C 
ATOM     19  C   UNL     1      45.587  19.181  22.259  0.00  0.00    +0.007 C 
ATOM     20  C   UNL     1      45.996  20.642  22.316  0.00  0.00    +0.224 C 
ATOM     21  N   UNL     1      46.449  20.950  20.939  0.00  0.00    -0.521 NA
ATOM     22  C   UNL     1      45.238  17.353  19.130  0.00  0.00    -0.052 C 
ENDROOT
BRANCH   3   2
ATOM      1  C   UNL     1      46.512  16.414  17.140  0.00  0.00    +0.201 C 
ATOM      2  O   UNL     1      46.664  17.826  17.302  0.00  0.00    -0.377 OA
ENDBRANCH   3   2
TORSDOF 1
ENDMDL
MODEL 3
REMARK VINA RESULT:      -5.8      2.433      5.620
REMARK  Name = ZINC53194131
REMARK  2 active torsions:
REMARK  status: ('A' for Active; 'I' for Inactive)
REMARK    1  A    between atoms: C1_1  and  O1_2
REMARK    2  A    between atoms: O1_2  and  C2_3
REMARK                            x       y       z     vdW  Elec       q    Type
REMARK                         _______ _______ _______ _____ _____    ______ ____
ROOT
ATOM      3  C   UNL     1      43.247  19.121  20.843  0.00  0.00    +0.194 C 
ATOM      4  C   UNL     1      43.997  20.113  21.707  0.00  0.00    +0.071 C 
ATOM      5  C   UNL     1      44.799  21.114  20.895  0.00  0.00    +0.199 C 
ATOM      6  C   UNL     1      45.957  20.436  20.212  0.00  0.00    -0.092 A 
ATOM      7  C   UNL     1      45.648  19.562  19.167  0.00  0.00    +0.054 A 
ATOM      8  C   UNL     1      46.697  18.938  18.512  0.00  0.00    +0.029 A 
ATOM      9  C   UNL     1      48.026  19.178  18.891  0.00  0.00    +0.036 A 
ATOM     10  O   UNL     1      48.845  18.454  18.095  0.00  0.00    -0.305 OA
ATOM     11  C   UNL     1      48.000  17.459  17.479  0.00  0.00    +0.431 C 
ATOM     12  C   UNL     1      48.323  20.042  19.931  0.00  0.00    +0.040 A 
ATOM     13  O   UNL     1      46.688  18.060  17.483  0.00  0.00    -0.305 OA
ATOM     14  C   UNL     1      47.260  20.664  20.592  0.00  0.00    -0.062 A 
ATOM     15  C   UNL     1      47.610  21.566  21.739  0.00  0.00    +0.053 C 
ATOM     16  C   UNL     1      46.421  22.158  22.446  0.00  0.00    +0.233 C 
ATOM     17  C   UNL     1      43.895  21.696  19.818  0.00  0.00    -0.109 C 
ATOM     18  C   UNL     1      42.886  20.883  19.118  0.00  0.00    +0.050 C 
ATOM     19  C   UNL     1      44.151  22.987  19.690  0.00  0.00    +0.007 C 
ATOM     20  C   UNL     1      45.226  23.370  20.691  0.00  0.00    +0.224 C 
ATOM     21  N   UNL     1      45.215  22.269  21.681  0.00  0.00    -0.521 NA
ATOM     22  C   UNL     1      42.599  19.694  19.630  0.00  0.00    -0.052 C 
ENDROOT
BRANCH   3   2
ATOM      1  C   UNL     1      40.905  18.877  21.284  0.00  0.00    +0.201 C 
ATOM      2  O   UNL     1      42.237  18.505  21.643  0.00  0.00    -0.377 OA
ENDBRANCH   3   2
TORSDOF 1
ENDMDL
MODEL 4
REMARK VINA RESULT:      -5.7      4.769      6.657
REMARK  Name = ZINC53194131
REMARK  2 active torsions:
REMARK  status: ('A' for Active; 'I' for Inactive)
REMARK    1  A    between atoms: C1_1  and  O1_2
REMARK    2  A    between atoms: O1_2  and  C2_3
REMARK                            x       y       z     vdW  Elec       q    Type
REMARK                         _______ _______ _______ _____ _____    ______ ____
ROOT
ATOM      3  C   UNL     1      51.646  19.842  20.416  0.00  0.00    +0.194 C 
ATOM      4  C   UNL     1      51.923  18.643  19.533  0.00  0.00    +0.071 C 
ATOM      5  C   UNL     1      51.254  18.745  18.174  0.00  0.00    +0.199 C 
ATOM      6  C   UNL     1      49.759  18.629  18.309  0.00  0.00    -0.092 A 
ATOM      7  C   UNL     1      49.097  19.699  18.916  0.00  0.00    +0.054 A 
ATOM      8  C   UNL     1      47.720  19.623  19.038  0.00  0.00    +0.029 A 
ATOM      9  C   UNL     1      47.016  18.505  18.565  0.00  0.00    +0.036 A 
ATOM     10  O   UNL     1      45.697  18.687  18.802  0.00  0.00    -0.305 OA
ATOM     11  C   UNL     1      45.625  19.746  19.780  0.00  0.00    +0.431 C 
ATOM     12  C   UNL     1      47.681  17.448  17.969  0.00  0.00    +0.040 A 
ATOM     13  O   UNL     1      46.839  20.498  19.573  0.00  0.00    -0.305 OA
ATOM     14  C   UNL     1      49.072  17.527  17.855  0.00  0.00    -0.062 A 
ATOM     15  C   UNL     1      49.769  16.350  17.239  0.00  0.00    +0.053 C 
ATOM     16  C   UNL     1      51.269  16.470  17.198  0.00  0.00    +0.233 C 
ATOM     17  C   UNL     1      51.568  20.112  17.584  0.00  0.00    -0.109 C 
ATOM     18  C   UNL     1      51.642  21.326  18.414  0.00  0.00    +0.050 C 
ATOM     19  C   UNL     1      51.789  19.983  16.287  0.00  0.00    +0.007 C 
ATOM     20  C   UNL     1      51.669  18.515  15.918  0.00  0.00    +0.224 C 
ATOM     21  N   UNL     1      51.801  17.799  17.208  0.00  0.00    -0.521 NA
ATOM     22  C   UNL     1      51.689  21.163  19.729  0.00  0.00    -0.052 C 
ENDROOT
BRANCH   3   2
ATOM      1  C   UNL     1      52.601  21.049  22.253  0.00  0.00    +0.201 C 
ATOM      2  O   UNL     1      52.608  19.852  21.471  0.00  0.00    -0.377 OA
ENDBRANCH   3   2
TORSDOF 1
ENDMDL
MODEL 5
REMARK VINA RESULT:      -5.5     21.860     24.218
REMARK  Name = ZINC53194131
REMARK  2 active torsions:
REMARK  status: ('A' for Active; 'I' for Inactive)
REMARK    1  A    between atoms: C1_1  and  O1_2
REMARK    2  A    between atoms: O1_2  and  C2_3
REMARK                            x       y       z     vdW  Elec       q    Type
REMARK                         _______ _______ _______ _____ _____    ______ ____
ROOT
ATOM      3  C   UNL     1      41.337  33.446   2.141  0.00  0.00    +0.194 C 
ATOM      4  C   UNL     1      41.288  33.161   0.655  0.00  0.00    +0.071 C 
ATOM      5  C   UNL     1      42.443  32.295   0.182  0.00  0.00    +0.199 C 
ATOM      6  C   UNL     1      43.741  33.054   0.259  0.00  0.00    -0.092 A 
ATOM      7  C   UNL     1      44.234  33.330   1.537  0.00  0.00    +0.054 A 
ATOM      8  C   UNL     1      45.434  34.014   1.634  0.00  0.00    +0.029 A 
ATOM      9  C   UNL     1      46.129  34.415   0.482  0.00  0.00    +0.036 A 
ATOM     10  O   UNL     1      47.262  35.052   0.856  0.00  0.00    -0.305 OA
ATOM     11  C   UNL     1      47.070  35.394   2.246  0.00  0.00    +0.431 C 
ATOM     12  C   UNL     1      45.631  34.140  -0.779  0.00  0.00    +0.040 A 
ATOM     13  O   UNL     1      46.132  34.407   2.724  0.00  0.00    -0.305 OA
ATOM     14  C   UNL     1      44.415  33.456  -0.871  0.00  0.00    -0.062 A 
ATOM     15  C   UNL     1      43.881  33.206  -2.250  0.00  0.00    +0.053 C 
ATOM     16  C   UNL     1      42.542  32.519  -2.281  0.00  0.00    +0.233 C 
ATOM     17  C   UNL     1      42.549  31.089   1.104  0.00  0.00    -0.109 C 
ATOM     18  C   UNL     1      42.300  31.185   2.552  0.00  0.00    +0.050 C 
ATOM     19  C   UNL     1      42.839  30.019   0.384  0.00  0.00    +0.007 C 
ATOM     20  C   UNL     1      42.920  30.424  -1.077  0.00  0.00    +0.224 C 
ATOM     21  N   UNL     1      42.209  31.723  -1.138  0.00  0.00    -0.521 NA
ATOM     22  C   UNL     1      41.723  32.291   3.000  0.00  0.00    -0.052 C 
ENDROOT
BRANCH   3   2
ATOM      1  C   UNL     1      39.071  33.901   1.509  0.00  0.00    +0.201 C 
ATOM      2  O   UNL     1      40.047  33.901   2.553  0.00  0.00    -0.377 OA
ENDBRANCH   3   2
TORSDOF 1
ENDMDL
MODEL 6
REMARK VINA RESULT:      -5.4      2.362      4.504
REMARK  Name = ZINC53194131
REMARK  2 active torsions:
REMARK  status: ('A' for Active; 'I' for Inactive)
REMARK    1  A    between atoms: C1_1  and  O1_2
REMARK    2  A    between atoms: O1_2  and  C2_3
REMARK                            x       y       z     vdW  Elec       q    Type
REMARK                         _______ _______ _______ _____ _____    ______ ____
ROOT
ATOM      3  C   UNL     1      45.558  15.902  19.180  0.00  0.00    +0.194 C 
ATOM      4  C   UNL     1      46.774  16.802  19.114  0.00  0.00    +0.071 C 
ATOM      5  C   UNL     1      46.737  17.919  20.141  0.00  0.00    +0.199 C 
ATOM      6  C   UNL     1      45.658  18.914  19.803  0.00  0.00    -0.092 A 
ATOM      7  C   UNL     1      44.337  18.487  19.954  0.00  0.00    +0.054 A 
ATOM      8  C   UNL     1      43.327  19.388  19.664  0.00  0.00    +0.029 A 
ATOM      9  C   UNL     1      43.626  20.690  19.232  0.00  0.00    +0.036 A 
ATOM     10  O   UNL     1      42.469  21.358  19.026  0.00  0.00    -0.305 OA
ATOM     11  C   UNL     1      41.446  20.342  18.952  0.00  0.00    +0.431 C 
ATOM     12  C   UNL     1      44.938  21.103  19.081  0.00  0.00    +0.040 A 
ATOM     13  O   UNL     1      41.983  19.246  19.722  0.00  0.00    -0.305 OA
ATOM     14  C   UNL     1      45.954  20.186  19.368  0.00  0.00    -0.062 A 
ATOM     15  C   UNL     1      47.365  20.650  19.159  0.00  0.00    +0.053 C 
ATOM     16  C   UNL     1      48.409  19.600  19.429  0.00  0.00    +0.233 C 
ATOM     17  C   UNL     1      46.409  17.315  21.499  0.00  0.00    -0.109 C 
ATOM     18  C   UNL     1      45.460  16.199  21.652  0.00  0.00    +0.050 C 
ATOM     19  C   UNL     1      47.131  17.920  22.427  0.00  0.00    +0.007 C 
ATOM     20  C   UNL     1      48.017  18.954  21.755  0.00  0.00    +0.224 C 
ATOM     21  N   UNL     1      48.037  18.550  20.330  0.00  0.00    -0.521 NA
ATOM     22  C   UNL     1      45.095  15.555  20.553  0.00  0.00    -0.052 C 
ENDROOT
BRANCH   3   2
ATOM      1  C   UNL     1      45.344  13.516  19.120  0.00  0.00    +0.201 C 
ATOM      2  O   UNL     1      45.860  14.689  18.488  0.00  0.00    -0.377 OA
ENDBRANCH   3   2
TORSDOF 1
ENDMDL
MODEL 7
REMARK VINA RESULT:      -5.3      3.253      6.456
REMARK  Name = ZINC53194131
REMARK  2 active torsions:
REMARK  status: ('A' for Active; 'I' for Inactive)
REMARK    1  A    between atoms: C1_1  and  O1_2
REMARK    2  A    between atoms: O1_2  and  C2_3
REMARK                            x       y       z     vdW  Elec       q    Type
REMARK                         _______ _______ _______ _____ _____    ______ ____
ROOT
ATOM      3  C   UNL     1      46.475  20.962  19.072  0.00  0.00    +0.194 C 
ATOM      4  C   UNL     1      46.028  19.599  18.588  0.00  0.00    +0.071 C 
ATOM      5  C   UNL     1      46.898  18.472  19.115  0.00  0.00    +0.199 C 
ATOM      6  C   UNL     1      48.271  18.530  18.499  0.00  0.00    -0.092 A 
ATOM      7  C   UNL     1      49.092  19.589  18.891  0.00  0.00    +0.054 A 
ATOM      8  C   UNL     1      50.365  19.656  18.350  0.00  0.00    +0.029 A 
ATOM      9  C   UNL     1      50.811  18.688  17.438  0.00  0.00    +0.036 A 
ATOM     10  O   UNL     1      52.080  18.983  17.073  0.00  0.00    -0.305 OA
ATOM     11  C   UNL     1      52.280  20.359  17.460  0.00  0.00    +0.431 C 
ATOM     12  C   UNL     1      49.989  17.644  17.052  0.00  0.00    +0.040 A 
ATOM     13  O   UNL     1      51.355  20.557  18.549  0.00  0.00    -0.305 OA
ATOM     14  C   UNL     1      48.702  17.586  17.596  0.00  0.00    -0.062 A 
ATOM     15  C   UNL     1      47.820  16.465  17.130  0.00  0.00    +0.053 C 
ATOM     16  C   UNL     1      46.430  16.491  17.707  0.00  0.00    +0.233 C 
ATOM     17  C   UNL     1      47.051  18.644  20.619  0.00  0.00    -0.109 C 
ATOM     18  C   UNL     1      47.175  19.969  21.248  0.00  0.00    +0.050 C 
ATOM     19  C   UNL     1      47.002  17.455  21.197  0.00  0.00    +0.007 C 
ATOM     20  C   UNL     1      46.784  16.403  20.124  0.00  0.00    +0.224 C 
ATOM     21  N   UNL     1      46.273  17.163  18.961  0.00  0.00    -0.521 NA
ATOM     22  C   UNL     1      46.887  21.027  20.503  0.00  0.00    -0.052 C 
ENDROOT
BRANCH   3   2
ATOM      1  C   UNL     1      44.195  21.524  19.550  0.00  0.00    +0.201 C 
ATOM      2  O   UNL     1      45.401  21.883  18.873  0.00  0.00    -0.377 OA
ENDBRANCH   3   2
TORSDOF 1
ENDMDL
MODEL 8
REMARK VINA RESULT:      -5.3      2.472      3.606
REMARK  Name = ZINC53194131
REMARK  2 active torsions:
REMARK  status: ('A' for Active; 'I' for Inactive)
REMARK    1  A    between atoms: C1_1  and  O1_2
REMARK    2  A    between atoms: O1_2  and  C2_3
REMARK                            x       y       z     vdW  Elec       q    Type
REMARK                         _______ _______ _______ _____ _____    ______ ____
ROOT
ATOM      3  C   UNL     1      48.173  17.491  18.719  0.00  0.00    +0.194 C 
ATOM      4  C   UNL     1      47.903  16.519  19.848  0.00  0.00    +0.071 C 
ATOM      5  C   UNL     1      46.536  15.865  19.747  0.00  0.00    +0.199 C 
ATOM      6  C   UNL     1      45.447  16.872  20.004  0.00  0.00    -0.092 A 
ATOM      7  C   UNL     1      45.250  17.850  19.027  0.00  0.00    +0.054 A 
ATOM      8  C   UNL     1      44.244  18.779  19.232  0.00  0.00    +0.029 A 
ATOM      9  C   UNL     1      43.449  18.734  20.388  0.00  0.00    +0.036 A 
ATOM     10  O   UNL     1      42.548  19.741  20.337  0.00  0.00    -0.305 OA
ATOM     11  C   UNL     1      43.044  20.651  19.332  0.00  0.00    +0.431 C 
ATOM     12  C   UNL     1      43.654  17.764  21.353  0.00  0.00    +0.040 A 
ATOM     13  O   UNL     1      43.840  19.816  18.465  0.00  0.00    -0.305 OA
ATOM     14  C   UNL     1      44.676  16.833  21.143  0.00  0.00    -0.062 A 
ATOM     15  C   UNL     1      44.899  15.817  22.224  0.00  0.00    +0.053 C 
ATOM     16  C   UNL     1      46.050  14.882  21.966  0.00  0.00    +0.233 C 
ATOM     17  C   UNL     1      46.359  15.333  18.333  0.00  0.00    -0.109 C 
ATOM     18  C   UNL     1      46.874  16.051  17.155  0.00  0.00    +0.050 C 
ATOM     19  C   UNL     1      45.743  14.164  18.385  0.00  0.00    +0.007 C 
ATOM     20  C   UNL     1      45.487  13.815  19.840  0.00  0.00    +0.224 C 
ATOM     21  N   UNL     1      46.416  14.686  20.596  0.00  0.00    -0.521 NA
ATOM     22  C   UNL     1      47.727  17.043  17.370  0.00  0.00    -0.052 C 
ENDROOT
BRANCH   3   2
ATOM      1  C   UNL     1      50.095  17.885  17.343  0.00  0.00    +0.201 C 
ATOM      2  O   UNL     1      49.580  17.737  18.667  0.00  0.00    -0.377 OA
ENDBRANCH   3   2
TORSDOF 1
ENDMDL
MODEL 9
REMARK VINA RESULT:      -5.2      4.304      6.228
REMARK  Name = ZINC53194131
REMARK  2 active torsions:
REMARK  status: ('A' for Active; 'I' for Inactive)
REMARK    1  A    between atoms: C1_1  and  O1_2
REMARK    2  A    between atoms: O1_2  and  C2_3
REMARK                            x       y       z     vdW  Elec       q    Type
REMARK                         _______ _______ _______ _____ _____    ______ ____
ROOT
ATOM      3  C   UNL     1      51.070  20.397  17.716  0.00  0.00    +0.194 C 
ATOM      4  C   UNL     1      51.584  20.748  19.096  0.00  0.00    +0.071 C 
ATOM      5  C   UNL     1      50.844  20.020  20.205  0.00  0.00    +0.199 C 
ATOM      6  C   UNL     1      49.430  20.524  20.317  0.00  0.00    -0.092 A 
ATOM      7  C   UNL     1      48.560  20.197  19.274  0.00  0.00    +0.054 A 
ATOM      8  C   UNL     1      47.250  20.636  19.362  0.00  0.00    +0.029 A 
ATOM      9  C   UNL     1      46.814  21.385  20.465  0.00  0.00    +0.036 A 
ATOM     10  O   UNL     1      45.504  21.678  20.304  0.00  0.00    -0.305 OA
ATOM     11  C   UNL     1      45.226  21.445  18.907  0.00  0.00    +0.431 C 
ATOM     12  C   UNL     1      47.684  21.708  21.492  0.00  0.00    +0.040 A 
ATOM     13  O   UNL     1      46.211  20.467  18.512  0.00  0.00    -0.305 OA
ATOM     14  C   UNL     1      49.008  21.268  21.394  0.00  0.00    -0.062 A 
ATOM     15  C   UNL     1      49.937  21.666  22.503  0.00  0.00    +0.053 C 
ATOM     16  C   UNL     1      51.359  21.213  22.311  0.00  0.00    +0.233 C 
ATOM     17  C   UNL     1      50.789  18.540  19.855  0.00  0.00    -0.109 C 
ATOM     18  C   UNL     1      50.609  18.068  18.472  0.00  0.00    +0.050 C 
ATOM     19  C   UNL     1      50.971  17.829  20.955  0.00  0.00    +0.007 C 
ATOM     20  C   UNL     1      51.189  18.781  22.117  0.00  0.00    +0.224 C 
ATOM     21  N   UNL     1      51.555  20.066  21.477  0.00  0.00    -0.521 NA
ATOM     22  C   UNL     1      50.760  18.956  17.500  0.00  0.00    -0.052 C 
ENDROOT
BRANCH   3   2
ATOM      1  C   UNL     1      52.039  20.018  15.558  0.00  0.00    +0.201 C 
ATOM      2  O   UNL     1      52.053  20.793  16.758  0.00  0.00    -0.377 OA
ENDBRANCH   3   2
TORSDOF 1
ENDMDL
