MODEL 1
REMARK VINA RESULT:      -6.7      0.000      0.000
REMARK  Name = ZINC01618678
REMARK  10 active torsions:
REMARK  status: ('A' for Active; 'I' for Inactive)
REMARK    1  A    between atoms: C1_1  and  C2_2
REMARK    2  A    between atoms: C2_2  and  C25_31
REMARK    3  A    between atoms: C3_3  and  C4_4
REMARK    4  A    between atoms: C4_4  and  C5_5
REMARK    5  A    between atoms: C6_6  and  O4_30
REMARK    6  A    between atoms: C18_22  and  O3_29
REMARK    7  A    between atoms: C19_23  and  C20_24
REMARK    8  A    between atoms: C20_24  and  C21_25
REMARK    9  A    between atoms: C22_26  and  C23_27
REMARK   10  A    between atoms: C22_26  and  C24_28
REMARK                            x       y       z     vdW  Elec       q    Type
REMARK                         _______ _______ _______ _____ _____    ______ ____
ROOT
ATOM      6  C   UNL     1      49.962  17.466  17.883  0.00  0.00    -0.107 A 
ATOM      7  C   UNL     1      50.040  16.190  17.331  0.00  0.00    +0.144 A 
ATOM     10  C   UNL     1      48.925  15.378  17.219  0.00  0.00    -0.033 A 
ATOM     11  C   UNL     1      47.672  15.807  17.638  0.00  0.00    +0.089 A 
ATOM     12  C   UNL     1      47.582  17.072  18.174  0.00  0.00    -0.161 A 
ATOM     13  C   UNL     1      46.447  17.869  18.697  0.00  0.00    -0.015 C 
ATOM     14  C   UNL     1      45.376  17.203  19.525  0.00  0.00    +0.274 C 
ATOM     15  O   UNL     1      44.625  18.206  20.219  0.00  0.00    -0.316 OA
ATOM     16  C   UNL     1      44.921  19.524  20.124  0.00  0.00    +0.163 A 
ATOM     17  C   UNL     1      46.234  19.949  19.871  0.00  0.00    -0.167 A 
ATOM     18  C   UNL     1      46.553  21.280  19.828  0.00  0.00    +0.087 A 
ATOM     19  C   UNL     1      45.566  22.232  20.022  0.00  0.00    -0.035 A 
ATOM     20  C   UNL     1      44.259  21.830  20.257  0.00  0.00    +0.147 A 
ATOM     23  C   UNL     1      43.937  20.483  20.308  0.00  0.00    -0.128 A 
ATOM     29  C   UNL     1      47.214  18.843  19.658  0.00  0.00    +0.226 C 
ATOM     30  O   UNL     1      48.382  19.094  18.887  0.00  0.00    -0.276 OA
ATOM     31  C   UNL     1      48.714  17.906  18.307  0.00  0.00    +0.116 A 
ENDROOT
BRANCH   7   8
ATOM      8  O   UNL     1      51.241  15.729  16.896  0.00  0.00    -0.491 OA
ATOM      9  H   UNL     1      51.192  15.200  16.089  0.00  0.00    +0.392 HD
ENDBRANCH   7   8
BRANCH  20  21
ATOM     21  O   UNL     1      43.288  22.763  20.438  0.00  0.00    -0.491 OA
ATOM     22  H   UNL     1      42.708  22.881  19.673  0.00  0.00    +0.394 HD
ENDBRANCH  20  21
BRANCH   6   5
ATOM      5  C   UNL     1      51.184  18.339  18.010  0.00  0.00    +0.129 C 
BRANCH   5   4
ATOM      1  C   UNL     1      51.504  21.517  15.879  0.00  0.00    +0.073 C 
ATOM      2  C   UNL     1      51.390  20.573  17.048  0.00  0.00    -0.128 C 
ATOM      3  C   UNL     1      51.441  21.108  18.455  0.00  0.00    +0.076 C 
ATOM      4  C   UNL     1      51.249  19.288  16.841  0.00  0.00    -0.054 C 
ENDBRANCH   5   4
ENDBRANCH   6   5
BRANCH  23  24
ATOM     24  C   UNL     1      42.514  20.060  20.563  0.00  0.00    +0.130 C 
BRANCH  24  25
ATOM     25  C   UNL     1      41.960  19.391  19.332  0.00  0.00    -0.058 C 
ATOM     26  C   UNL     1      40.958  19.934  18.684  0.00  0.00    -0.125 C 
ATOM     27  C   UNL     1      40.491  19.339  17.382  0.00  0.00    +0.071 C 
ATOM     28  C   UNL     1      40.274  21.155  19.244  0.00  0.00    +0.076 C 
ENDBRANCH  24  25
ENDBRANCH  23  24
TORSDOF 6
ENDMDL
MODEL 2
REMARK VINA RESULT:      -6.7      4.682      7.255
REMARK  Name = ZINC01618678
REMARK  10 active torsions:
REMARK  status: ('A' for Active; 'I' for Inactive)
REMARK    1  A    between atoms: C1_1  and  C2_2
REMARK    2  A    between atoms: C2_2  and  C25_31
REMARK    3  A    between atoms: C3_3  and  C4_4
REMARK    4  A    between atoms: C4_4  and  C5_5
REMARK    5  A    between atoms: C6_6  and  O4_30
REMARK    6  A    between atoms: C18_22  and  O3_29
REMARK    7  A    between atoms: C19_23  and  C20_24
REMARK    8  A    between atoms: C20_24  and  C21_25
REMARK    9  A    between atoms: C22_26  and  C23_27
REMARK   10  A    between atoms: C22_26  and  C24_28
REMARK                            x       y       z     vdW  Elec       q    Type
REMARK                         _______ _______ _______ _____ _____    ______ ____
ROOT
ATOM      6  C   UNL     1      49.228  13.129  16.592  0.00  0.00    -0.107 A 
ATOM      7  C   UNL     1      48.135  12.514  17.197  0.00  0.00    +0.144 A 
ATOM     10  C   UNL     1      47.302  13.201  18.063  0.00  0.00    -0.033 A 
ATOM     11  C   UNL     1      47.511  14.543  18.355  0.00  0.00    +0.089 A 
ATOM     12  C   UNL     1      48.582  15.163  17.753  0.00  0.00    -0.161 A 
ATOM     13  C   UNL     1      49.101  16.551  17.798  0.00  0.00    -0.015 C 
ATOM     14  C   UNL     1      49.111  17.311  19.101  0.00  0.00    +0.274 C 
ATOM     15  O   UNL     1      49.983  18.441  18.981  0.00  0.00    -0.316 OA
ATOM     16  C   UNL     1      50.687  18.693  17.852  0.00  0.00    +0.163 A 
ATOM     17  C   UNL     1      51.079  17.648  17.001  0.00  0.00    -0.167 A 
ATOM     18  C   UNL     1      51.837  17.888  15.886  0.00  0.00    +0.087 A 
ATOM     19  C   UNL     1      52.216  19.184  15.575  0.00  0.00    -0.035 A 
ATOM     20  C   UNL     1      51.822  20.231  16.396  0.00  0.00    +0.147 A 
ATOM     23  C   UNL     1      51.062  19.988  17.528  0.00  0.00    -0.128 A 
ATOM     29  C   UNL     1      50.601  16.297  17.417  0.00  0.00    +0.226 C 
ATOM     30  O   UNL     1      50.445  15.285  16.431  0.00  0.00    -0.276 OA
ATOM     31  C   UNL     1      49.448  14.470  16.879  0.00  0.00    +0.116 A 
ENDROOT
BRANCH   7   8
ATOM      8  O   UNL     1      47.883  11.206  16.933  0.00  0.00    -0.491 OA
ATOM      9  H   UNL     1      48.234  10.899  16.087  0.00  0.00    +0.392 HD
ENDBRANCH   7   8
BRANCH  20  21
ATOM     21  O   UNL     1      52.186  21.503  16.088  0.00  0.00    -0.491 OA
ATOM     22  H   UNL     1      52.598  21.595  15.217  0.00  0.00    +0.394 HD
ENDBRANCH  20  21
BRANCH   6   5
ATOM      5  C   UNL     1      50.136  12.369  15.659  0.00  0.00    +0.129 C 
BRANCH   5   4
ATOM      1  C   UNL     1      50.082  13.240  11.920  0.00  0.00    +0.073 C 
ATOM      2  C   UNL     1      50.516  13.074  13.354  0.00  0.00    -0.128 C 
ATOM      3  C   UNL     1      51.908  13.475  13.769  0.00  0.00    +0.076 C 
ATOM      4  C   UNL     1      49.685  12.581  14.236  0.00  0.00    -0.054 C 
ENDBRANCH   5   4
ENDBRANCH   6   5
BRANCH  23  24
ATOM     24  C   UNL     1      50.642  21.134  18.412  0.00  0.00    +0.130 C 
BRANCH  24  25
ATOM     25  C   UNL     1      51.709  21.391  19.443  0.00  0.00    -0.058 C 
ATOM     26  C   UNL     1      51.448  21.217  20.716  0.00  0.00    -0.125 C 
ATOM     27  C   UNL     1      52.548  21.345  21.736  0.00  0.00    +0.071 C 
ATOM     28  C   UNL     1      50.044  20.889  21.157  0.00  0.00    +0.076 C 
ENDBRANCH  24  25
ENDBRANCH  23  24
TORSDOF 6
ENDMDL
MODEL 3
REMARK VINA RESULT:      -6.7      3.015      7.724
REMARK  Name = ZINC01618678
REMARK  10 active torsions:
REMARK  status: ('A' for Active; 'I' for Inactive)
REMARK    1  A    between atoms: C1_1  and  C2_2
REMARK    2  A    between atoms: C2_2  and  C25_31
REMARK    3  A    between atoms: C3_3  and  C4_4
REMARK    4  A    between atoms: C4_4  and  C5_5
REMARK    5  A    between atoms: C6_6  and  O4_30
REMARK    6  A    between atoms: C18_22  and  O3_29
REMARK    7  A    between atoms: C19_23  and  C20_24
REMARK    8  A    between atoms: C20_24  and  C21_25
REMARK    9  A    between atoms: C22_26  and  C23_27
REMARK   10  A    between atoms: C22_26  and  C24_28
REMARK                            x       y       z     vdW  Elec       q    Type
REMARK                         _______ _______ _______ _____ _____    ______ ____
ROOT
ATOM      6  C   UNL     1      50.374  19.956  18.838  0.00  0.00    -0.107 A 
ATOM      7  C   UNL     1      51.516  20.660  18.465  0.00  0.00    +0.144 A 
ATOM     10  C   UNL     1      52.417  20.149  17.547  0.00  0.00    -0.033 A 
ATOM     11  C   UNL     1      52.214  18.915  16.943  0.00  0.00    +0.089 A 
ATOM     12  C   UNL     1      51.081  18.217  17.295  0.00  0.00    -0.161 A 
ATOM     13  C   UNL     1      50.522  16.914  16.862  0.00  0.00    -0.015 C 
ATOM     14  C   UNL     1      51.441  15.740  16.628  0.00  0.00    +0.274 C 
ATOM     15  O   UNL     1      50.667  14.535  16.599  0.00  0.00    -0.316 OA
ATOM     16  C   UNL     1      49.328  14.532  16.800  0.00  0.00    +0.163 A 
ATOM     17  C   UNL     1      48.719  15.515  17.596  0.00  0.00    -0.167 A 
ATOM     18  C   UNL     1      47.374  15.488  17.851  0.00  0.00    +0.087 A 
ATOM     19  C   UNL     1      46.589  14.485  17.305  0.00  0.00    -0.035 A 
ATOM     20  C   UNL     1      47.171  13.515  16.502  0.00  0.00    +0.147 A 
ATOM     23  C   UNL     1      48.534  13.538  16.251  0.00  0.00    -0.128 A 
ATOM     29  C   UNL     1      49.652  16.557  18.117  0.00  0.00    +0.226 C 
ATOM     30  O   UNL     1      49.138  17.841  18.445  0.00  0.00    -0.276 OA
ATOM     31  C   UNL     1      50.161  18.720  18.241  0.00  0.00    +0.116 A 
ENDROOT
BRANCH   7   8
ATOM      8  O   UNL     1      51.754  21.877  19.020  0.00  0.00    -0.491 OA
ATOM      9  H   UNL     1      52.304  22.458  18.477  0.00  0.00    +0.392 HD
ENDBRANCH   7   8
BRANCH  20  21
ATOM     21  O   UNL     1      46.401  12.536  15.959  0.00  0.00    -0.491 OA
ATOM     22  H   UNL     1      45.798  12.848  15.269  0.00  0.00    +0.394 HD
ENDBRANCH  20  21
BRANCH   6   5
ATOM      5  C   UNL     1      49.405  20.517  19.846  0.00  0.00    +0.129 C 
BRANCH   5   4
ATOM      1  C   UNL     1      45.780  21.160  18.755  0.00  0.00    +0.073 C 
ATOM      2  C   UNL     1      47.000  20.592  19.433  0.00  0.00    -0.128 C 
ATOM      3  C   UNL     1      46.851  19.497  20.457  0.00  0.00    +0.076 C 
ATOM      4  C   UNL     1      48.189  21.051  19.133  0.00  0.00    -0.054 C 
ENDBRANCH   5   4
ENDBRANCH   6   5
BRANCH  23  24
ATOM     24  C   UNL     1      49.154  12.478  15.377  0.00  0.00    +0.130 C 
BRANCH  24  25
ATOM     25  C   UNL     1      49.063  12.901  13.933  0.00  0.00    -0.058 C 
ATOM     26  C   UNL     1      50.146  12.967  13.199  0.00  0.00    -0.125 C 
ATOM     27  C   UNL     1      50.042  13.261  11.726  0.00  0.00    +0.071 C 
ATOM     28  C   UNL     1      51.498  12.750  13.831  0.00  0.00    +0.076 C 
ENDBRANCH  24  25
ENDBRANCH  23  24
TORSDOF 6
ENDMDL
MODEL 4
REMARK VINA RESULT:      -6.4      1.654      2.267
REMARK  Name = ZINC01618678
REMARK  10 active torsions:
REMARK  status: ('A' for Active; 'I' for Inactive)
REMARK    1  A    between atoms: C1_1  and  C2_2
REMARK    2  A    between atoms: C2_2  and  C25_31
REMARK    3  A    between atoms: C3_3  and  C4_4
REMARK    4  A    between atoms: C4_4  and  C5_5
REMARK    5  A    between atoms: C6_6  and  O4_30
REMARK    6  A    between atoms: C18_22  and  O3_29
REMARK    7  A    between atoms: C19_23  and  C20_24
REMARK    8  A    between atoms: C20_24  and  C21_25
REMARK    9  A    between atoms: C22_26  and  C23_27
REMARK   10  A    between atoms: C22_26  and  C24_28
REMARK                            x       y       z     vdW  Elec       q    Type
REMARK                         _______ _______ _______ _____ _____    ______ ____
ROOT
ATOM      6  C   UNL     1      50.986  18.870  18.256  0.00  0.00    -0.107 A 
ATOM      7  C   UNL     1      51.103  17.821  17.349  0.00  0.00    +0.144 A 
ATOM     10  C   UNL     1      50.004  17.082  16.947  0.00  0.00    -0.033 A 
ATOM     11  C   UNL     1      48.729  17.367  17.417  0.00  0.00    +0.089 A 
ATOM     12  C   UNL     1      48.600  18.412  18.304  0.00  0.00    -0.161 A 
ATOM     13  C   UNL     1      47.433  19.016  18.990  0.00  0.00    -0.015 C 
ATOM     14  C   UNL     1      46.335  18.133  19.529  0.00  0.00    +0.274 C 
ATOM     15  O   UNL     1      45.541  18.882  20.457  0.00  0.00    -0.316 OA
ATOM     16  C   UNL     1      45.825  20.167  20.777  0.00  0.00    +0.163 A 
ATOM     17  C   UNL     1      47.144  20.646  20.725  0.00  0.00    -0.167 A 
ATOM     18  C   UNL     1      47.448  21.927  21.100  0.00  0.00    +0.087 A 
ATOM     19  C   UNL     1      46.441  22.778  21.526  0.00  0.00    -0.035 A 
ATOM     20  C   UNL     1      45.130  22.327  21.568  0.00  0.00    +0.147 A 
ATOM     23  C   UNL     1      44.823  21.028  21.196  0.00  0.00    -0.128 A 
ATOM     29  C   UNL     1      48.145  19.653  20.234  0.00  0.00    +0.226 C 
ATOM     30  O   UNL     1      49.343  20.123  19.630  0.00  0.00    -0.276 OA
ATOM     31  C   UNL     1      49.715  19.164  18.734  0.00  0.00    +0.116 A 
ENDROOT
BRANCH   7   8
ATOM      8  O   UNL     1      52.329  17.510  16.852  0.00  0.00    -0.491 OA
ATOM      9  H   UNL     1      52.862  18.278  16.609  0.00  0.00    +0.392 HD
ENDBRANCH   7   8
BRANCH  20  21
ATOM     21  O   UNL     1      44.141  23.163  21.977  0.00  0.00    -0.491 OA
ATOM     22  H   UNL     1      43.287  23.001  21.551  0.00  0.00    +0.394 HD
ENDBRANCH  20  21
BRANCH   6   5
ATOM      5  C   UNL     1      52.191  19.662  18.696  0.00  0.00    +0.129 C 
BRANCH   5   4
ATOM      1  C   UNL     1      52.660  20.417  22.432  0.00  0.00    +0.073 C 
ATOM      2  C   UNL     1      52.524  20.568  20.938  0.00  0.00    -0.128 C 
ATOM      3  C   UNL     1      52.554  21.939  20.315  0.00  0.00    +0.076 C 
ATOM      4  C   UNL     1      52.377  19.508  20.184  0.00  0.00    -0.054 C 
ENDBRANCH   5   4
ENDBRANCH   6   5
BRANCH  23  24
ATOM     24  C   UNL     1      43.395  20.550  21.246  0.00  0.00    +0.130 C 
BRANCH  24  25
ATOM     25  C   UNL     1      42.812  20.562  19.856  0.00  0.00    -0.058 C 
ATOM     26  C   UNL     1      41.688  19.935  19.611  0.00  0.00    -0.125 C 
ATOM     27  C   UNL     1      41.037  20.056  18.258  0.00  0.00    +0.071 C 
ATOM     28  C   UNL     1      41.047  19.091  20.683  0.00  0.00    +0.076 C 
ENDBRANCH  24  25
ENDBRANCH  23  24
TORSDOF 6
ENDMDL
MODEL 5
REMARK VINA RESULT:      -6.4      2.086      7.944
REMARK  Name = ZINC01618678
REMARK  10 active torsions:
REMARK  status: ('A' for Active; 'I' for Inactive)
REMARK    1  A    between atoms: C1_1  and  C2_2
REMARK    2  A    between atoms: C2_2  and  C25_31
REMARK    3  A    between atoms: C3_3  and  C4_4
REMARK    4  A    between atoms: C4_4  and  C5_5
REMARK    5  A    between atoms: C6_6  and  O4_30
REMARK    6  A    between atoms: C18_22  and  O3_29
REMARK    7  A    between atoms: C19_23  and  C20_24
REMARK    8  A    between atoms: C20_24  and  C21_25
REMARK    9  A    between atoms: C22_26  and  C23_27
REMARK   10  A    between atoms: C22_26  and  C24_28
REMARK                            x       y       z     vdW  Elec       q    Type
REMARK                         _______ _______ _______ _____ _____    ______ ____
ROOT
ATOM      6  C   UNL     1      44.404  18.112  21.260  0.00  0.00    -0.107 A 
ATOM      7  C   UNL     1      43.931  16.906  21.769  0.00  0.00    +0.144 A 
ATOM     10  C   UNL     1      44.675  15.742  21.689  0.00  0.00    -0.033 A 
ATOM     11  C   UNL     1      45.937  15.728  21.110  0.00  0.00    +0.089 A 
ATOM     12  C   UNL     1      46.420  16.918  20.614  0.00  0.00    -0.161 A 
ATOM     13  C   UNL     1      47.696  17.297  19.963  0.00  0.00    -0.015 C 
ATOM     14  C   UNL     1      48.339  16.367  18.965  0.00  0.00    +0.274 C 
ATOM     15  O   UNL     1      49.317  17.090  18.208  0.00  0.00    -0.316 OA
ATOM     16  C   UNL     1      49.539  18.413  18.394  0.00  0.00    +0.163 A 
ATOM     17  C   UNL     1      48.514  19.257  18.849  0.00  0.00    -0.167 A 
ATOM     18  C   UNL     1      48.714  20.605  18.987  0.00  0.00    +0.087 A 
ATOM     19  C   UNL     1      49.950  21.153  18.688  0.00  0.00    -0.035 A 
ATOM     20  C   UNL     1      50.980  20.331  18.253  0.00  0.00    +0.147 A 
ATOM     23  C   UNL     1      50.776  18.969  18.106  0.00  0.00    -0.128 A 
ATOM     29  C   UNL     1      47.231  18.562  19.160  0.00  0.00    +0.226 C 
ATOM     30  O   UNL     1      46.339  19.146  20.100  0.00  0.00    -0.276 OA
ATOM     31  C   UNL     1      45.665  18.111  20.677  0.00  0.00    +0.116 A 
ENDROOT
BRANCH   7   8
ATOM      8  O   UNL     1      42.706  16.871  22.355  0.00  0.00    -0.491 OA
ATOM      9  H   UNL     1      42.309  15.990  22.385  0.00  0.00    +0.392 HD
ENDBRANCH   7   8
BRANCH  20  21
ATOM     21  O   UNL     1      52.197  20.866  17.969  0.00  0.00    -0.491 OA
ATOM     22  H   UNL     1      52.492  20.711  17.060  0.00  0.00    +0.394 HD
ENDBRANCH  20  21
BRANCH   6   5
ATOM      5  C   UNL     1      43.582  19.373  21.343  0.00  0.00    +0.129 C 
BRANCH   5   4
ATOM      1  C   UNL     1      41.033  19.945  18.529  0.00  0.00    +0.073 C 
ATOM      2  C   UNL     1      41.659  19.613  19.859  0.00  0.00    -0.128 C 
ATOM      3  C   UNL     1      40.787  19.232  21.027  0.00  0.00    +0.076 C 
ATOM      4  C   UNL     1      42.960  19.657  20.000  0.00  0.00    -0.054 C 
ENDBRANCH   5   4
ENDBRANCH   6   5
BRANCH  23  24
ATOM     24  C   UNL     1      51.903  18.087  17.633  0.00  0.00    +0.130 C 
BRANCH  24  25
ATOM     25  C   UNL     1      52.785  17.728  18.801  0.00  0.00    -0.058 C 
ATOM     26  C   UNL     1      52.982  16.471  19.112  0.00  0.00    -0.125 C 
ATOM     27  C   UNL     1      53.965  16.107  20.194  0.00  0.00    +0.071 C 
ATOM     28  C   UNL     1      52.222  15.388  18.387  0.00  0.00    +0.076 C 
ENDBRANCH  24  25
ENDBRANCH  23  24
TORSDOF 6
ENDMDL
MODEL 6
REMARK VINA RESULT:      -6.3      2.445      8.181
REMARK  Name = ZINC01618678
REMARK  10 active torsions:
REMARK  status: ('A' for Active; 'I' for Inactive)
REMARK    1  A    between atoms: C1_1  and  C2_2
REMARK    2  A    between atoms: C2_2  and  C25_31
REMARK    3  A    between atoms: C3_3  and  C4_4
REMARK    4  A    between atoms: C4_4  and  C5_5
REMARK    5  A    between atoms: C6_6  and  O4_30
REMARK    6  A    between atoms: C18_22  and  O3_29
REMARK    7  A    between atoms: C19_23  and  C20_24
REMARK    8  A    between atoms: C20_24  and  C21_25
REMARK    9  A    between atoms: C22_26  and  C23_27
REMARK   10  A    between atoms: C22_26  and  C24_28
REMARK                            x       y       z     vdW  Elec       q    Type
REMARK                         _______ _______ _______ _____ _____    ______ ____
ROOT
ATOM      6  C   UNL     1      43.375  18.784  20.658  0.00  0.00    -0.107 A 
ATOM      7  C   UNL     1      42.613  18.381  21.752  0.00  0.00    +0.144 A 
ATOM     10  C   UNL     1      42.851  17.182  22.401  0.00  0.00    -0.033 A 
ATOM     11  C   UNL     1      43.874  16.333  22.000  0.00  0.00    +0.089 A 
ATOM     12  C   UNL     1      44.641  16.728  20.927  0.00  0.00    -0.161 A 
ATOM     13  C   UNL     1      45.805  16.119  20.239  0.00  0.00    -0.015 C 
ATOM     14  C   UNL     1      45.846  14.630  20.003  0.00  0.00    +0.274 C 
ATOM     15  O   UNL     1      46.841  14.337  19.014  0.00  0.00    -0.316 OA
ATOM     16  C   UNL     1      47.560  15.309  18.404  0.00  0.00    +0.163 A 
ATOM     17  C   UNL     1      47.028  16.597  18.233  0.00  0.00    -0.167 A 
ATOM     18  C   UNL     1      47.726  17.570  17.569  0.00  0.00    +0.087 A 
ATOM     19  C   UNL     1      48.987  17.293  17.066  0.00  0.00    -0.035 A 
ATOM     20  C   UNL     1      49.536  16.031  17.242  0.00  0.00    +0.147 A 
ATOM     23  C   UNL     1      48.826  15.044  17.907  0.00  0.00    -0.128 A 
ATOM     29  C   UNL     1      45.673  16.792  18.829  0.00  0.00    +0.226 C 
ATOM     30  O   UNL     1      45.268  18.101  19.208  0.00  0.00    -0.276 OA
ATOM     31  C   UNL     1      44.400  17.942  20.247  0.00  0.00    +0.116 A 
ENDROOT
BRANCH   7   8
ATOM      8  O   UNL     1      41.608  19.183  22.189  0.00  0.00    -0.491 OA
ATOM      9  H   UNL     1      41.875  19.814  22.872  0.00  0.00    +0.392 HD
ENDBRANCH   7   8
BRANCH  20  21
ATOM     21  O   UNL     1      50.776  15.761  16.758  0.00  0.00    -0.491 OA
ATOM     22  H   UNL     1      51.223  16.527  16.372  0.00  0.00    +0.394 HD
ENDBRANCH  20  21
BRANCH   6   5
ATOM      5  C   UNL     1      43.101  20.087  19.952  0.00  0.00    +0.129 C 
BRANCH   5   4
ATOM      1  C   UNL     1      39.825  21.108  18.229  0.00  0.00    +0.073 C 
ATOM      2  C   UNL     1      41.189  21.150  18.869  0.00  0.00    -0.128 C 
ATOM      3  C   UNL     1      41.945  22.450  18.945  0.00  0.00    +0.076 C 
ATOM      4  C   UNL     1      41.717  20.056  19.357  0.00  0.00    -0.054 C 
ENDBRANCH   5   4
ENDBRANCH   6   5
BRANCH  23  24
ATOM     24  C   UNL     1      49.434  13.677  18.090  0.00  0.00    +0.130 C 
BRANCH  24  25
ATOM     25  C   UNL     1      49.227  12.864  16.839  0.00  0.00    -0.058 C 
ATOM     26  C   UNL     1      48.532  11.753  16.885  0.00  0.00    -0.125 C 
ATOM     27  C   UNL     1      48.214  11.010  15.614  0.00  0.00    +0.071 C 
ATOM     28  C   UNL     1      48.053  11.221  18.211  0.00  0.00    +0.076 C 
ENDBRANCH  24  25
ENDBRANCH  23  24
TORSDOF 6
ENDMDL
MODEL 7
REMARK VINA RESULT:      -6.3      3.617      6.413
REMARK  Name = ZINC01618678
REMARK  10 active torsions:
REMARK  status: ('A' for Active; 'I' for Inactive)
REMARK    1  A    between atoms: C1_1  and  C2_2
REMARK    2  A    between atoms: C2_2  and  C25_31
REMARK    3  A    between atoms: C3_3  and  C4_4
REMARK    4  A    between atoms: C4_4  and  C5_5
REMARK    5  A    between atoms: C6_6  and  O4_30
REMARK    6  A    between atoms: C18_22  and  O3_29
REMARK    7  A    between atoms: C19_23  and  C20_24
REMARK    8  A    between atoms: C20_24  and  C21_25
REMARK    9  A    between atoms: C22_26  and  C23_27
REMARK   10  A    between atoms: C22_26  and  C24_28
REMARK                            x       y       z     vdW  Elec       q    Type
REMARK                         _______ _______ _______ _____ _____    ______ ____
ROOT
ATOM      6  C   UNL     1      50.611  19.973  17.791  0.00  0.00    -0.107 A 
ATOM      7  C   UNL     1      51.666  20.112  16.893  0.00  0.00    +0.144 A 
ATOM     10  C   UNL     1      52.092  19.059  16.103  0.00  0.00    -0.033 A 
ATOM     11  C   UNL     1      51.473  17.817  16.158  0.00  0.00    +0.089 A 
ATOM     12  C   UNL     1      50.420  17.672  17.033  0.00  0.00    -0.161 A 
ATOM     13  C   UNL     1      49.520  16.538  17.351  0.00  0.00    -0.015 C 
ATOM     14  C   UNL     1      50.073  15.137  17.438  0.00  0.00    +0.274 C 
ATOM     15  O   UNL     1      49.129  14.299  18.115  0.00  0.00    -0.316 OA
ATOM     16  C   UNL     1      47.961  14.778  18.607  0.00  0.00    +0.163 A 
ATOM     17  C   UNL     1      47.850  16.116  19.019  0.00  0.00    -0.167 A 
ATOM     18  C   UNL     1      46.690  16.594  19.569  0.00  0.00    +0.087 A 
ATOM     19  C   UNL     1      45.597  15.755  19.712  0.00  0.00    -0.035 A 
ATOM     20  C   UNL     1      45.684  14.434  19.294  0.00  0.00    +0.147 A 
ATOM     23  C   UNL     1      46.860  13.948  18.745  0.00  0.00    -0.128 A 
ATOM     29  C   UNL     1      49.078  16.936  18.802  0.00  0.00    +0.226 C 
ATOM     30  O   UNL     1      48.950  18.343  18.653  0.00  0.00    -0.276 OA
ATOM     31  C   UNL     1      49.985  18.734  17.856  0.00  0.00    +0.116 A 
ENDROOT
BRANCH   7   8
ATOM      8  O   UNL     1      52.296  21.312  16.794  0.00  0.00    -0.491 OA
ATOM      9  H   UNL     1      52.869  21.519  17.545  0.00  0.00    +0.392 HD
ENDBRANCH   7   8
BRANCH  20  21
ATOM     21  O   UNL     1      44.610  13.612  19.425  0.00  0.00    -0.491 OA
ATOM     22  H   UNL     1      43.969  13.686  18.705  0.00  0.00    +0.394 HD
ENDBRANCH  20  21
BRANCH   6   5
ATOM      5  C   UNL     1      50.162  21.123  18.654  0.00  0.00    +0.129 C 
BRANCH   5   4
ATOM      1  C   UNL     1      50.407  20.618  22.453  0.00  0.00    +0.073 C 
ATOM      2  C   UNL     1      49.873  20.848  21.062  0.00  0.00    -0.128 C 
ATOM      3  C   UNL     1      48.388  20.966  20.837  0.00  0.00    +0.076 C 
ATOM      4  C   UNL     1      50.699  20.944  20.051  0.00  0.00    -0.054 C 
ENDBRANCH   5   4
ENDBRANCH   6   5
BRANCH  23  24
ATOM     24  C   UNL     1      46.942  12.512  18.296  0.00  0.00    +0.130 C 
BRANCH  24  25
ATOM     25  C   UNL     1      46.734  12.439  16.805  0.00  0.00    -0.058 C 
ATOM     26  C   UNL     1      47.577  11.769  16.058  0.00  0.00    -0.125 C 
ATOM     27  C   UNL     1      47.300  11.585  14.589  0.00  0.00    +0.071 C 
ATOM     28  C   UNL     1      48.824  11.182  16.669  0.00  0.00    +0.076 C 
ENDBRANCH  24  25
ENDBRANCH  23  24
TORSDOF 6
ENDMDL
MODEL 8
REMARK VINA RESULT:      -6.2      2.185      7.521
REMARK  Name = ZINC01618678
REMARK  10 active torsions:
REMARK  status: ('A' for Active; 'I' for Inactive)
REMARK    1  A    between atoms: C1_1  and  C2_2
REMARK    2  A    between atoms: C2_2  and  C25_31
REMARK    3  A    between atoms: C3_3  and  C4_4
REMARK    4  A    between atoms: C4_4  and  C5_5
REMARK    5  A    between atoms: C6_6  and  O4_30
REMARK    6  A    between atoms: C18_22  and  O3_29
REMARK    7  A    between atoms: C19_23  and  C20_24
REMARK    8  A    between atoms: C20_24  and  C21_25
REMARK    9  A    between atoms: C22_26  and  C23_27
REMARK   10  A    between atoms: C22_26  and  C24_28
REMARK                            x       y       z     vdW  Elec       q    Type
REMARK                         _______ _______ _______ _____ _____    ______ ____
ROOT
ATOM      6  C   UNL     1      44.650  20.170  21.021  0.00  0.00    -0.107 A 
ATOM      7  C   UNL     1      43.636  19.241  21.239  0.00  0.00    +0.144 A 
ATOM     10  C   UNL     1      43.759  17.923  20.837  0.00  0.00    -0.033 A 
ATOM     11  C   UNL     1      44.909  17.461  20.212  0.00  0.00    +0.089 A 
ATOM     12  C   UNL     1      45.924  18.368  20.002  0.00  0.00    -0.161 A 
ATOM     13  C   UNL     1      47.274  18.252  19.404  0.00  0.00    -0.015 C 
ATOM     14  C   UNL     1      47.484  17.400  18.176  0.00  0.00    +0.274 C 
ATOM     15  O   UNL     1      48.739  17.741  17.574  0.00  0.00    -0.316 OA
ATOM     16  C   UNL     1      49.535  18.719  18.070  0.00  0.00    +0.163 A 
ATOM     17  C   UNL     1      48.987  19.806  18.769  0.00  0.00    -0.167 A 
ATOM     18  C   UNL     1      49.777  20.827  19.225  0.00  0.00    +0.087 A 
ATOM     19  C   UNL     1      51.146  20.788  19.011  0.00  0.00    -0.035 A 
ATOM     20  C   UNL     1      51.706  19.712  18.336  0.00  0.00    +0.147 A 
ATOM     23  C   UNL     1      50.905  18.683  17.868  0.00  0.00    -0.128 A 
ATOM     29  C   UNL     1      47.508  19.738  18.961  0.00  0.00    +0.226 C 
ATOM     30  O   UNL     1      46.922  20.426  20.058  0.00  0.00    -0.276 OA
ATOM     31  C   UNL     1      45.805  19.720  20.394  0.00  0.00    +0.116 A 
ENDROOT
BRANCH   7   8
ATOM      8  O   UNL     1      42.494  19.642  21.857  0.00  0.00    -0.491 OA
ATOM      9  H   UNL     1      41.804  19.946  21.253  0.00  0.00    +0.392 HD
ENDBRANCH   7   8
BRANCH  20  21
ATOM     21  O   UNL     1      53.049  19.668  18.134  0.00  0.00    -0.491 OA
ATOM     22  H   UNL     1      53.424  20.495  17.798  0.00  0.00    +0.394 HD
ENDBRANCH  20  21
BRANCH   6   5
ATOM      5  C   UNL     1      44.502  21.606  21.452  0.00  0.00    +0.129 C 
BRANCH   5   4
ATOM      1  C   UNL     1      44.496  24.403  18.821  0.00  0.00    +0.073 C 
ATOM      2  C   UNL     1      44.805  23.576  20.043  0.00  0.00    -0.128 C 
ATOM      3  C   UNL     1      45.858  24.036  21.017  0.00  0.00    +0.076 C 
ATOM      4  C   UNL     1      44.158  22.458  20.257  0.00  0.00    -0.054 C 
ENDBRANCH   5   4
ENDBRANCH   6   5
BRANCH  23  24
ATOM     24  C   UNL     1      51.527  17.521  17.137  0.00  0.00    +0.130 C 
BRANCH  24  25
ATOM     25  C   UNL     1      51.951  16.471  18.131  0.00  0.00    -0.058 C 
ATOM     26  C   UNL     1      51.597  15.222  17.957  0.00  0.00    -0.125 C 
ATOM     27  C   UNL     1      52.128  14.152  18.875  0.00  0.00    +0.071 C 
ATOM     28  C   UNL     1      50.656  14.855  16.837  0.00  0.00    +0.076 C 
ENDBRANCH  24  25
ENDBRANCH  23  24
TORSDOF 6
ENDMDL
MODEL 9
REMARK VINA RESULT:      -5.9      2.445      7.971
REMARK  Name = ZINC01618678
REMARK  10 active torsions:
REMARK  status: ('A' for Active; 'I' for Inactive)
REMARK    1  A    between atoms: C1_1  and  C2_2
REMARK    2  A    between atoms: C2_2  and  C25_31
REMARK    3  A    between atoms: C3_3  and  C4_4
REMARK    4  A    between atoms: C4_4  and  C5_5
REMARK    5  A    between atoms: C6_6  and  O4_30
REMARK    6  A    between atoms: C18_22  and  O3_29
REMARK    7  A    between atoms: C19_23  and  C20_24
REMARK    8  A    between atoms: C20_24  and  C21_25
REMARK    9  A    between atoms: C22_26  and  C23_27
REMARK   10  A    between atoms: C22_26  and  C24_28
REMARK                            x       y       z     vdW  Elec       q    Type
REMARK                         _______ _______ _______ _____ _____    ______ ____
ROOT
ATOM      6  C   UNL     1      43.687  18.802  20.819  0.00  0.00    -0.107 A 
ATOM      7  C   UNL     1      42.855  18.345  21.837  0.00  0.00    +0.144 A 
ATOM     10  C   UNL     1      42.959  17.059  22.338  0.00  0.00    -0.033 A 
ATOM     11  C   UNL     1      43.913  16.170  21.858  0.00  0.00    +0.089 A 
ATOM     12  C   UNL     1      44.750  16.617  20.861  0.00  0.00    -0.161 A 
ATOM     13  C   UNL     1      45.875  15.988  20.130  0.00  0.00    -0.015 C 
ATOM     14  C   UNL     1      45.788  14.541  19.712  0.00  0.00    +0.274 C 
ATOM     15  O   UNL     1      46.785  14.276  18.718  0.00  0.00    -0.316 OA
ATOM     16  C   UNL     1      47.611  15.242  18.249  0.00  0.00    +0.163 A 
ATOM     17  C   UNL     1      47.205  16.585  18.226  0.00  0.00    -0.167 A 
ATOM     18  C   UNL     1      48.012  17.561  17.703  0.00  0.00    +0.087 A 
ATOM     19  C   UNL     1      49.259  17.228  17.199  0.00  0.00    -0.035 A 
ATOM     20  C   UNL     1      49.683  15.907  17.230  0.00  0.00    +0.147 A 
ATOM     23  C   UNL     1      48.864  14.919  17.752  0.00  0.00    -0.128 A 
ATOM     29  C   UNL     1      45.855  16.836  18.810  0.00  0.00    +0.226 C 
ATOM     30  O   UNL     1      45.559  18.122  19.338  0.00  0.00    -0.276 OA
ATOM     31  C   UNL     1      44.645  17.922  20.330  0.00  0.00    +0.116 A 
ENDROOT
BRANCH   7   8
ATOM      8  O   UNL     1      41.913  19.180  22.347  0.00  0.00    -0.491 OA
ATOM      9  H   UNL     1      41.021  18.807  22.362  0.00  0.00    +0.392 HD
ENDBRANCH   7   8
BRANCH  20  21
ATOM     21  O   UNL     1      50.909  15.580  16.745  0.00  0.00    -0.491 OA
ATOM     22  H   UNL     1      50.919  14.771  16.215  0.00  0.00    +0.394 HD
ENDBRANCH  20  21
BRANCH   6   5
ATOM      5  C   UNL     1      43.559  20.201  20.272  0.00  0.00    +0.129 C 
BRANCH   5   4
ATOM      1  C   UNL     1      46.313  22.731  21.142  0.00  0.00    +0.073 C 
ATOM      2  C   UNL     1      45.424  21.771  20.394  0.00  0.00    -0.128 C 
ATOM      3  C   UNL     1      45.621  21.558  18.916  0.00  0.00    +0.076 C 
ATOM      4  C   UNL     1      44.479  21.123  21.029  0.00  0.00    -0.054 C 
ENDBRANCH   5   4
ENDBRANCH   6   5
BRANCH  23  24
ATOM     24  C   UNL     1      49.336  13.488  17.779  0.00  0.00    +0.130 C 
BRANCH  24  25
ATOM     25  C   UNL     1      50.045  13.218  19.081  0.00  0.00    -0.058 C 
ATOM     26  C   UNL     1      51.268  12.749  19.077  0.00  0.00    -0.125 C 
ATOM     27  C   UNL     1      52.024  12.603  20.372  0.00  0.00    +0.071 C 
ATOM     28  C   UNL     1      51.919  12.354  17.776  0.00  0.00    +0.076 C 
ENDBRANCH  24  25
ENDBRANCH  23  24
TORSDOF 6
ENDMDL
