MODEL 1
REMARK VINA RESULT:      -7.0      0.000      0.000
REMARK  Name = ZINC85967818
REMARK  10 active torsions:
REMARK  status: ('A' for Active; 'I' for Inactive)
REMARK    1  A    between atoms: C1_1  and  C2_2
REMARK    2  A    between atoms: C2_2  and  C3_3
REMARK    3  A    between atoms: C2_2  and  C4_4
REMARK    4  A    between atoms: C10_10  and  C27_32
REMARK    5  A    between atoms: C12_12  and  O2_15
REMARK    6  A    between atoms: C16_18  and  O3_23
REMARK    7  A    between atoms: C17_20  and  C18_21
REMARK    8  A    between atoms: C17_20  and  C19_22
REMARK    9  A    between atoms: O3_23  and  C20_24
REMARK   10  A    between atoms: C20_24  and  C21_26
REMARK                            x       y       z     vdW  Elec       q    Type
REMARK                         _______ _______ _______ _____ _____    ______ ____
ROOT
ATOM      3  C   UNL     1      41.710  19.950  19.500  0.00  0.00    -0.195 C 
ATOM      4  C   UNL     1      42.735  20.582  18.876  0.00  0.00    +0.109 C 
ATOM      5  C   UNL     1      44.050  20.477  19.388  0.00  0.00    -0.117 C 
ATOM      6  C   UNL     1      45.111  21.113  18.744  0.00  0.00    +0.149 C 
ATOM      7  C   UNL     1      46.436  21.017  19.188  0.00  0.00    -0.045 C 
ATOM      8  C   UNL     1      46.771  20.333  20.288  0.00  0.00    -0.002 C 
ATOM      9  C   UNL     1      45.688  19.659  21.107  0.00  0.00    +0.011 C 
ATOM     10  C   UNL     1      45.692  20.280  22.505  0.00  0.00    +0.059 C 
ATOM     11  C   UNL     1      46.086  18.187  21.219  0.00  0.00    +0.057 C 
ATOM     12  C   UNL     1      47.479  18.084  21.845  0.00  0.00    +0.020 C 
ATOM     13  C   UNL     1      48.520  18.717  20.920  0.00  0.00    +0.195 C 
ATOM     23  C   UNL     1      48.204  20.207  20.738  0.00  0.00    -0.023 C 
ATOM     24  C   UNL     1      49.132  20.805  19.678  0.00  0.00    +0.053 C 
ATOM     25  C   UNL     1      48.395  20.942  22.066  0.00  0.00    +0.065 C 
ATOM     26  C   UNL     1      44.280  19.725  20.567  0.00  0.00    -0.049 C 
ATOM     27  C   UNL     1      43.259  19.090  21.189  0.00  0.00    +0.014 C 
ATOM     30  C   UNL     1      41.947  19.192  20.665  0.00  0.00    +0.388 C 
ATOM     31  O   UNL     1      41.020  18.619  21.220  0.00  0.00    -0.474 OA
ENDROOT
BRANCH   3   2
ATOM      1  C   UNL     1      39.971  21.539  18.728  0.00  0.00    +0.027 C 
ATOM      2  C   UNL     1      40.313  20.063  18.949  0.00  0.00    +0.037 C 
ATOM     32  C   UNL     1      40.228  19.315  17.618  0.00  0.00    +0.027 C 
ENDBRANCH   3   2
BRANCH  27  28
ATOM     28  O   UNL     1      43.490  18.362  22.314  0.00  0.00    -0.460 OA
ATOM     29  H   UNL     1      42.694  18.158  22.822  0.00  0.00    +0.399 HD
ENDBRANCH  27  28
BRANCH  13  14
ATOM     14  O   UNL     1      48.487  18.064  19.649  0.00  0.00    -0.334 OA
BRANCH  14  15
ATOM     15  C   UNL     1      49.610  17.433  19.257  0.00  0.00    +0.509 C 
ATOM     22  O   UNL     1      49.843  16.308  19.649  0.00  0.00    -0.502 OA
BRANCH  15  16
ATOM     16  C   UNL     1      50.561  18.111  18.352  0.00  0.00    -0.128 A 
ATOM     17  C   UNL     1      51.733  18.674  18.859  0.00  0.00    +0.076 A 
ATOM     18  C   UNL     1      52.615  19.306  18.009  0.00  0.00    -0.001 A 
ATOM     19  C   UNL     1      52.341  19.383  16.654  0.00  0.00    +0.049 A 
ATOM     20  C   UNL     1      51.180  18.828  16.145  0.00  0.00    +0.003 A 
ATOM     21  C   UNL     1      50.292  18.188  16.984  0.00  0.00    +0.083 A 
ENDBRANCH  15  16
ENDBRANCH  14  15
ENDBRANCH  13  14
TORSDOF 5
ENDMDL
MODEL 2
REMARK VINA RESULT:      -6.9      1.758      7.702
REMARK  Name = ZINC85967818
REMARK  10 active torsions:
REMARK  status: ('A' for Active; 'I' for Inactive)
REMARK    1  A    between atoms: C1_1  and  C2_2
REMARK    2  A    between atoms: C2_2  and  C3_3
REMARK    3  A    between atoms: C2_2  and  C4_4
REMARK    4  A    between atoms: C10_10  and  C27_32
REMARK    5  A    between atoms: C12_12  and  O2_15
REMARK    6  A    between atoms: C16_18  and  O3_23
REMARK    7  A    between atoms: C17_20  and  C18_21
REMARK    8  A    between atoms: C17_20  and  C19_22
REMARK    9  A    between atoms: O3_23  and  C20_24
REMARK   10  A    between atoms: C20_24  and  C21_26
REMARK                            x       y       z     vdW  Elec       q    Type
REMARK                         _______ _______ _______ _____ _____    ______ ____
ROOT
ATOM      3  C   UNL     1      50.938  19.743  17.823  0.00  0.00    -0.195 C 
ATOM      4  C   UNL     1      50.110  18.713  17.515  0.00  0.00    +0.109 C 
ATOM      5  C   UNL     1      49.179  18.242  18.471  0.00  0.00    -0.117 C 
ATOM      6  C   UNL     1      48.315  17.193  18.157  0.00  0.00    +0.149 C 
ATOM      7  C   UNL     1      47.352  16.709  19.051  0.00  0.00    -0.045 C 
ATOM      8  C   UNL     1      47.220  17.199  20.289  0.00  0.00    -0.002 C 
ATOM      9  C   UNL     1      48.153  18.295  20.762  0.00  0.00    +0.011 C 
ATOM     10  C   UNL     1      48.945  17.762  21.959  0.00  0.00    +0.059 C 
ATOM     11  C   UNL     1      47.263  19.446  21.233  0.00  0.00    +0.057 C 
ATOM     12  C   UNL     1      46.313  18.941  22.321  0.00  0.00    +0.020 C 
ATOM     13  C   UNL     1      45.356  17.898  21.741  0.00  0.00    +0.195 C 
ATOM     23  C   UNL     1      46.158  16.693  21.232  0.00  0.00    -0.023 C 
ATOM     24  C   UNL     1      45.229  15.729  20.493  0.00  0.00    +0.053 C 
ATOM     25  C   UNL     1      46.815  15.975  22.413  0.00  0.00    +0.065 C 
ATOM     26  C   UNL     1      49.135  18.841  19.755  0.00  0.00    -0.049 C 
ATOM     27  C   UNL     1      49.958  19.871  20.062  0.00  0.00    +0.014 C 
ATOM     30  C   UNL     1      50.881  20.344  19.097  0.00  0.00    +0.388 C 
ATOM     31  O   UNL     1      51.626  21.276  19.368  0.00  0.00    -0.474 OA
ENDROOT
BRANCH   3   2
ATOM      1  C   UNL     1      52.189  19.143  15.769  0.00  0.00    +0.027 C 
ATOM      2  C   UNL     1      51.926  20.241  16.801  0.00  0.00    +0.037 C 
ATOM     32  C   UNL     1      51.355  21.475  16.099  0.00  0.00    +0.027 C 
ENDBRANCH   3   2
BRANCH  27  28
ATOM     28  O   UNL     1      49.902  20.447  21.293  0.00  0.00    -0.460 OA
ATOM     29  H   UNL     1      49.019  20.746  21.548  0.00  0.00    +0.399 HD
ENDBRANCH  27  28
BRANCH  13  14
ATOM     14  O   UNL     1      44.624  18.474  20.656  0.00  0.00    -0.334 OA
BRANCH  14  15
ATOM     15  C   UNL     1      43.308  18.686  20.852  0.00  0.00    +0.509 C 
ATOM     22  O   UNL     1      42.687  17.981  21.620  0.00  0.00    -0.502 OA
BRANCH  15  16
ATOM     16  C   UNL     1      42.620  19.776  20.129  0.00  0.00    -0.128 A 
ATOM     17  C   UNL     1      43.310  20.944  19.801  0.00  0.00    +0.076 A 
ATOM     18  C   UNL     1      42.662  21.958  19.128  0.00  0.00    -0.001 A 
ATOM     19  C   UNL     1      41.331  21.819  18.776  0.00  0.00    +0.049 A 
ATOM     20  C   UNL     1      40.641  20.664  19.099  0.00  0.00    +0.003 A 
ATOM     21  C   UNL     1      41.279  19.639  19.767  0.00  0.00    +0.083 A 
ENDBRANCH  15  16
ENDBRANCH  14  15
ENDBRANCH  13  14
TORSDOF 5
ENDMDL
MODEL 3
REMARK VINA RESULT:      -6.9      2.006      2.630
REMARK  Name = ZINC85967818
REMARK  10 active torsions:
REMARK  status: ('A' for Active; 'I' for Inactive)
REMARK    1  A    between atoms: C1_1  and  C2_2
REMARK    2  A    between atoms: C2_2  and  C3_3
REMARK    3  A    between atoms: C2_2  and  C4_4
REMARK    4  A    between atoms: C10_10  and  C27_32
REMARK    5  A    between atoms: C12_12  and  O2_15
REMARK    6  A    between atoms: C16_18  and  O3_23
REMARK    7  A    between atoms: C17_20  and  C18_21
REMARK    8  A    between atoms: C17_20  and  C19_22
REMARK    9  A    between atoms: O3_23  and  C20_24
REMARK   10  A    between atoms: C20_24  and  C21_26
REMARK                            x       y       z     vdW  Elec       q    Type
REMARK                         _______ _______ _______ _____ _____    ______ ____
ROOT
ATOM      3  C   UNL     1      42.388  20.150  19.504  0.00  0.00    -0.195 C 
ATOM      4  C   UNL     1      43.391  20.863  18.934  0.00  0.00    +0.109 C 
ATOM      5  C   UNL     1      44.737  20.593  19.277  0.00  0.00    -0.117 C 
ATOM      6  C   UNL     1      45.775  21.312  18.685  0.00  0.00    +0.149 C 
ATOM      7  C   UNL     1      47.125  21.065  18.962  0.00  0.00    -0.045 C 
ATOM      8  C   UNL     1      47.513  20.140  19.848  0.00  0.00    -0.002 C 
ATOM      9  C   UNL     1      46.467  19.345  20.603  0.00  0.00    +0.011 C 
ATOM     10  C   UNL     1      46.633  19.638  22.096  0.00  0.00    +0.059 C 
ATOM     11  C   UNL     1      46.781  17.870  20.352  0.00  0.00    +0.057 C 
ATOM     12  C   UNL     1      48.214  17.573  20.798  0.00  0.00    +0.020 C 
ATOM     13  C   UNL     1      49.207  18.353  19.934  0.00  0.00    +0.195 C 
ATOM     23  C   UNL     1      48.970  19.858  20.114  0.00  0.00    -0.023 C 
ATOM     24  C   UNL     1      49.835  20.639  19.123  0.00  0.00    +0.053 C 
ATOM     25  C   UNL     1      49.322  20.270  21.544  0.00  0.00    +0.065 C 
ATOM     26  C   UNL     1      45.023  19.587  20.235  0.00  0.00    -0.049 C 
ATOM     27  C   UNL     1      44.023  18.872  20.801  0.00  0.00    +0.014 C 
ATOM     30  C   UNL     1      42.679  19.142  20.446  0.00  0.00    +0.388 C 
ATOM     31  O   UNL     1      41.771  18.498  20.953  0.00  0.00    -0.474 OA
ENDROOT
BRANCH   3   2
ATOM      1  C   UNL     1      40.822  21.915  18.743  0.00  0.00    +0.027 C 
ATOM      2  C   UNL     1      40.958  20.441  19.134  0.00  0.00    +0.037 C 
ATOM     32  C   UNL     1      40.548  19.560  17.952  0.00  0.00    +0.027 C 
ENDBRANCH   3   2
BRANCH  27  28
ATOM     28  O   UNL     1      44.308  17.903  21.712  0.00  0.00    -0.460 OA
ATOM     29  H   UNL     1      45.136  17.435  21.542  0.00  0.00    +0.399 HD
ENDBRANCH  27  28
BRANCH  13  14
ATOM     14  O   UNL     1      49.021  18.002  18.562  0.00  0.00    -0.334 OA
BRANCH  14  15
ATOM     15  C   UNL     1      49.688  16.921  18.112  0.00  0.00    +0.509 C 
ATOM     22  O   UNL     1      50.891  16.845  18.257  0.00  0.00    -0.502 OA
BRANCH  15  16
ATOM     16  C   UNL     1      48.955  15.828  17.440  0.00  0.00    -0.128 A 
ATOM     17  C   UNL     1      47.570  15.908  17.279  0.00  0.00    +0.076 A 
ATOM     18  C   UNL     1      46.892  14.884  16.653  0.00  0.00    -0.001 A 
ATOM     19  C   UNL     1      47.581  13.779  16.182  0.00  0.00    +0.049 A 
ATOM     20  C   UNL     1      48.953  13.694  16.339  0.00  0.00    +0.003 A 
ATOM     21  C   UNL     1      49.645  14.714  16.959  0.00  0.00    +0.083 A 
ENDBRANCH  15  16
ENDBRANCH  14  15
ENDBRANCH  13  14
TORSDOF 5
ENDMDL
MODEL 4
REMARK VINA RESULT:      -6.8      2.592      4.495
REMARK  Name = ZINC85967818
REMARK  10 active torsions:
REMARK  status: ('A' for Active; 'I' for Inactive)
REMARK    1  A    between atoms: C1_1  and  C2_2
REMARK    2  A    between atoms: C2_2  and  C3_3
REMARK    3  A    between atoms: C2_2  and  C4_4
REMARK    4  A    between atoms: C10_10  and  C27_32
REMARK    5  A    between atoms: C12_12  and  O2_15
REMARK    6  A    between atoms: C16_18  and  O3_23
REMARK    7  A    between atoms: C17_20  and  C18_21
REMARK    8  A    between atoms: C17_20  and  C19_22
REMARK    9  A    between atoms: O3_23  and  C20_24
REMARK   10  A    between atoms: C20_24  and  C21_26
REMARK                            x       y       z     vdW  Elec       q    Type
REMARK                         _______ _______ _______ _____ _____    ______ ____
ROOT
ATOM      3  C   UNL     1      44.476  18.752  20.614  0.00  0.00    -0.195 C 
ATOM      4  C   UNL     1      45.277  17.948  21.356  0.00  0.00    +0.109 C 
ATOM      5  C   UNL     1      46.308  17.204  20.732  0.00  0.00    -0.117 C 
ATOM      6  C   UNL     1      47.144  16.386  21.490  0.00  0.00    +0.149 C 
ATOM      7  C   UNL     1      48.200  15.654  20.931  0.00  0.00    -0.045 C 
ATOM      8  C   UNL     1      48.455  15.661  19.618  0.00  0.00    -0.002 C 
ATOM      9  C   UNL     1      47.565  16.462  18.689  0.00  0.00    +0.011 C 
ATOM     10  C   UNL     1      46.906  15.491  17.706  0.00  0.00    +0.059 C 
ATOM     11  C   UNL     1      48.487  17.402  17.912  0.00  0.00    +0.057 C 
ATOM     12  C   UNL     1      49.550  16.579  17.180  0.00  0.00    +0.020 C 
ATOM     13  C   UNL     1      50.453  15.868  18.191  0.00  0.00    +0.195 C 
ATOM     23  C   UNL     1      49.614  14.897  19.031  0.00  0.00    -0.023 C 
ATOM     24  C   UNL     1      50.471  14.315  20.157  0.00  0.00    +0.053 C 
ATOM     25  C   UNL     1      49.090  13.766  18.144  0.00  0.00    +0.065 C 
ATOM     26  C   UNL     1      46.478  17.293  19.328  0.00  0.00    -0.049 C 
ATOM     27  C   UNL     1      45.682  18.098  18.587  0.00  0.00    +0.014 C 
ATOM     30  C   UNL     1      44.658  18.847  19.219  0.00  0.00    +0.388 C 
ATOM     31  O   UNL     1      43.936  19.578  18.556  0.00  0.00    -0.474 OA
ENDROOT
BRANCH   3   2
ATOM      1  C   UNL     1      42.266  18.595  21.726  0.00  0.00    +0.027 C 
ATOM      2  C   UNL     1      43.383  19.543  21.283  0.00  0.00    +0.037 C 
ATOM     32  C   UNL     1      43.951  20.267  22.505  0.00  0.00    +0.027 C 
ENDBRANCH   3   2
BRANCH  27  28
ATOM     28  O   UNL     1      45.859  18.184  17.242  0.00  0.00    -0.460 OA
ATOM     29  H   UNL     1      46.204  19.037  16.944  0.00  0.00    +0.399 HD
ENDBRANCH  27  28
BRANCH  13  14
ATOM     14  O   UNL     1      51.061  16.836  19.048  0.00  0.00    -0.334 OA
BRANCH  14  15
ATOM     15  C   UNL     1      52.113  17.516  18.551  0.00  0.00    +0.509 C 
ATOM     22  O   UNL     1      53.237  17.077  18.681  0.00  0.00    -0.502 OA
BRANCH  15  16
ATOM     16  C   UNL     1      51.898  18.798  17.849  0.00  0.00    -0.128 A 
ATOM     17  C   UNL     1      51.441  19.915  18.552  0.00  0.00    +0.076 A 
ATOM     18  C   UNL     1      51.241  21.108  17.891  0.00  0.00    -0.001 A 
ATOM     19  C   UNL     1      51.493  21.201  16.533  0.00  0.00    +0.049 A 
ATOM     20  C   UNL     1      51.945  20.098  15.830  0.00  0.00    +0.003 A 
ATOM     21  C   UNL     1      52.155  18.900  16.481  0.00  0.00    +0.083 A 
ENDBRANCH  15  16
ENDBRANCH  14  15
ENDBRANCH  13  14
TORSDOF 5
ENDMDL
MODEL 5
REMARK VINA RESULT:      -6.6      3.329      4.227
REMARK  Name = ZINC85967818
REMARK  10 active torsions:
REMARK  status: ('A' for Active; 'I' for Inactive)
REMARK    1  A    between atoms: C1_1  and  C2_2
REMARK    2  A    between atoms: C2_2  and  C3_3
REMARK    3  A    between atoms: C2_2  and  C4_4
REMARK    4  A    between atoms: C10_10  and  C27_32
REMARK    5  A    between atoms: C12_12  and  O2_15
REMARK    6  A    between atoms: C16_18  and  O3_23
REMARK    7  A    between atoms: C17_20  and  C18_21
REMARK    8  A    between atoms: C17_20  and  C19_22
REMARK    9  A    between atoms: O3_23  and  C20_24
REMARK   10  A    between atoms: C20_24  and  C21_26
REMARK                            x       y       z     vdW  Elec       q    Type
REMARK                         _______ _______ _______ _____ _____    ______ ____
ROOT
ATOM      3  C   UNL     1      42.213  19.871  19.454  0.00  0.00    -0.195 C 
ATOM      4  C   UNL     1      43.352  20.091  18.752  0.00  0.00    +0.109 C 
ATOM      5  C   UNL     1      44.534  19.383  19.078  0.00  0.00    -0.117 C 
ATOM      6  C   UNL     1      45.705  19.593  18.351  0.00  0.00    +0.149 C 
ATOM      7  C   UNL     1      46.893  18.897  18.609  0.00  0.00    -0.045 C 
ATOM      8  C   UNL     1      46.995  18.005  19.600  0.00  0.00    -0.002 C 
ATOM      9  C   UNL     1      45.803  17.748  20.499  0.00  0.00    +0.011 C 
ATOM     10  C   UNL     1      46.193  18.130  21.929  0.00  0.00    +0.059 C 
ATOM     11  C   UNL     1      45.538  16.242  20.445  0.00  0.00    +0.057 C 
ATOM     12  C   UNL     1      46.800  15.490  20.874  0.00  0.00    +0.020 C 
ATOM     13  C   UNL     1      47.929  15.741  19.872  0.00  0.00    +0.195 C 
ATOM     23  C   UNL     1      48.269  17.236  19.847  0.00  0.00    -0.023 C 
ATOM     24  C   UNL     1      49.268  17.520  18.724  0.00  0.00    +0.053 C 
ATOM     25  C   UNL     1      48.869  17.652  21.191  0.00  0.00    +0.065 C 
ATOM     26  C   UNL     1      44.518  18.462  20.155  0.00  0.00    -0.049 C 
ATOM     27  C   UNL     1      43.381  18.240  20.854  0.00  0.00    +0.014 C 
ATOM     30  C   UNL     1      42.200  18.945  20.516  0.00  0.00    +0.388 C 
ATOM     31  O   UNL     1      41.168  18.747  21.143  0.00  0.00    -0.474 OA
ENDROOT
BRANCH   3   2
ATOM      1  C   UNL     1      41.319  22.060  18.708  0.00  0.00    +0.027 C 
ATOM      2  C   UNL     1      40.958  20.626  19.101  0.00  0.00    +0.037 C 
ATOM     32  C   UNL     1      40.261  19.936  17.927  0.00  0.00    +0.027 C 
ENDBRANCH   3   2
BRANCH  27  28
ATOM     28  O   UNL     1      43.373  17.347  21.880  0.00  0.00    -0.460 OA
ATOM     29  H   UNL     1      44.253  17.107  22.200  0.00  0.00    +0.399 HD
ENDBRANCH  27  28
BRANCH  13  14
ATOM     14  O   UNL     1      47.509  15.326  18.570  0.00  0.00    -0.334 OA
BRANCH  14  15
ATOM     15  C   UNL     1      48.097  14.225  18.061  0.00  0.00    +0.509 C 
ATOM     22  O   UNL     1      49.300  14.083  18.148  0.00  0.00    -0.502 OA
BRANCH  15  16
ATOM     16  C   UNL     1      47.277  13.192  17.396  0.00  0.00    -0.128 A 
ATOM     17  C   UNL     1      47.843  12.368  16.421  0.00  0.00    +0.076 A 
ATOM     18  C   UNL     1      47.072  11.406  15.803  0.00  0.00    -0.001 A 
ATOM     19  C   UNL     1      45.740  11.255  16.149  0.00  0.00    +0.049 A 
ATOM     20  C   UNL     1      45.173  12.068  17.114  0.00  0.00    +0.003 A 
ATOM     21  C   UNL     1      45.935  13.031  17.744  0.00  0.00    +0.083 A 
ENDBRANCH  15  16
ENDBRANCH  14  15
ENDBRANCH  13  14
TORSDOF 5
ENDMDL
MODEL 6
REMARK VINA RESULT:      -6.4      3.901      7.965
REMARK  Name = ZINC85967818
REMARK  10 active torsions:
REMARK  status: ('A' for Active; 'I' for Inactive)
REMARK    1  A    between atoms: C1_1  and  C2_2
REMARK    2  A    between atoms: C2_2  and  C3_3
REMARK    3  A    between atoms: C2_2  and  C4_4
REMARK    4  A    between atoms: C10_10  and  C27_32
REMARK    5  A    between atoms: C12_12  and  O2_15
REMARK    6  A    between atoms: C16_18  and  O3_23
REMARK    7  A    between atoms: C17_20  and  C18_21
REMARK    8  A    between atoms: C17_20  and  C19_22
REMARK    9  A    between atoms: O3_23  and  C20_24
REMARK   10  A    between atoms: C20_24  and  C21_26
REMARK                            x       y       z     vdW  Elec       q    Type
REMARK                         _______ _______ _______ _____ _____    ______ ____
ROOT
ATOM      3  C   UNL     1      46.963  12.660  16.648  0.00  0.00    -0.195 C 
ATOM      4  C   UNL     1      46.140  12.894  17.701  0.00  0.00    +0.109 C 
ATOM      5  C   UNL     1      46.258  14.096  18.439  0.00  0.00    -0.117 C 
ATOM      6  C   UNL     1      45.407  14.350  19.514  0.00  0.00    +0.149 C 
ATOM      7  C   UNL     1      45.457  15.536  20.258  0.00  0.00    -0.045 C 
ATOM      8  C   UNL     1      46.356  16.495  20.009  0.00  0.00    -0.002 C 
ATOM      9  C   UNL     1      47.376  16.295  18.907  0.00  0.00    +0.011 C 
ATOM     10  C   UNL     1      48.770  16.316  19.540  0.00  0.00    +0.059 C 
ATOM     11  C   UNL     1      47.241  17.496  17.970  0.00  0.00    +0.057 C 
ATOM     12  C   UNL     1      47.447  18.786  18.767  0.00  0.00    +0.020 C 
ATOM     13  C   UNL     1      46.332  18.950  19.801  0.00  0.00    +0.195 C 
ATOM     23  C   UNL     1      46.379  17.782  20.795  0.00  0.00    -0.023 C 
ATOM     24  C   UNL     1      45.164  17.843  21.722  0.00  0.00    +0.053 C 
ATOM     25  C   UNL     1      47.664  17.859  21.621  0.00  0.00    +0.065 C 
ATOM     26  C   UNL     1      47.255  15.038  18.080  0.00  0.00    -0.049 C 
ATOM     27  C   UNL     1      48.073  14.807  17.028  0.00  0.00    +0.014 C 
ATOM     30  C   UNL     1      47.943  13.606  16.288  0.00  0.00    +0.388 C 
ATOM     31  O   UNL     1      48.679  13.392  15.334  0.00  0.00    -0.474 OA
ENDROOT
BRANCH   3   2
ATOM      1  C   UNL     1      47.639  10.277  16.552  0.00  0.00    +0.027 C 
ATOM      2  C   UNL     1      46.831  11.380  15.865  0.00  0.00    +0.037 C 
ATOM     32  C   UNL     1      45.358  10.970  15.802  0.00  0.00    +0.027 C 
ENDBRANCH   3   2
BRANCH  27  28
ATOM     28  O   UNL     1      49.020  15.721  16.685  0.00  0.00    -0.460 OA
ATOM     29  H   UNL     1      48.676  16.480  16.195  0.00  0.00    +0.399 HD
ENDBRANCH  27  28
BRANCH  13  14
ATOM     14  O   UNL     1      45.066  18.960  19.139  0.00  0.00    -0.334 OA
BRANCH  14  15
ATOM     15  C   UNL     1      44.440  20.149  19.035  0.00  0.00    +0.509 C 
ATOM     22  O   UNL     1      45.073  21.147  18.758  0.00  0.00    -0.502 OA
BRANCH  15  16
ATOM     16  C   UNL     1      42.982  20.238  19.262  0.00  0.00    -0.128 A 
ATOM     17  C   UNL     1      42.259  21.320  18.756  0.00  0.00    +0.076 A 
ATOM     18  C   UNL     1      40.899  21.397  18.972  0.00  0.00    -0.001 A 
ATOM     19  C   UNL     1      40.251  20.405  19.687  0.00  0.00    +0.049 A 
ATOM     20  C   UNL     1      40.962  19.331  20.192  0.00  0.00    +0.003 A 
ATOM     21  C   UNL     1      42.322  19.238  19.978  0.00  0.00    +0.083 A 
ENDBRANCH  15  16
ENDBRANCH  14  15
ENDBRANCH  13  14
TORSDOF 5
ENDMDL
MODEL 7
REMARK VINA RESULT:      -6.2      3.801      6.375
REMARK  Name = ZINC85967818
REMARK  10 active torsions:
REMARK  status: ('A' for Active; 'I' for Inactive)
REMARK    1  A    between atoms: C1_1  and  C2_2
REMARK    2  A    between atoms: C2_2  and  C3_3
REMARK    3  A    between atoms: C2_2  and  C4_4
REMARK    4  A    between atoms: C10_10  and  C27_32
REMARK    5  A    between atoms: C12_12  and  O2_15
REMARK    6  A    between atoms: C16_18  and  O3_23
REMARK    7  A    between atoms: C17_20  and  C18_21
REMARK    8  A    between atoms: C17_20  and  C19_22
REMARK    9  A    between atoms: O3_23  and  C20_24
REMARK   10  A    between atoms: C20_24  and  C21_26
REMARK                            x       y       z     vdW  Elec       q    Type
REMARK                         _______ _______ _______ _____ _____    ______ ____
ROOT
ATOM      3  C   UNL     1      47.685  12.838  16.742  0.00  0.00    -0.195 C 
ATOM      4  C   UNL     1      47.316  14.050  16.257  0.00  0.00    +0.109 C 
ATOM      5  C   UNL     1      46.882  15.065  17.142  0.00  0.00    -0.117 C 
ATOM      6  C   UNL     1      46.514  16.318  16.652  0.00  0.00    +0.149 C 
ATOM      7  C   UNL     1      46.109  17.369  17.485  0.00  0.00    -0.045 C 
ATOM      8  C   UNL     1      46.012  17.230  18.811  0.00  0.00    -0.002 C 
ATOM      9  C   UNL     1      46.320  15.890  19.446  0.00  0.00    +0.011 C 
ATOM     10  C   UNL     1      45.052  15.389  20.142  0.00  0.00    +0.059 C 
ATOM     11  C   UNL     1      47.393  16.150  20.505  0.00  0.00    +0.057 C 
ATOM     12  C   UNL     1      46.881  17.194  21.500  0.00  0.00    +0.020 C 
ATOM     13  C   UNL     1      46.672  18.536  20.794  0.00  0.00    +0.195 C 
ATOM     23  C   UNL     1      45.607  18.378  19.701  0.00  0.00    -0.023 C 
ATOM     24  C   UNL     1      45.520  19.664  18.877  0.00  0.00    +0.053 C 
ATOM     25  C   UNL     1      44.249  18.081  20.341  0.00  0.00    +0.065 C 
ATOM     26  C   UNL     1      46.818  14.797  18.533  0.00  0.00    -0.049 C 
ATOM     27  C   UNL     1      47.190  13.589  19.018  0.00  0.00    +0.014 C 
ATOM     30  C   UNL     1      47.632  12.580  18.127  0.00  0.00    +0.388 C 
ATOM     31  O   UNL     1      47.972  11.488  18.559  0.00  0.00    -0.474 OA
ENDROOT
BRANCH   3   2
ATOM      1  C   UNL     1      46.931  11.067  15.180  0.00  0.00    +0.027 C 
ATOM      2  C   UNL     1      48.148  11.762  15.795  0.00  0.00    +0.037 C 
ATOM     32  C   UNL     1      48.994  12.388  14.685  0.00  0.00    +0.027 C 
ENDBRANCH   3   2
BRANCH  27  28
ATOM     28  O   UNL     1      47.135  13.344  20.354  0.00  0.00    -0.460 OA
ATOM     29  H   UNL     1      46.809  12.462  20.579  0.00  0.00    +0.399 HD
ENDBRANCH  27  28
BRANCH  13  14
ATOM     14  O   UNL     1      47.902  18.959  20.203  0.00  0.00    -0.334 OA
BRANCH  14  15
ATOM     15  C   UNL     1      48.486  20.055  20.727  0.00  0.00    +0.509 C 
ATOM     22  O   UNL     1      47.960  20.640  21.652  0.00  0.00    -0.502 OA
BRANCH  15  16
ATOM     16  C   UNL     1      49.765  20.545  20.174  0.00  0.00    -0.128 A 
ATOM     17  C   UNL     1      49.918  20.706  18.795  0.00  0.00    +0.076 A 
ATOM     18  C   UNL     1      51.115  21.162  18.286  0.00  0.00    -0.001 A 
ATOM     19  C   UNL     1      52.164  21.463  19.138  0.00  0.00    +0.049 A 
ATOM     20  C   UNL     1      52.019  21.306  20.505  0.00  0.00    +0.003 A 
ATOM     21  C   UNL     1      50.825  20.855  21.028  0.00  0.00    +0.083 A 
ENDBRANCH  15  16
ENDBRANCH  14  15
ENDBRANCH  13  14
TORSDOF 5
ENDMDL
MODEL 8
REMARK VINA RESULT:      -6.2      3.531      6.456
REMARK  Name = ZINC85967818
REMARK  10 active torsions:
REMARK  status: ('A' for Active; 'I' for Inactive)
REMARK    1  A    between atoms: C1_1  and  C2_2
REMARK    2  A    between atoms: C2_2  and  C3_3
REMARK    3  A    between atoms: C2_2  and  C4_4
REMARK    4  A    between atoms: C10_10  and  C27_32
REMARK    5  A    between atoms: C12_12  and  O2_15
REMARK    6  A    between atoms: C16_18  and  O3_23
REMARK    7  A    between atoms: C17_20  and  C18_21
REMARK    8  A    between atoms: C17_20  and  C19_22
REMARK    9  A    between atoms: O3_23  and  C20_24
REMARK   10  A    between atoms: C20_24  and  C21_26
REMARK                            x       y       z     vdW  Elec       q    Type
REMARK                         _______ _______ _______ _____ _____    ______ ____
ROOT
ATOM      3  C   UNL     1      48.073  13.007  16.340  0.00  0.00    -0.195 C 
ATOM      4  C   UNL     1      47.124  13.968  16.465  0.00  0.00    +0.109 C 
ATOM      5  C   UNL     1      47.189  14.894  17.532  0.00  0.00    -0.117 C 
ATOM      6  C   UNL     1      46.224  15.893  17.659  0.00  0.00    +0.149 C 
ATOM      7  C   UNL     1      46.258  16.856  18.676  0.00  0.00    -0.045 C 
ATOM      8  C   UNL     1      47.203  16.859  19.623  0.00  0.00    -0.002 C 
ATOM      9  C   UNL     1      48.263  15.777  19.623  0.00  0.00    +0.011 C 
ATOM     10  C   UNL     1      48.138  14.989  20.930  0.00  0.00    +0.059 C 
ATOM     11  C   UNL     1      49.613  16.494  19.607  0.00  0.00    +0.057 C 
ATOM     12  C   UNL     1      49.701  17.436  20.810  0.00  0.00    +0.020 C 
ATOM     13  C   UNL     1      48.651  18.543  20.690  0.00  0.00    +0.195 C 
ATOM     23  C   UNL     1      47.249  17.920  20.693  0.00  0.00    -0.023 C 
ATOM     24  C   UNL     1      46.205  18.998  20.396  0.00  0.00    +0.053 C 
ATOM     25  C   UNL     1      46.966  17.289  22.058  0.00  0.00    +0.065 C 
ATOM     26  C   UNL     1      48.240  14.794  18.478  0.00  0.00    -0.049 C 
ATOM     27  C   UNL     1      49.190  13.838  18.352  0.00  0.00    +0.014 C 
ATOM     30  C   UNL     1      49.123  12.920  17.276  0.00  0.00    +0.388 C 
ATOM     31  O   UNL     1      49.980  12.055  17.156  0.00  0.00    -0.474 OA
ENDROOT
BRANCH   3   2
ATOM      1  C   UNL     1      46.761  11.141  15.368  0.00  0.00    +0.027 C 
ATOM      2  C   UNL     1      48.000  12.025  15.200  0.00  0.00    +0.037 C 
ATOM     32  C   UNL     1      47.907  12.786  13.876  0.00  0.00    +0.027 C 
ENDBRANCH   3   2
BRANCH  27  28
ATOM     28  O   UNL     1      50.200  13.756  19.259  0.00  0.00    -0.460 OA
ATOM     29  H   UNL     1      49.907  13.553  20.158  0.00  0.00    +0.399 HD
ENDBRANCH  27  28
BRANCH  13  14
ATOM     14  O   UNL     1      48.852  19.259  19.470  0.00  0.00    -0.334 OA
BRANCH  14  15
ATOM     15  C   UNL     1      49.995  19.963  19.356  0.00  0.00    +0.509 C 
ATOM     22  O   UNL     1      50.415  20.597  20.303  0.00  0.00    -0.502 OA
BRANCH  15  16
ATOM     16  C   UNL     1      50.737  19.965  18.079  0.00  0.00    -0.128 A 
ATOM     17  C   UNL     1      51.078  21.173  17.468  0.00  0.00    +0.076 A 
ATOM     18  C   UNL     1      51.770  21.168  16.275  0.00  0.00    -0.001 A 
ATOM     19  C   UNL     1      52.126  19.968  15.683  0.00  0.00    +0.049 A 
ATOM     20  C   UNL     1      51.790  18.768  16.283  0.00  0.00    +0.003 A 
ATOM     21  C   UNL     1      51.103  18.759  17.479  0.00  0.00    +0.083 A 
ENDBRANCH  15  16
ENDBRANCH  14  15
ENDBRANCH  13  14
TORSDOF 5
ENDMDL
MODEL 9
REMARK VINA RESULT:      -5.8      4.124      8.140
REMARK  Name = ZINC85967818
REMARK  10 active torsions:
REMARK  status: ('A' for Active; 'I' for Inactive)
REMARK    1  A    between atoms: C1_1  and  C2_2
REMARK    2  A    between atoms: C2_2  and  C3_3
REMARK    3  A    between atoms: C2_2  and  C4_4
REMARK    4  A    between atoms: C10_10  and  C27_32
REMARK    5  A    between atoms: C12_12  and  O2_15
REMARK    6  A    between atoms: C16_18  and  O3_23
REMARK    7  A    between atoms: C17_20  and  C18_21
REMARK    8  A    between atoms: C17_20  and  C19_22
REMARK    9  A    between atoms: O3_23  and  C20_24
REMARK   10  A    between atoms: C20_24  and  C21_26
REMARK                            x       y       z     vdW  Elec       q    Type
REMARK                         _______ _______ _______ _____ _____    ______ ____
ROOT
ATOM      3  C   UNL     1      50.498  12.407  15.211  0.00  0.00    -0.195 C 
ATOM      4  C   UNL     1      49.240  12.911  15.161  0.00  0.00    +0.109 C 
ATOM      5  C   UNL     1      48.702  13.588  16.281  0.00  0.00    -0.117 C 
ATOM      6  C   UNL     1      47.415  14.121  16.233  0.00  0.00    +0.149 C 
ATOM      7  C   UNL     1      46.845  14.828  17.300  0.00  0.00    -0.045 C 
ATOM      8  C   UNL     1      47.489  15.009  18.458  0.00  0.00    -0.002 C 
ATOM      9  C   UNL     1      48.868  14.411  18.648  0.00  0.00    +0.011 C 
ATOM     10  C   UNL     1      48.800  13.412  19.804  0.00  0.00    +0.059 C 
ATOM     11  C   UNL     1      49.787  15.567  19.048  0.00  0.00    +0.057 C 
ATOM     12  C   UNL     1      49.236  16.241  20.306  0.00  0.00    +0.020 C 
ATOM     13  C   UNL     1      47.881  16.885  20.006  0.00  0.00    +0.195 C 
ATOM     23  C   UNL     1      46.880  15.800  19.588  0.00  0.00    -0.023 C 
ATOM     24  C   UNL     1      45.578  16.452  19.118  0.00  0.00    +0.053 C 
ATOM     25  C   UNL     1      46.596  14.875  20.772  0.00  0.00    +0.065 C 
ATOM     26  C   UNL     1      49.482  13.713  17.459  0.00  0.00    -0.049 C 
ATOM     27  C   UNL     1      50.739  13.214  17.508  0.00  0.00    +0.014 C 
ATOM     30  C   UNL     1      51.274  12.546  16.379  0.00  0.00    +0.388 C 
ATOM     31  O   UNL     1      52.410  12.094  16.417  0.00  0.00    -0.474 OA
ENDROOT
BRANCH   3   2
ATOM      1  C   UNL     1      50.439  10.297  13.909  0.00  0.00    +0.027 C 
ATOM      2  C   UNL     1      51.066  11.690  14.014  0.00  0.00    +0.037 C 
ATOM     32  C   UNL     1      50.753  12.486  12.746  0.00  0.00    +0.027 C 
ENDBRANCH   3   2
BRANCH  27  28
ATOM     28  O   UNL     1      51.484  13.348  18.638  0.00  0.00    -0.460 OA
ATOM     29  H   UNL     1      52.172  12.677  18.738  0.00  0.00    +0.399 HD
ENDBRANCH  27  28
BRANCH  13  14
ATOM     14  O   UNL     1      48.027  17.832  18.946  0.00  0.00    -0.334 OA
BRANCH  14  15
ATOM     15  C   UNL     1      48.452  19.065  19.284  0.00  0.00    +0.509 C 
ATOM     22  O   UNL     1      47.794  19.749  20.041  0.00  0.00    -0.502 OA
BRANCH  15  16
ATOM     16  C   UNL     1      49.719  19.587  18.730  0.00  0.00    -0.128 A 
ATOM     17  C   UNL     1      50.382  18.890  17.718  0.00  0.00    +0.076 A 
ATOM     18  C   UNL     1      51.564  19.381  17.207  0.00  0.00    -0.001 A 
ATOM     19  C   UNL     1      52.094  20.564  17.694  0.00  0.00    +0.049 A 
ATOM     20  C   UNL     1      51.443  21.259  18.697  0.00  0.00    +0.003 A 
ATOM     21  C   UNL     1      50.256  20.782  19.213  0.00  0.00    +0.083 A 
ENDBRANCH  15  16
ENDBRANCH  14  15
ENDBRANCH  13  14
TORSDOF 5
ENDMDL
