MODEL 1
REMARK VINA RESULT:      -4.9      0.000      0.000
REMARK  Name = ZINC28278668
REMARK  5 active torsions:
REMARK  status: ('A' for Active; 'I' for Inactive)
REMARK    1  A    between atoms: C1_1  and  C2_2
REMARK    2  A    between atoms: C5_5  and  C9_10
REMARK    3  A    between atoms: C7_7  and  O1_8
REMARK    4  A    between atoms: O1_8  and  C8_9
REMARK    5  A    between atoms: C10_11  and  C11_12
REMARK                            x       y       z     vdW  Elec       q    Type
REMARK                         _______ _______ _______ _____ _____    ______ ____
ROOT
ATOM      1  C   UNL     1      44.644  15.618  22.317  0.00  0.00    +0.090 C 
ATOM      2  C   UNL     1      44.032  16.808  21.623  0.00  0.00    -0.135 A 
ATOM      3  C   UNL     1      42.898  17.403  22.149  0.00  0.00    +0.045 A 
ATOM      4  C   UNL     1      42.331  18.492  21.521  0.00  0.00    -0.023 A 
ATOM      5  C   UNL     1      42.905  18.998  20.349  0.00  0.00    -0.001 A 
ATOM     11  C   UNL     1      44.050  18.396  19.821  0.00  0.00    -0.072 A 
ATOM     12  C   UNL     1      44.612  17.307  20.464  0.00  0.00    +0.124 A 
ENDROOT
BRANCH   5   6
ATOM      6  C   UNL     1      42.304  20.159  19.675  0.00  0.00    +0.004 C 
ATOM      7  C   UNL     1      40.969  20.205  19.470  0.00  0.00    -0.054 C 
BRANCH   7   8
ATOM      8  C   UNL     1      40.390  21.323  18.820  0.00  0.00    +0.499 C 
ATOM      9  O   UNL     1      41.102  22.241  18.432  0.00  0.00    -0.697 OA
ATOM     10  O   UNL     1      39.179  21.372  18.648  0.00  0.00    -0.694 OA
ENDBRANCH   7   8
ENDBRANCH   5   6
BRANCH  12  13
ATOM     13  O   UNL     1      45.729  16.721  19.958  0.00  0.00    -0.319 OA
ATOM     14  C   UNL     1      45.896  16.760  18.539  0.00  0.00    +0.233 C 
ENDBRANCH  12  13
TORSDOF 3
ENDMDL
MODEL 2
REMARK VINA RESULT:      -4.4      3.039      4.067
REMARK  Name = ZINC28278668
REMARK  5 active torsions:
REMARK  status: ('A' for Active; 'I' for Inactive)
REMARK    1  A    between atoms: C1_1  and  C2_2
REMARK    2  A    between atoms: C5_5  and  C9_10
REMARK    3  A    between atoms: C7_7  and  O1_8
REMARK    4  A    between atoms: O1_8  and  C8_9
REMARK    5  A    between atoms: C10_11  and  C11_12
REMARK                            x       y       z     vdW  Elec       q    Type
REMARK                         _______ _______ _______ _____ _____    ______ ____
ROOT
ATOM      1  C   UNL     1      46.967  23.019  21.812  0.00  0.00    +0.090 C 
ATOM      2  C   UNL     1      45.787  22.410  21.099  0.00  0.00    -0.135 A 
ATOM      3  C   UNL     1      44.991  23.199  20.287  0.00  0.00    +0.045 A 
ATOM      4  C   UNL     1      43.909  22.651  19.631  0.00  0.00    -0.023 A 
ATOM      5  C   UNL     1      43.616  21.292  19.785  0.00  0.00    -0.001 A 
ATOM     11  C   UNL     1      44.422  20.497  20.604  0.00  0.00    -0.072 A 
ATOM     12  C   UNL     1      45.508  21.058  21.253  0.00  0.00    +0.124 A 
ENDROOT
BRANCH   5   6
ATOM      6  C   UNL     1      42.463  20.702  19.088  0.00  0.00    +0.004 C 
ATOM      7  C   UNL     1      41.307  21.396  18.986  0.00  0.00    -0.054 C 
BRANCH   7   8
ATOM      8  C   UNL     1      40.197  20.828  18.315  0.00  0.00    +0.499 C 
ATOM      9  O   UNL     1      39.099  21.367  18.383  0.00  0.00    -0.697 OA
ATOM     10  O   UNL     1      40.334  19.798  17.667  0.00  0.00    -0.694 OA
ENDBRANCH   7   8
ENDBRANCH   5   6
BRANCH  12  13
ATOM     13  O   UNL     1      46.298  20.289  22.047  0.00  0.00    -0.319 OA
ATOM     14  C   UNL     1      46.416  18.907  21.700  0.00  0.00    +0.233 C 
ENDBRANCH  12  13
TORSDOF 3
ENDMDL
MODEL 3
REMARK VINA RESULT:      -4.3      5.384      7.740
REMARK  Name = ZINC28278668
REMARK  5 active torsions:
REMARK  status: ('A' for Active; 'I' for Inactive)
REMARK    1  A    between atoms: C1_1  and  C2_2
REMARK    2  A    between atoms: C5_5  and  C9_10
REMARK    3  A    between atoms: C7_7  and  O1_8
REMARK    4  A    between atoms: O1_8  and  C8_9
REMARK    5  A    between atoms: C10_11  and  C11_12
REMARK                            x       y       z     vdW  Elec       q    Type
REMARK                         _______ _______ _______ _____ _____    ______ ____
ROOT
ATOM      1  C   UNL     1      45.098  22.060  21.718  0.00  0.00    +0.090 C 
ATOM      2  C   UNL     1      46.308  21.586  20.954  0.00  0.00    -0.135 A 
ATOM      3  C   UNL     1      47.546  21.561  21.570  0.00  0.00    +0.045 A 
ATOM      4  C   UNL     1      48.658  21.129  20.878  0.00  0.00    -0.023 A 
ATOM      5  C   UNL     1      48.534  20.713  19.549  0.00  0.00    -0.001 A 
ATOM     11  C   UNL     1      47.281  20.738  18.928  0.00  0.00    -0.072 A 
ATOM     12  C   UNL     1      46.173  21.170  19.635  0.00  0.00    +0.124 A 
ENDROOT
BRANCH   5   6
ATOM      6  C   UNL     1      49.716  20.252  18.805  0.00  0.00    +0.004 C 
ATOM      7  C   UNL     1      50.500  21.144  18.161  0.00  0.00    -0.054 C 
BRANCH   7   8
ATOM      8  C   UNL     1      51.639  20.700  17.446  0.00  0.00    +0.499 C 
ATOM      9  O   UNL     1      52.403  19.888  17.953  0.00  0.00    -0.697 OA
ATOM     10  O   UNL     1      51.860  21.128  16.320  0.00  0.00    -0.694 OA
ENDBRANCH   7   8
ENDBRANCH   5   6
BRANCH  12  13
ATOM     13  O   UNL     1      44.952  21.191  19.039  0.00  0.00    -0.319 OA
ATOM     14  C   UNL     1      44.367  19.928  18.712  0.00  0.00    +0.233 C 
ENDBRANCH  12  13
TORSDOF 3
ENDMDL
MODEL 4
REMARK VINA RESULT:      -4.3      2.729      3.539
REMARK  Name = ZINC28278668
REMARK  5 active torsions:
REMARK  status: ('A' for Active; 'I' for Inactive)
REMARK    1  A    between atoms: C1_1  and  C2_2
REMARK    2  A    between atoms: C5_5  and  C9_10
REMARK    3  A    between atoms: C7_7  and  O1_8
REMARK    4  A    between atoms: O1_8  and  C8_9
REMARK    5  A    between atoms: C10_11  and  C11_12
REMARK                            x       y       z     vdW  Elec       q    Type
REMARK                         _______ _______ _______ _____ _____    ______ ____
ROOT
ATOM      1  C   UNL     1      48.783  20.072  18.890  0.00  0.00    +0.090 C 
ATOM      2  C   UNL     1      47.276  20.074  18.847  0.00  0.00    -0.135 A 
ATOM      3  C   UNL     1      46.578  21.203  19.237  0.00  0.00    +0.045 A 
ATOM      4  C   UNL     1      45.200  21.214  19.201  0.00  0.00    -0.023 A 
ATOM      5  C   UNL     1      44.504  20.079  18.770  0.00  0.00    -0.001 A 
ATOM     11  C   UNL     1      45.212  18.940  18.376  0.00  0.00    -0.072 A 
ATOM     12  C   UNL     1      46.595  18.944  18.411  0.00  0.00    +0.124 A 
ENDROOT
BRANCH   5   6
ATOM      6  C   UNL     1      43.034  20.085  18.730  0.00  0.00    +0.004 C 
ATOM      7  C   UNL     1      42.354  21.213  19.033  0.00  0.00    -0.054 C 
BRANCH   7   8
ATOM      8  C   UNL     1      40.938  21.219  18.995  0.00  0.00    +0.499 C 
ATOM      9  O   UNL     1      40.350  21.943  18.201  0.00  0.00    -0.697 OA
ATOM     10  O   UNL     1      40.303  20.501  19.756  0.00  0.00    -0.694 OA
ENDBRANCH   7   8
ENDBRANCH   5   6
BRANCH  12  13
ATOM     13  O   UNL     1      47.288  17.841  18.025  0.00  0.00    -0.319 OA
ATOM     14  C   UNL     1      46.713  17.045  16.986  0.00  0.00    +0.233 C 
ENDBRANCH  12  13
TORSDOF 3
ENDMDL
MODEL 5
REMARK VINA RESULT:      -4.3      5.755      6.967
REMARK  Name = ZINC28278668
REMARK  5 active torsions:
REMARK  status: ('A' for Active; 'I' for Inactive)
REMARK    1  A    between atoms: C1_1  and  C2_2
REMARK    2  A    between atoms: C5_5  and  C9_10
REMARK    3  A    between atoms: C7_7  and  O1_8
REMARK    4  A    between atoms: O1_8  and  C8_9
REMARK    5  A    between atoms: C10_11  and  C11_12
REMARK                            x       y       z     vdW  Elec       q    Type
REMARK                         _______ _______ _______ _____ _____    ______ ____
ROOT
ATOM      1  C   UNL     1      52.844  21.566  19.860  0.00  0.00    +0.090 C 
ATOM      2  C   UNL     1      51.394  21.176  19.735  0.00  0.00    -0.135 A 
ATOM      3  C   UNL     1      50.641  20.950  20.874  0.00  0.00    +0.045 A 
ATOM      4  C   UNL     1      49.313  20.592  20.769  0.00  0.00    -0.023 A 
ATOM      5  C   UNL     1      48.725  20.457  19.507  0.00  0.00    -0.001 A 
ATOM     11  C   UNL     1      49.487  20.686  18.358  0.00  0.00    -0.072 A 
ATOM     12  C   UNL     1      50.817  21.050  18.477  0.00  0.00    +0.124 A 
ENDROOT
BRANCH   5   6
ATOM      6  C   UNL     1      47.309  20.075  19.389  0.00  0.00    +0.004 C 
ATOM      7  C   UNL     1      46.395  20.986  18.990  0.00  0.00    -0.054 C 
BRANCH   7   8
ATOM      8  C   UNL     1      45.032  20.619  18.877  0.00  0.00    +0.499 C 
ATOM      9  O   UNL     1      44.725  19.561  18.340  0.00  0.00    -0.697 OA
ATOM     10  O   UNL     1      44.160  21.359  19.314  0.00  0.00    -0.694 OA
ENDBRANCH   7   8
ENDBRANCH   5   6
BRANCH  12  13
ATOM     13  O   UNL     1      51.562  21.279  17.364  0.00  0.00    -0.319 OA
ATOM     14  C   UNL     1      51.902  20.143  16.566  0.00  0.00    +0.233 C 
ENDBRANCH  12  13
TORSDOF 3
ENDMDL
MODEL 6
REMARK VINA RESULT:      -4.2      2.969      3.610
REMARK  Name = ZINC28278668
REMARK  5 active torsions:
REMARK  status: ('A' for Active; 'I' for Inactive)
REMARK    1  A    between atoms: C1_1  and  C2_2
REMARK    2  A    between atoms: C5_5  and  C9_10
REMARK    3  A    between atoms: C7_7  and  O1_8
REMARK    4  A    between atoms: O1_8  and  C8_9
REMARK    5  A    between atoms: C10_11  and  C11_12
REMARK                            x       y       z     vdW  Elec       q    Type
REMARK                         _______ _______ _______ _____ _____    ______ ____
ROOT
ATOM      1  C   UNL     1      48.382  20.969  20.419  0.00  0.00    +0.090 C 
ATOM      2  C   UNL     1      46.913  21.069  20.100  0.00  0.00    -0.135 A 
ATOM      3  C   UNL     1      46.149  22.068  20.679  0.00  0.00    +0.045 A 
ATOM      4  C   UNL     1      44.804  22.167  20.394  0.00  0.00    -0.023 A 
ATOM      5  C   UNL     1      44.208  21.256  19.515  0.00  0.00    -0.001 A 
ATOM     11  C   UNL     1      44.981  20.249  18.931  0.00  0.00    -0.072 A 
ATOM     12  C   UNL     1      46.332  20.163  19.222  0.00  0.00    +0.124 A 
ENDROOT
BRANCH   5   6
ATOM      6  C   UNL     1      42.773  21.357  19.207  0.00  0.00    +0.004 C 
ATOM      7  C   UNL     1      42.120  20.299  18.678  0.00  0.00    -0.054 C 
BRANCH   7   8
ATOM      8  C   UNL     1      40.738  20.396  18.381  0.00  0.00    +0.499 C 
ATOM      9  O   UNL     1      40.229  19.623  17.579  0.00  0.00    -0.697 OA
ATOM     10  O   UNL     1      40.054  21.253  18.926  0.00  0.00    -0.694 OA
ENDBRANCH   7   8
ENDBRANCH   5   6
BRANCH  12  13
ATOM     13  O   UNL     1      47.089  19.189  18.653  0.00  0.00    -0.319 OA
ATOM     14  C   UNL     1      46.413  18.247  17.817  0.00  0.00    +0.233 C 
ENDBRANCH  12  13
TORSDOF 3
ENDMDL
MODEL 7
REMARK VINA RESULT:      -4.2      3.440      5.987
REMARK  Name = ZINC28278668
REMARK  5 active torsions:
REMARK  status: ('A' for Active; 'I' for Inactive)
REMARK    1  A    between atoms: C1_1  and  C2_2
REMARK    2  A    between atoms: C5_5  and  C9_10
REMARK    3  A    between atoms: C7_7  and  O1_8
REMARK    4  A    between atoms: O1_8  and  C8_9
REMARK    5  A    between atoms: C10_11  and  C11_12
REMARK                            x       y       z     vdW  Elec       q    Type
REMARK                         _______ _______ _______ _____ _____    ______ ____
ROOT
ATOM      1  C   UNL     1      39.952  21.156  18.373  0.00  0.00    +0.090 C 
ATOM      2  C   UNL     1      41.334  21.514  18.856  0.00  0.00    -0.135 A 
ATOM      3  C   UNL     1      41.788  22.816  18.741  0.00  0.00    +0.045 A 
ATOM      4  C   UNL     1      43.052  23.152  19.179  0.00  0.00    -0.023 A 
ATOM      5  C   UNL     1      43.877  22.173  19.743  0.00  0.00    -0.001 A 
ATOM     11  C   UNL     1      43.416  20.859  19.859  0.00  0.00    -0.072 A 
ATOM     12  C   UNL     1      42.144  20.536  19.420  0.00  0.00    +0.124 A 
ENDROOT
BRANCH   5   6
ATOM      6  C   UNL     1      45.226  22.526  20.212  0.00  0.00    +0.004 C 
ATOM      7  C   UNL     1      45.940  21.642  20.945  0.00  0.00    -0.054 C 
BRANCH   7   8
ATOM      8  C   UNL     1      47.238  21.981  21.397  0.00  0.00    +0.499 C 
ATOM      9  O   UNL     1      47.391  22.915  22.175  0.00  0.00    -0.697 OA
ATOM     10  O   UNL     1      48.208  21.342  21.009  0.00  0.00    -0.694 OA
ENDBRANCH   7   8
ENDBRANCH   5   6
BRANCH  12  13
ATOM     13  O   UNL     1      41.689  19.261  19.535  0.00  0.00    -0.319 OA
ATOM     14  C   UNL     1      41.395  18.794  20.853  0.00  0.00    +0.233 C 
ENDBRANCH  12  13
TORSDOF 3
ENDMDL
MODEL 8
REMARK VINA RESULT:      -4.1      5.506      7.511
REMARK  Name = ZINC28278668
REMARK  5 active torsions:
REMARK  status: ('A' for Active; 'I' for Inactive)
REMARK    1  A    between atoms: C1_1  and  C2_2
REMARK    2  A    between atoms: C5_5  and  C9_10
REMARK    3  A    between atoms: C7_7  and  O1_8
REMARK    4  A    between atoms: O1_8  and  C8_9
REMARK    5  A    between atoms: C10_11  and  C11_12
REMARK                            x       y       z     vdW  Elec       q    Type
REMARK                         _______ _______ _______ _____ _____    ______ ____
ROOT
ATOM      1  C   UNL     1      52.159  19.158  15.681  0.00  0.00    +0.090 C 
ATOM      2  C   UNL     1      51.287  19.558  16.843  0.00  0.00    -0.135 A 
ATOM      3  C   UNL     1      51.311  20.863  17.304  0.00  0.00    +0.045 A 
ATOM      4  C   UNL     1      50.516  21.238  18.366  0.00  0.00    -0.023 A 
ATOM      5  C   UNL     1      49.681  20.298  18.980  0.00  0.00    -0.001 A 
ATOM     11  C   UNL     1      49.658  18.981  18.511  0.00  0.00    -0.072 A 
ATOM     12  C   UNL     1      50.457  18.618  17.441  0.00  0.00    +0.124 A 
ENDROOT
BRANCH   5   6
ATOM      6  C   UNL     1      48.831  20.693  20.113  0.00  0.00    +0.004 C 
ATOM      7  C   UNL     1      47.551  21.070  19.899  0.00  0.00    -0.054 C 
BRANCH   7   8
ATOM      8  C   UNL     1      46.733  21.451  20.990  0.00  0.00    +0.499 C 
ATOM      9  O   UNL     1      46.406  22.623  21.131  0.00  0.00    -0.697 OA
ATOM     10  O   UNL     1      46.352  20.609  21.793  0.00  0.00    -0.694 OA
ENDBRANCH   7   8
ENDBRANCH   5   6
BRANCH  12  13
ATOM     13  O   UNL     1      50.434  17.341  16.978  0.00  0.00    -0.319 OA
ATOM     14  C   UNL     1      49.469  16.459  17.555  0.00  0.00    +0.233 C 
ENDBRANCH  12  13
TORSDOF 3
ENDMDL
MODEL 9
REMARK VINA RESULT:      -4.1     22.978     24.629
REMARK  Name = ZINC28278668
REMARK  5 active torsions:
REMARK  status: ('A' for Active; 'I' for Inactive)
REMARK    1  A    between atoms: C1_1  and  C2_2
REMARK    2  A    between atoms: C5_5  and  C9_10
REMARK    3  A    between atoms: C7_7  and  O1_8
REMARK    4  A    between atoms: O1_8  and  C8_9
REMARK    5  A    between atoms: C10_11  and  C11_12
REMARK                            x       y       z     vdW  Elec       q    Type
REMARK                         _______ _______ _______ _____ _____    ______ ____
ROOT
ATOM      1  C   UNL     1      52.351  35.157   7.379  0.00  0.00    +0.090 C 
ATOM      2  C   UNL     1      53.460  34.499   6.600  0.00  0.00    -0.135 A 
ATOM      3  C   UNL     1      54.728  35.054   6.604  0.00  0.00    +0.045 A 
ATOM      4  C   UNL     1      55.749  34.460   5.893  0.00  0.00    -0.023 A 
ATOM      5  C   UNL     1      55.503  33.290   5.166  0.00  0.00    -0.001 A 
ATOM     11  C   UNL     1      54.223  32.730   5.164  0.00  0.00    -0.072 A 
ATOM     12  C   UNL     1      53.208  33.335   5.885  0.00  0.00    +0.124 A 
ENDROOT
BRANCH   5   6
ATOM      6  C   UNL     1      56.589  32.652   4.405  0.00  0.00    +0.004 C 
ATOM      7  C   UNL     1      56.299  31.847   3.359  0.00  0.00    -0.054 C 
BRANCH   7   8
ATOM      8  C   UNL     1      57.343  31.232   2.627  0.00  0.00    +0.499 C 
ATOM      9  O   UNL     1      58.029  31.898   1.862  0.00  0.00    -0.697 OA
ATOM     10  O   UNL     1      57.560  30.034   2.759  0.00  0.00    -0.694 OA
ENDBRANCH   7   8
ENDBRANCH   5   6
BRANCH  12  13
ATOM     13  O   UNL     1      51.962  32.792   5.891  0.00  0.00    -0.319 OA
ATOM     14  C   UNL     1      51.177  32.958   4.708  0.00  0.00    +0.233 C 
ENDBRANCH  12  13
TORSDOF 3
ENDMDL
