MODEL 1
REMARK VINA RESULT:      -6.2      0.000      0.000
REMARK  Name = ZINC95486282
REMARK  12 active torsions:
REMARK  status: ('A' for Active; 'I' for Inactive)
REMARK    1  A    between atoms: C1_1  and  C2_2
REMARK    2  A    between atoms: C3_3  and  O8_28
REMARK    3  A    between atoms: C6_7  and  O7_26
REMARK    4  A    between atoms: C7_8  and  O4_16
REMARK    5  A    between atoms: C9_11  and  C12_15
REMARK    6  A    between atoms: C10_12  and  O3_13
REMARK    7  A    between atoms: O3_13  and  C11_14
REMARK    8  A    between atoms: O4_16  and  C13_17
REMARK    9  A    between atoms: C16_20  and  O6_25
REMARK   10  A    between atoms: C17_21  and  O5_23
REMARK   11  A    between atoms: O5_23  and  C19_24
REMARK   12  A    between atoms: O7_26  and  C20_27
REMARK                            x       y       z     vdW  Elec       q    Type
REMARK                         _______ _______ _______ _____ _____    ______ ____
ROOT
ATOM      1  C   UNL     1      51.460  17.260  16.323  0.00  0.00    +0.121 C 
ATOM      2  C   UNL     1      50.412  17.836  17.241  0.00  0.00    -0.154 A 
ATOM      3  C   UNL     1      49.217  17.167  17.427  0.00  0.00    +0.212 A 
ATOM      6  C   UNL     1      48.249  17.709  18.282  0.00  0.00    -0.243 A 
ATOM      7  C   UNL     1      46.963  17.030  18.510  0.00  0.00    +0.442 A 
ATOM      8  C   UNL     1      46.045  17.652  19.389  0.00  0.00    -0.079 A 
ATOM     11  C   UNL     1      46.378  18.829  19.981  0.00  0.00    +0.227 A 
ATOM     23  O   UNL     1      47.553  19.439  19.765  0.00  0.00    -0.228 OA
ATOM     24  O   UNL     1      46.698  15.972  17.961  0.00  0.00    -0.426 OA
ATOM     25  C   UNL     1      48.492  18.924  18.945  0.00  0.00    +0.180 A 
ATOM     26  C   UNL     1      49.697  19.581  18.744  0.00  0.00    -0.128 A 
ATOM     27  C   UNL     1      49.969  20.885  19.448  0.00  0.00    +0.122 C 
ATOM     28  C   UNL     1      50.652  19.036  17.901  0.00  0.00    +0.173 A 
ENDROOT
BRANCH   3   4
ATOM      4  O   UNL     1      48.983  15.993  16.786  0.00  0.00    -0.468 OA
ATOM      5  H   UNL     1      49.316  15.216  17.255  0.00  0.00    +0.403 HD
ENDBRANCH   3   4
BRANCH   8   9
ATOM      9  O   UNL     1      44.838  17.074  19.641  0.00  0.00    -0.285 OA
ATOM     10  C   UNL     1      44.779  16.139  20.721  0.00  0.00    +0.258 C 
ENDBRANCH   8   9
BRANCH  28  29
ATOM     29  O   UNL     1      51.832  19.681  17.715  0.00  0.00    -0.324 OA
ATOM     30  C   UNL     1      51.882  20.650  16.666  0.00  0.00    +0.241 C 
ENDBRANCH  28  29
BRANCH  11  12
ATOM     12  O   UNL     1      45.489  19.409  20.818  0.00  0.00    -0.207 OA
BRANCH  12  13
ATOM     13  C   UNL     1      44.856  20.535  20.395  0.00  0.00    +0.084 A 
ATOM     14  C   UNL     1      45.464  21.773  20.553  0.00  0.00    +0.004 A 
ATOM     15  C   UNL     1      44.823  22.919  20.125  0.00  0.00    +0.055 A 
ATOM     16  C   UNL     1      43.572  22.836  19.537  0.00  0.00    +0.091 A 
ATOM     19  C   UNL     1      42.961  21.597  19.375  0.00  0.00    +0.118 A 
ATOM     22  C   UNL     1      43.606  20.448  19.801  0.00  0.00    -0.044 A 
BRANCH  16  17
ATOM     17  O   UNL     1      42.941  23.966  19.115  0.00  0.00    -0.483 OA
ATOM     18  H   UNL     1      43.330  24.363  18.325  0.00  0.00    +0.393 HD
ENDBRANCH  16  17
BRANCH  19  20
ATOM     20  O   UNL     1      41.732  21.513  18.798  0.00  0.00    -0.300 OA
ATOM     21  C   UNL     1      41.328  20.230  18.316  0.00  0.00    +0.245 C 
ENDBRANCH  19  20
ENDBRANCH  12  13
ENDBRANCH  11  12
TORSDOF 7
ENDMDL
MODEL 2
REMARK VINA RESULT:      -5.8      4.648      7.237
REMARK  Name = ZINC95486282
REMARK  12 active torsions:
REMARK  status: ('A' for Active; 'I' for Inactive)
REMARK    1  A    between atoms: C1_1  and  C2_2
REMARK    2  A    between atoms: C3_3  and  O8_28
REMARK    3  A    between atoms: C6_7  and  O7_26
REMARK    4  A    between atoms: C7_8  and  O4_16
REMARK    5  A    between atoms: C9_11  and  C12_15
REMARK    6  A    between atoms: C10_12  and  O3_13
REMARK    7  A    between atoms: O3_13  and  C11_14
REMARK    8  A    between atoms: O4_16  and  C13_17
REMARK    9  A    between atoms: C16_20  and  O6_25
REMARK   10  A    between atoms: C17_21  and  O5_23
REMARK   11  A    between atoms: O5_23  and  C19_24
REMARK   12  A    between atoms: O7_26  and  C20_27
REMARK                            x       y       z     vdW  Elec       q    Type
REMARK                         _______ _______ _______ _____ _____    ______ ____
ROOT
ATOM      1  C   UNL     1      46.990  11.544  14.660  0.00  0.00    +0.121 C 
ATOM      2  C   UNL     1      47.980  12.504  15.270  0.00  0.00    -0.154 A 
ATOM      3  C   UNL     1      47.552  13.446  16.187  0.00  0.00    +0.212 A 
ATOM      6  C   UNL     1      48.479  14.332  16.749  0.00  0.00    -0.243 A 
ATOM      7  C   UNL     1      48.066  15.351  17.728  0.00  0.00    +0.442 A 
ATOM      8  C   UNL     1      49.071  16.203  18.243  0.00  0.00    -0.079 A 
ATOM     11  C   UNL     1      50.355  16.054  17.824  0.00  0.00    +0.227 A 
ATOM     23  O   UNL     1      50.720  15.123  16.930  0.00  0.00    -0.228 OA
ATOM     24  O   UNL     1      46.902  15.456  18.083  0.00  0.00    -0.426 OA
ATOM     25  C   UNL     1      49.834  14.264  16.383  0.00  0.00    +0.180 A 
ATOM     26  C   UNL     1      50.244  13.312  15.462  0.00  0.00    -0.128 A 
ATOM     27  C   UNL     1      51.694  13.229  15.061  0.00  0.00    +0.122 C 
ATOM     28  C   UNL     1      49.323  12.435  14.914  0.00  0.00    +0.173 A 
ENDROOT
BRANCH   3   4
ATOM      4  O   UNL     1      46.242  13.511  16.539  0.00  0.00    -0.468 OA
ATOM      5  H   UNL     1      46.061  14.119  17.270  0.00  0.00    +0.403 HD
ENDBRANCH   3   4
BRANCH   8   9
ATOM      9  O   UNL     1      48.753  17.166  19.153  0.00  0.00    -0.285 OA
ATOM     10  C   UNL     1      48.802  16.797  20.533  0.00  0.00    +0.258 C 
ENDBRANCH   8   9
BRANCH  28  29
ATOM     29  O   UNL     1      49.733  11.502  14.017  0.00  0.00    -0.324 OA
ATOM     30  C   UNL     1      50.246  10.277  14.543  0.00  0.00    +0.241 C 
ENDBRANCH  28  29
BRANCH  11  12
ATOM     12  O   UNL     1      51.302  16.878  18.326  0.00  0.00    -0.207 OA
BRANCH  12  13
ATOM     13  C   UNL     1      51.464  18.094  17.741  0.00  0.00    +0.084 A 
ATOM     14  C   UNL     1      51.640  18.185  16.368  0.00  0.00    +0.004 A 
ATOM     15  C   UNL     1      51.805  19.420  15.770  0.00  0.00    +0.055 A 
ATOM     16  C   UNL     1      51.795  20.571  16.542  0.00  0.00    +0.091 A 
ATOM     19  C   UNL     1      51.617  20.483  17.919  0.00  0.00    +0.118 A 
ATOM     22  C   UNL     1      51.447  19.245  18.515  0.00  0.00    -0.044 A 
BRANCH  16  17
ATOM     17  O   UNL     1      51.958  21.787  15.953  0.00  0.00    -0.483 OA
ATOM     18  H   UNL     1      52.002  22.524  16.577  0.00  0.00    +0.393 HD
ENDBRANCH  16  17
BRANCH  19  20
ATOM     20  O   UNL     1      51.607  21.611  18.678  0.00  0.00    -0.300 OA
ATOM     21  C   UNL     1      52.435  21.618  19.842  0.00  0.00    +0.245 C 
ENDBRANCH  19  20
ENDBRANCH  12  13
ENDBRANCH  11  12
TORSDOF 7
ENDMDL
MODEL 3
REMARK VINA RESULT:      -5.6      2.014      3.507
REMARK  Name = ZINC95486282
REMARK  12 active torsions:
REMARK  status: ('A' for Active; 'I' for Inactive)
REMARK    1  A    between atoms: C1_1  and  C2_2
REMARK    2  A    between atoms: C3_3  and  O8_28
REMARK    3  A    between atoms: C6_7  and  O7_26
REMARK    4  A    between atoms: C7_8  and  O4_16
REMARK    5  A    between atoms: C9_11  and  C12_15
REMARK    6  A    between atoms: C10_12  and  O3_13
REMARK    7  A    between atoms: O3_13  and  C11_14
REMARK    8  A    between atoms: O4_16  and  C13_17
REMARK    9  A    between atoms: C16_20  and  O6_25
REMARK   10  A    between atoms: C17_21  and  O5_23
REMARK   11  A    between atoms: O5_23  and  C19_24
REMARK   12  A    between atoms: O7_26  and  C20_27
REMARK                            x       y       z     vdW  Elec       q    Type
REMARK                         _______ _______ _______ _____ _____    ______ ____
ROOT
ATOM      1  C   UNL     1      51.831  21.072  18.943  0.00  0.00    +0.121 C 
ATOM      2  C   UNL     1      50.635  20.254  19.356  0.00  0.00    -0.154 A 
ATOM      3  C   UNL     1      50.065  19.365  18.463  0.00  0.00    +0.212 A 
ATOM      6  C   UNL     1      48.954  18.608  18.857  0.00  0.00    -0.243 A 
ATOM      7  C   UNL     1      48.317  17.651  17.938  0.00  0.00    +0.442 A 
ATOM      8  C   UNL     1      47.200  16.930  18.421  0.00  0.00    -0.079 A 
ATOM     11  C   UNL     1      46.764  17.143  19.691  0.00  0.00    +0.227 A 
ATOM     23  O   UNL     1      47.352  18.019  20.519  0.00  0.00    -0.228 OA
ATOM     24  O   UNL     1      48.737  17.484  16.803  0.00  0.00    -0.426 OA
ATOM     25  C   UNL     1      48.423  18.752  20.149  0.00  0.00    +0.180 A 
ATOM     26  C   UNL     1      49.007  19.649  21.031  0.00  0.00    -0.128 A 
ATOM     27  C   UNL     1      48.446  19.813  22.420  0.00  0.00    +0.122 C 
ATOM     28  C   UNL     1      50.110  20.390  20.637  0.00  0.00    +0.173 A 
ENDROOT
BRANCH   3   4
ATOM      4  O   UNL     1      50.579  19.227  17.214  0.00  0.00    -0.468 OA
ATOM      5  H   UNL     1      50.792  20.065  16.782  0.00  0.00    +0.403 HD
ENDBRANCH   3   4
BRANCH   8   9
ATOM      9  O   UNL     1      46.566  16.029  17.620  0.00  0.00    -0.285 OA
ATOM     10  C   UNL     1      47.107  14.707  17.577  0.00  0.00    +0.258 C 
ENDBRANCH   8   9
BRANCH  28  29
ATOM     29  O   UNL     1      50.680  21.262  21.507  0.00  0.00    -0.324 OA
ATOM     30  C   UNL     1      51.745  20.765  22.320  0.00  0.00    +0.241 C 
ENDBRANCH  28  29
BRANCH  11  12
ATOM     12  O   UNL     1      45.694  16.446  20.135  0.00  0.00    -0.207 OA
BRANCH  12  13
ATOM     13  C   UNL     1      44.627  17.146  20.603  0.00  0.00    +0.084 A 
ATOM     14  C   UNL     1      44.032  16.783  21.803  0.00  0.00    +0.004 A 
ATOM     15  C   UNL     1      42.946  17.492  22.281  0.00  0.00    +0.055 A 
ATOM     16  C   UNL     1      42.450  18.567  21.563  0.00  0.00    +0.091 A 
ATOM     19  C   UNL     1      43.045  18.934  20.360  0.00  0.00    +0.118 A 
ATOM     22  C   UNL     1      44.136  18.226  19.885  0.00  0.00    -0.044 A 
BRANCH  16  17
ATOM     17  O   UNL     1      41.380  19.265  22.033  0.00  0.00    -0.483 OA
ATOM     18  H   UNL     1      41.278  19.228  22.994  0.00  0.00    +0.393 HD
ENDBRANCH  16  17
BRANCH  19  20
ATOM     20  O   UNL     1      42.559  19.990  19.653  0.00  0.00    -0.300 OA
ATOM     21  C   UNL     1      43.401  21.138  19.540  0.00  0.00    +0.245 C 
ENDBRANCH  19  20
ENDBRANCH  12  13
ENDBRANCH  11  12
TORSDOF 7
ENDMDL
MODEL 4
REMARK VINA RESULT:      -5.6      1.941      6.807
REMARK  Name = ZINC95486282
REMARK  12 active torsions:
REMARK  status: ('A' for Active; 'I' for Inactive)
REMARK    1  A    between atoms: C1_1  and  C2_2
REMARK    2  A    between atoms: C3_3  and  O8_28
REMARK    3  A    between atoms: C6_7  and  O7_26
REMARK    4  A    between atoms: C7_8  and  O4_16
REMARK    5  A    between atoms: C9_11  and  C12_15
REMARK    6  A    between atoms: C10_12  and  O3_13
REMARK    7  A    between atoms: O3_13  and  C11_14
REMARK    8  A    between atoms: O4_16  and  C13_17
REMARK    9  A    between atoms: C16_20  and  O6_25
REMARK   10  A    between atoms: C17_21  and  O5_23
REMARK   11  A    between atoms: O5_23  and  C19_24
REMARK   12  A    between atoms: O7_26  and  C20_27
REMARK                            x       y       z     vdW  Elec       q    Type
REMARK                         _______ _______ _______ _____ _____    ______ ____
ROOT
ATOM      1  C   UNL     1      43.480  18.158  20.651  0.00  0.00    +0.121 C 
ATOM      2  C   UNL     1      44.918  18.089  20.204  0.00  0.00    -0.154 A 
ATOM      3  C   UNL     1      45.478  16.870  19.867  0.00  0.00    +0.212 A 
ATOM      6  C   UNL     1      46.814  16.816  19.453  0.00  0.00    -0.243 A 
ATOM      7  C   UNL     1      47.449  15.540  19.085  0.00  0.00    +0.442 A 
ATOM      8  C   UNL     1      48.804  15.580  18.679  0.00  0.00    -0.079 A 
ATOM     11  C   UNL     1      49.457  16.772  18.642  0.00  0.00    +0.227 A 
ATOM     23  O   UNL     1      48.868  17.928  18.980  0.00  0.00    -0.228 OA
ATOM     24  O   UNL     1      46.831  14.487  19.129  0.00  0.00    -0.426 OA
ATOM     25  C   UNL     1      47.581  17.991  19.380  0.00  0.00    +0.180 A 
ATOM     26  C   UNL     1      47.002  19.204  19.722  0.00  0.00    -0.128 A 
ATOM     27  C   UNL     1      47.813  20.472  19.649  0.00  0.00    +0.122 C 
ATOM     28  C   UNL     1      45.677  19.252  20.126  0.00  0.00    +0.173 A 
ENDROOT
BRANCH   3   4
ATOM      4  O   UNL     1      44.737  15.734  19.939  0.00  0.00    -0.468 OA
ATOM      5  H   UNL     1      44.093  15.730  20.660  0.00  0.00    +0.403 HD
ENDBRANCH   3   4
BRANCH   8   9
ATOM      9  O   UNL     1      49.449  14.433  18.326  0.00  0.00    -0.285 OA
ATOM     10  C   UNL     1      49.373  14.042  16.953  0.00  0.00    +0.258 C 
ENDBRANCH   8   9
BRANCH  28  29
ATOM     29  O   UNL     1      45.116  20.444  20.454  0.00  0.00    -0.324 OA
ATOM     30  C   UNL     1      44.468  21.166  19.406  0.00  0.00    +0.241 C 
ENDBRANCH  28  29
BRANCH  11  12
ATOM     12  O   UNL     1      50.750  16.791  18.251  0.00  0.00    -0.207 OA
BRANCH  12  13
ATOM     13  C   UNL     1      51.229  17.931  17.687  0.00  0.00    +0.084 A 
ATOM     14  C   UNL     1      51.071  18.151  16.326  0.00  0.00    +0.004 A 
ATOM     15  C   UNL     1      51.557  19.309  15.749  0.00  0.00    +0.055 A 
ATOM     16  C   UNL     1      52.203  20.254  16.529  0.00  0.00    +0.091 A 
ATOM     19  C   UNL     1      52.361  20.037  17.895  0.00  0.00    +0.118 A 
ATOM     22  C   UNL     1      51.870  18.878  18.472  0.00  0.00    -0.044 A 
BRANCH  16  17
ATOM     17  O   UNL     1      52.682  21.394  15.961  0.00  0.00    -0.483 OA
ATOM     18  H   UNL     1      53.487  21.732  16.375  0.00  0.00    +0.393 HD
ENDBRANCH  16  17
BRANCH  19  20
ATOM     20  O   UNL     1      52.995  20.964  18.662  0.00  0.00    -0.300 OA
ATOM     21  C   UNL     1      52.268  21.495  19.772  0.00  0.00    +0.245 C 
ENDBRANCH  19  20
ENDBRANCH  12  13
ENDBRANCH  11  12
TORSDOF 7
ENDMDL
MODEL 5
REMARK VINA RESULT:      -5.5      2.000      7.204
REMARK  Name = ZINC95486282
REMARK  12 active torsions:
REMARK  status: ('A' for Active; 'I' for Inactive)
REMARK    1  A    between atoms: C1_1  and  C2_2
REMARK    2  A    between atoms: C3_3  and  O8_28
REMARK    3  A    between atoms: C6_7  and  O7_26
REMARK    4  A    between atoms: C7_8  and  O4_16
REMARK    5  A    between atoms: C9_11  and  C12_15
REMARK    6  A    between atoms: C10_12  and  O3_13
REMARK    7  A    between atoms: O3_13  and  C11_14
REMARK    8  A    between atoms: O4_16  and  C13_17
REMARK    9  A    between atoms: C16_20  and  O6_25
REMARK   10  A    between atoms: C17_21  and  O5_23
REMARK   11  A    between atoms: O5_23  and  C19_24
REMARK   12  A    between atoms: O7_26  and  C20_27
REMARK                            x       y       z     vdW  Elec       q    Type
REMARK                         _______ _______ _______ _____ _____    ______ ____
ROOT
ATOM      1  C   UNL     1      42.847  19.149  22.460  0.00  0.00    +0.121 C 
ATOM      2  C   UNL     1      43.707  18.633  21.335  0.00  0.00    -0.154 A 
ATOM      3  C   UNL     1      44.038  17.292  21.280  0.00  0.00    +0.212 A 
ATOM      6  C   UNL     1      44.837  16.821  20.231  0.00  0.00    -0.243 A 
ATOM      7  C   UNL     1      45.213  15.401  20.133  0.00  0.00    +0.442 A 
ATOM      8  C   UNL     1      46.023  15.016  19.039  0.00  0.00    -0.079 A 
ATOM     11  C   UNL     1      46.416  15.952  18.135  0.00  0.00    +0.227 A 
ATOM     23  O   UNL     1      46.068  17.243  18.234  0.00  0.00    -0.228 OA
ATOM     24  O   UNL     1      44.841  14.587  20.965  0.00  0.00    -0.426 OA
ATOM     25  C   UNL     1      45.298  17.706  19.241  0.00  0.00    +0.180 A 
ATOM     26  C   UNL     1      44.956  19.048  19.314  0.00  0.00    -0.128 A 
ATOM     27  C   UNL     1      45.445  20.007  18.260  0.00  0.00    +0.122 C 
ATOM     28  C   UNL     1      44.161  19.506  20.352  0.00  0.00    +0.173 A 
ENDROOT
BRANCH   3   4
ATOM      4  O   UNL     1      43.593  16.437  22.237  0.00  0.00    -0.468 OA
ATOM      5  H   UNL     1      43.869  16.672  23.133  0.00  0.00    +0.403 HD
ENDBRANCH   3   4
BRANCH   8   9
ATOM      9  O   UNL     1      46.406  13.716  18.893  0.00  0.00    -0.285 OA
ATOM     10  C   UNL     1      45.509  12.851  18.193  0.00  0.00    +0.258 C 
ENDBRANCH   8   9
BRANCH  28  29
ATOM     29  O   UNL     1      43.825  20.820  20.413  0.00  0.00    -0.324 OA
ATOM     30  C   UNL     1      42.797  21.269  19.529  0.00  0.00    +0.241 C 
ENDBRANCH  28  29
BRANCH  11  12
ATOM     12  O   UNL     1      47.190  15.565  17.097  0.00  0.00    -0.207 OA
BRANCH  12  13
ATOM     13  C   UNL     1      48.516  15.863  17.144  0.00  0.00    +0.084 A 
ATOM     14  C   UNL     1      49.452  14.843  17.237  0.00  0.00    +0.004 A 
ATOM     15  C   UNL     1      50.800  15.143  17.286  0.00  0.00    +0.055 A 
ATOM     16  C   UNL     1      51.220  16.462  17.241  0.00  0.00    +0.091 A 
ATOM     19  C   UNL     1      50.283  17.487  17.145  0.00  0.00    +0.118 A 
ATOM     22  C   UNL     1      48.933  17.185  17.092  0.00  0.00    -0.044 A 
BRANCH  16  17
ATOM     17  O   UNL     1      52.548  16.757  17.289  0.00  0.00    -0.483 OA
ATOM     18  H   UNL     1      53.098  16.185  16.737  0.00  0.00    +0.393 HD
ENDBRANCH  16  17
BRANCH  19  20
ATOM     20  O   UNL     1      50.693  18.783  17.100  0.00  0.00    -0.300 OA
ATOM     21  C   UNL     1      50.525  19.558  18.289  0.00  0.00    +0.245 C 
ENDBRANCH  19  20
ENDBRANCH  12  13
ENDBRANCH  11  12
TORSDOF 7
ENDMDL
MODEL 6
REMARK VINA RESULT:      -5.5      2.101      6.819
REMARK  Name = ZINC95486282
REMARK  12 active torsions:
REMARK  status: ('A' for Active; 'I' for Inactive)
REMARK    1  A    between atoms: C1_1  and  C2_2
REMARK    2  A    between atoms: C3_3  and  O8_28
REMARK    3  A    between atoms: C6_7  and  O7_26
REMARK    4  A    between atoms: C7_8  and  O4_16
REMARK    5  A    between atoms: C9_11  and  C12_15
REMARK    6  A    between atoms: C10_12  and  O3_13
REMARK    7  A    between atoms: O3_13  and  C11_14
REMARK    8  A    between atoms: O4_16  and  C13_17
REMARK    9  A    between atoms: C16_20  and  O6_25
REMARK   10  A    between atoms: C17_21  and  O5_23
REMARK   11  A    between atoms: O5_23  and  C19_24
REMARK   12  A    between atoms: O7_26  and  C20_27
REMARK                            x       y       z     vdW  Elec       q    Type
REMARK                         _______ _______ _______ _____ _____    ______ ____
ROOT
ATOM      1  C   UNL     1      42.585  18.485  21.328  0.00  0.00    +0.121 C 
ATOM      2  C   UNL     1      43.924  18.600  20.646  0.00  0.00    -0.154 A 
ATOM      3  C   UNL     1      44.793  17.525  20.647  0.00  0.00    +0.212 A 
ATOM      6  C   UNL     1      46.035  17.642  20.011  0.00  0.00    -0.243 A 
ATOM      7  C   UNL     1      46.990  16.522  19.988  0.00  0.00    +0.442 A 
ATOM      8  C   UNL     1      48.221  16.730  19.321  0.00  0.00    -0.079 A 
ATOM     11  C   UNL     1      48.471  17.931  18.737  0.00  0.00    +0.227 A 
ATOM     23  O   UNL     1      47.593  18.944  18.764  0.00  0.00    -0.228 OA
ATOM     24  O   UNL     1      46.732  15.455  20.524  0.00  0.00    -0.426 OA
ATOM     25  C   UNL     1      46.394  18.842  19.375  0.00  0.00    +0.180 A 
ATOM     26  C   UNL     1      45.509  19.909  19.384  0.00  0.00    -0.128 A 
ATOM     27  C   UNL     1      45.882  21.202  18.707  0.00  0.00    +0.122 C 
ATOM     28  C   UNL     1      44.279  19.786  20.012  0.00  0.00    +0.173 A 
ENDROOT
BRANCH   3   4
ATOM      4  O   UNL     1      44.446  16.365  21.263  0.00  0.00    -0.468 OA
ATOM      5  H   UNL     1      43.583  16.022  20.995  0.00  0.00    +0.403 HD
ENDBRANCH   3   4
BRANCH   8   9
ATOM      9  O   UNL     1      49.148  15.732  19.266  0.00  0.00    -0.285 OA
ATOM     10  C   UNL     1      49.055  14.822  18.168  0.00  0.00    +0.258 C 
ENDBRANCH   8   9
BRANCH  28  29
ATOM     29  O   UNL     1      43.416  20.833  20.012  0.00  0.00    -0.324 OA
ATOM     30  C   UNL     1      42.428  20.860  18.980  0.00  0.00    +0.241 C 
ENDBRANCH  28  29
BRANCH  11  12
ATOM     12  O   UNL     1      49.652  18.111  18.105  0.00  0.00    -0.207 OA
BRANCH  12  13
ATOM     13  C   UNL     1      50.462  19.112  18.541  0.00  0.00    +0.084 A 
ATOM     14  C   UNL     1      50.718  20.203  17.722  0.00  0.00    +0.004 A 
ATOM     15  C   UNL     1      51.542  21.221  18.163  0.00  0.00    +0.055 A 
ATOM     16  C   UNL     1      52.113  21.156  19.423  0.00  0.00    +0.091 A 
ATOM     19  C   UNL     1      51.856  20.064  20.246  0.00  0.00    +0.118 A 
ATOM     22  C   UNL     1      51.028  19.046  19.805  0.00  0.00    -0.044 A 
BRANCH  16  17
ATOM     17  O   UNL     1      52.924  22.159  19.856  0.00  0.00    -0.483 OA
ATOM     18  H   UNL     1      53.801  22.160  19.449  0.00  0.00    +0.393 HD
ENDBRANCH  16  17
BRANCH  19  20
ATOM     20  O   UNL     1      52.416  19.998  21.484  0.00  0.00    -0.300 OA
ATOM     21  C   UNL     1      52.460  18.714  22.109  0.00  0.00    +0.245 C 
ENDBRANCH  19  20
ENDBRANCH  12  13
ENDBRANCH  11  12
TORSDOF 7
ENDMDL
MODEL 7
REMARK VINA RESULT:      -5.4      2.245      4.303
REMARK  Name = ZINC95486282
REMARK  12 active torsions:
REMARK  status: ('A' for Active; 'I' for Inactive)
REMARK    1  A    between atoms: C1_1  and  C2_2
REMARK    2  A    between atoms: C3_3  and  O8_28
REMARK    3  A    between atoms: C6_7  and  O7_26
REMARK    4  A    between atoms: C7_8  and  O4_16
REMARK    5  A    between atoms: C9_11  and  C12_15
REMARK    6  A    between atoms: C10_12  and  O3_13
REMARK    7  A    between atoms: O3_13  and  C11_14
REMARK    8  A    between atoms: O4_16  and  C13_17
REMARK    9  A    between atoms: C16_20  and  O6_25
REMARK   10  A    between atoms: C17_21  and  O5_23
REMARK   11  A    between atoms: O5_23  and  C19_24
REMARK   12  A    between atoms: O7_26  and  C20_27
REMARK                            x       y       z     vdW  Elec       q    Type
REMARK                         _______ _______ _______ _____ _____    ______ ____
ROOT
ATOM      1  C   UNL     1      52.065  20.356  21.721  0.00  0.00    +0.121 C 
ATOM      2  C   UNL     1      50.739  20.265  21.011  0.00  0.00    -0.154 A 
ATOM      3  C   UNL     1      49.686  21.067  21.413  0.00  0.00    +0.212 A 
ATOM      6  C   UNL     1      48.458  20.977  20.747  0.00  0.00    -0.243 A 
ATOM      7  C   UNL     1      47.311  21.811  21.142  0.00  0.00    +0.442 A 
ATOM      8  C   UNL     1      46.109  21.652  20.413  0.00  0.00    -0.079 A 
ATOM     11  C   UNL     1      46.057  20.754  19.394  0.00  0.00    +0.227 A 
ATOM     23  O   UNL     1      47.109  19.999  19.044  0.00  0.00    -0.228 OA
ATOM     24  O   UNL     1      47.394  22.609  22.063  0.00  0.00    -0.426 OA
ATOM     25  C   UNL     1      48.297  20.079  19.679  0.00  0.00    +0.180 A 
ATOM     26  C   UNL     1      49.364  19.283  19.291  0.00  0.00    -0.128 A 
ATOM     27  C   UNL     1      49.204  18.316  18.146  0.00  0.00    +0.122 C 
ATOM     28  C   UNL     1      50.578  19.381  19.950  0.00  0.00    +0.173 A 
ENDROOT
BRANCH   3   4
ATOM      4  O   UNL     1      49.842  21.934  22.447  0.00  0.00    -0.468 OA
ATOM      5  H   UNL     1      49.938  22.857  22.174  0.00  0.00    +0.403 HD
ENDBRANCH   3   4
BRANCH   8   9
ATOM      9  O   UNL     1      45.012  22.395  20.730  0.00  0.00    -0.285 OA
ATOM     10  C   UNL     1      44.834  23.625  20.023  0.00  0.00    +0.258 C 
ENDBRANCH   8   9
BRANCH  28  29
ATOM     29  O   UNL     1      51.621  18.603  19.561  0.00  0.00    -0.324 OA
ATOM     30  C   UNL     1      52.450  19.107  18.512  0.00  0.00    +0.241 C 
ENDBRANCH  28  29
BRANCH  11  12
ATOM     12  O   UNL     1      44.901  20.616  18.709  0.00  0.00    -0.207 OA
BRANCH  12  13
ATOM     13  C   UNL     1      43.836  20.075  19.359  0.00  0.00    +0.084 A 
ATOM     14  C   UNL     1      44.013  18.970  20.179  0.00  0.00    +0.004 A 
ATOM     15  C   UNL     1      42.932  18.417  20.840  0.00  0.00    +0.055 A 
ATOM     16  C   UNL     1      41.670  18.966  20.685  0.00  0.00    +0.091 A 
ATOM     19  C   UNL     1      41.490  20.075  19.865  0.00  0.00    +0.118 A 
ATOM     22  C   UNL     1      42.574  20.631  19.206  0.00  0.00    -0.044 A 
BRANCH  16  17
ATOM     17  O   UNL     1      40.606  18.422  21.336  0.00  0.00    -0.483 OA
ATOM     18  H   UNL     1      40.220  17.657  20.888  0.00  0.00    +0.393 HD
ENDBRANCH  16  17
BRANCH  19  20
ATOM     20  O   UNL     1      40.251  20.616  19.711  0.00  0.00    -0.300 OA
ATOM     21  C   UNL     1      39.958  21.219  18.450  0.00  0.00    +0.245 C 
ENDBRANCH  19  20
ENDBRANCH  12  13
ENDBRANCH  11  12
TORSDOF 7
ENDMDL
MODEL 8
REMARK VINA RESULT:      -5.4      1.535      2.721
REMARK  Name = ZINC95486282
REMARK  12 active torsions:
REMARK  status: ('A' for Active; 'I' for Inactive)
REMARK    1  A    between atoms: C1_1  and  C2_2
REMARK    2  A    between atoms: C3_3  and  O8_28
REMARK    3  A    between atoms: C6_7  and  O7_26
REMARK    4  A    between atoms: C7_8  and  O4_16
REMARK    5  A    between atoms: C9_11  and  C12_15
REMARK    6  A    between atoms: C10_12  and  O3_13
REMARK    7  A    between atoms: O3_13  and  C11_14
REMARK    8  A    between atoms: O4_16  and  C13_17
REMARK    9  A    between atoms: C16_20  and  O6_25
REMARK   10  A    between atoms: C17_21  and  O5_23
REMARK   11  A    between atoms: O5_23  and  C19_24
REMARK   12  A    between atoms: O7_26  and  C20_27
REMARK                            x       y       z     vdW  Elec       q    Type
REMARK                         _______ _______ _______ _____ _____    ______ ____
ROOT
ATOM      1  C   UNL     1      52.752  20.270  18.360  0.00  0.00    +0.121 C 
ATOM      2  C   UNL     1      51.363  20.011  18.883  0.00  0.00    -0.154 A 
ATOM      3  C   UNL     1      50.520  19.151  18.204  0.00  0.00    +0.212 A 
ATOM      6  C   UNL     1      49.230  18.917  18.698  0.00  0.00    -0.243 A 
ATOM      7  C   UNL     1      48.300  18.009  18.007  0.00  0.00    +0.442 A 
ATOM      8  C   UNL     1      47.018  17.832  18.578  0.00  0.00    -0.079 A 
ATOM     11  C   UNL     1      46.698  18.493  19.722  0.00  0.00    +0.227 A 
ATOM     23  O   UNL     1      47.553  19.319  20.342  0.00  0.00    -0.228 OA
ATOM     24  O   UNL     1      48.623  17.430  16.980  0.00  0.00    -0.426 OA
ATOM     25  C   UNL     1      48.798  19.551  19.875  0.00  0.00    +0.180 A 
ATOM     26  C   UNL     1      49.658  20.410  20.541  0.00  0.00    -0.128 A 
ATOM     27  C   UNL     1      49.205  21.097  21.804  0.00  0.00    +0.122 C 
ATOM     28  C   UNL     1      50.934  20.634  20.050  0.00  0.00    +0.173 A 
ENDROOT
BRANCH   3   4
ATOM      4  O   UNL     1      50.938  18.539  17.066  0.00  0.00    -0.468 OA
ATOM      5  H   UNL     1      50.521  17.682  16.905  0.00  0.00    +0.403 HD
ENDBRANCH   3   4
BRANCH   8   9
ATOM      9  O   UNL     1      46.112  17.005  17.986  0.00  0.00    -0.285 OA
ATOM     10  C   UNL     1      46.149  15.627  18.362  0.00  0.00    +0.258 C 
ENDBRANCH   8   9
BRANCH  28  29
ATOM     29  O   UNL     1      51.772  21.472  20.711  0.00  0.00    -0.324 OA
ATOM     30  C   UNL     1      52.582  20.901  21.740  0.00  0.00    +0.241 C 
ENDBRANCH  28  29
BRANCH  11  12
ATOM     12  O   UNL     1      45.468  18.312  20.253  0.00  0.00    -0.207 OA
BRANCH  12  13
ATOM     13  C   UNL     1      44.516  19.247  19.990  0.00  0.00    +0.084 A 
ATOM     14  C   UNL     1      43.193  18.863  19.830  0.00  0.00    +0.004 A 
ATOM     15  C   UNL     1      42.223  19.810  19.562  0.00  0.00    +0.055 A 
ATOM     16  C   UNL     1      42.571  21.147  19.454  0.00  0.00    +0.091 A 
ATOM     19  C   UNL     1      43.897  21.535  19.616  0.00  0.00    +0.118 A 
ATOM     22  C   UNL     1      44.867  20.585  19.888  0.00  0.00    -0.044 A 
BRANCH  16  17
ATOM     17  O   UNL     1      41.616  22.080  19.190  0.00  0.00    -0.483 OA
ATOM     18  H   UNL     1      41.956  22.982  19.119  0.00  0.00    +0.393 HD
ENDBRANCH  16  17
BRANCH  19  20
ATOM     20  O   UNL     1      44.241  22.847  19.510  0.00  0.00    -0.300 OA
ATOM     21  C   UNL     1      45.048  23.393  20.555  0.00  0.00    +0.245 C 
ENDBRANCH  19  20
ENDBRANCH  12  13
ENDBRANCH  11  12
TORSDOF 7
ENDMDL
MODEL 9
REMARK VINA RESULT:      -5.4      1.978      6.744
REMARK  Name = ZINC95486282
REMARK  12 active torsions:
REMARK  status: ('A' for Active; 'I' for Inactive)
REMARK    1  A    between atoms: C1_1  and  C2_2
REMARK    2  A    between atoms: C3_3  and  O8_28
REMARK    3  A    between atoms: C6_7  and  O7_26
REMARK    4  A    between atoms: C7_8  and  O4_16
REMARK    5  A    between atoms: C9_11  and  C12_15
REMARK    6  A    between atoms: C10_12  and  O3_13
REMARK    7  A    between atoms: O3_13  and  C11_14
REMARK    8  A    between atoms: O4_16  and  C13_17
REMARK    9  A    between atoms: C16_20  and  O6_25
REMARK   10  A    between atoms: C17_21  and  O5_23
REMARK   11  A    between atoms: O5_23  and  C19_24
REMARK   12  A    between atoms: O7_26  and  C20_27
REMARK                            x       y       z     vdW  Elec       q    Type
REMARK                         _______ _______ _______ _____ _____    ______ ____
ROOT
ATOM      1  C   UNL     1      41.892  18.842  21.471  0.00  0.00    +0.121 C 
ATOM      2  C   UNL     1      43.284  18.742  20.901  0.00  0.00    -0.154 A 
ATOM      3  C   UNL     1      44.064  17.634  21.177  0.00  0.00    +0.212 A 
ATOM      6  C   UNL     1      45.355  17.550  20.642  0.00  0.00    -0.243 A 
ATOM      7  C   UNL     1      46.219  16.389  20.911  0.00  0.00    +0.442 A 
ATOM      8  C   UNL     1      47.509  16.389  20.329  0.00  0.00    -0.079 A 
ATOM     11  C   UNL     1      47.896  17.439  19.558  0.00  0.00    +0.227 A 
ATOM     23  O   UNL     1      47.100  18.492  19.321  0.00  0.00    -0.228 OA
ATOM     24  O   UNL     1      45.838  15.461  21.608  0.00  0.00    -0.426 OA
ATOM     25  C   UNL     1      45.854  18.583  19.831  0.00  0.00    +0.180 A 
ATOM     26  C   UNL     1      45.056  19.686  19.566  0.00  0.00    -0.128 A 
ATOM     27  C   UNL     1      45.580  20.801  18.698  0.00  0.00    +0.122 C 
ATOM     28  C   UNL     1      43.778  19.761  20.093  0.00  0.00    +0.173 A 
ENDROOT
BRANCH   3   4
ATOM      4  O   UNL     1      43.581  16.636  21.962  0.00  0.00    -0.468 OA
ATOM      5  H   UNL     1      44.153  16.413  22.709  0.00  0.00    +0.403 HD
ENDBRANCH   3   4
BRANCH   8   9
ATOM      9  O   UNL     1      48.357  15.343  20.540  0.00  0.00    -0.285 OA
ATOM     10  C   UNL     1      49.211  15.421  21.682  0.00  0.00    +0.258 C 
ENDBRANCH   8   9
BRANCH  28  29
ATOM     29  O   UNL     1      43.001  20.841  19.824  0.00  0.00    -0.324 OA
ATOM     30  C   UNL     1      42.082  20.725  18.736  0.00  0.00    +0.241 C 
ENDBRANCH  28  29
BRANCH  11  12
ATOM     12  O   UNL     1      49.131  17.422  19.011  0.00  0.00    -0.207 OA
BRANCH  12  13
ATOM     13  C   UNL     1      49.891  18.545  19.116  0.00  0.00    +0.084 A 
ATOM     14  C   UNL     1      50.318  18.978  20.363  0.00  0.00    +0.004 A 
ATOM     15  C   UNL     1      51.090  20.119  20.474  0.00  0.00    +0.055 A 
ATOM     16  C   UNL     1      51.439  20.832  19.339  0.00  0.00    +0.091 A 
ATOM     19  C   UNL     1      51.014  20.399  18.087  0.00  0.00    +0.118 A 
ATOM     22  C   UNL     1      50.244  19.253  17.978  0.00  0.00    -0.044 A 
BRANCH  16  17
ATOM     17  O   UNL     1      52.199  21.956  19.448  0.00  0.00    -0.483 OA
ATOM     18  H   UNL     1      53.072  21.882  19.040  0.00  0.00    +0.393 HD
ENDBRANCH  16  17
BRANCH  19  20
ATOM     20  O   UNL     1      51.356  21.099  16.972  0.00  0.00    -0.300 OA
ATOM     21  C   UNL     1      52.162  20.423  16.005  0.00  0.00    +0.245 C 
ENDBRANCH  19  20
ENDBRANCH  12  13
ENDBRANCH  11  12
TORSDOF 7
ENDMDL
