MODEL 1
REMARK VINA RESULT:      -6.1      0.000      0.000
REMARK  Name = ZINC14645975
REMARK  9 active torsions:
REMARK  status: ('A' for Active; 'I' for Inactive)
REMARK    1  A    between atoms: C1_1  and  O1_2
REMARK    2  A    between atoms: O1_2  and  C2_3
REMARK    3  A    between atoms: C4_5  and  O7_25
REMARK    4  A    between atoms: C9_11  and  C11_14
REMARK    5  A    between atoms: C13_16  and  O6_24
REMARK    6  A    between atoms: C14_17  and  O5_22
REMARK    7  A    between atoms: C15_18  and  O4_20
REMARK    8  A    between atoms: O4_20  and  C17_21
REMARK    9  A    between atoms: O5_22  and  C18_23
REMARK                            x       y       z     vdW  Elec       q    Type
REMARK                         _______ _______ _______ _____ _____    ______ ____
ROOT
ATOM      3  C   UNL     1      41.869  20.671  18.680  0.00  0.00    +0.212 A 
ATOM      4  C   UNL     1      42.206  21.803  19.413  0.00  0.00    -0.118 A 
ATOM      5  C   UNL     1      43.525  22.042  19.752  0.00  0.00    +0.243 A 
ATOM      8  C   UNL     1      44.516  21.139  19.348  0.00  0.00    -0.289 A 
ATOM      9  C   UNL     1      44.173  19.991  18.611  0.00  0.00    +0.201 A 
ATOM     10  O   UNL     1      45.128  19.120  18.227  0.00  0.00    -0.214 OA
ATOM     11  C   UNL     1      46.423  19.277  18.515  0.00  0.00    +0.344 A 
ATOM     12  C   UNL     1      46.889  20.336  19.224  0.00  0.00    -0.246 A 
ATOM     25  C   UNL     1      45.930  21.352  19.695  0.00  0.00    +0.434 A 
ATOM     26  O   UNL     1      46.291  22.325  20.335  0.00  0.00    -0.441 OA
ATOM     27  C   UNL     1      42.844  19.770  18.280  0.00  0.00    -0.034 A 
ENDROOT
BRANCH  12  13
ATOM     13  C   UNL     1      48.337  20.470  19.521  0.00  0.00    +0.027 A 
ATOM     14  C   UNL     1      48.805  20.269  20.818  0.00  0.00    +0.002 A 
ATOM     15  C   UNL     1      50.156  20.394  21.093  0.00  0.00    +0.132 A 
ATOM     18  C   UNL     1      51.046  20.720  20.075  0.00  0.00    +0.040 A 
ATOM     21  C   UNL     1      50.580  20.921  18.780  0.00  0.00    +0.129 A 
ATOM     24  C   UNL     1      49.230  20.791  18.501  0.00  0.00    -0.062 A 
BRANCH  15  16
ATOM     16  O   UNL     1      50.613  20.198  22.358  0.00  0.00    -0.481 OA
ATOM     17  H   UNL     1      51.338  20.787  22.610  0.00  0.00    +0.392 HD
ENDBRANCH  15  16
BRANCH  18  19
ATOM     19  O   UNL     1      52.374  20.844  20.347  0.00  0.00    -0.315 OA
ATOM     20  C   UNL     1      52.863  22.163  20.601  0.00  0.00    +0.220 C 
ENDBRANCH  18  19
BRANCH  21  22
ATOM     22  O   UNL     1      51.452  21.240  17.786  0.00  0.00    -0.302 OA
ATOM     23  C   UNL     1      51.823  20.192  16.889  0.00  0.00    +0.242 C 
ENDBRANCH  21  22
ENDBRANCH  12  13
BRANCH   3   2
ATOM      1  C   UNL     1      39.645  21.504  18.605  0.00  0.00    +0.257 C 
ATOM      2  O   UNL     1      40.572  20.446  18.351  0.00  0.00    -0.302 OA
ENDBRANCH   3   2
BRANCH   5   6
ATOM      6  O   UNL     1      43.857  23.147  20.468  0.00  0.00    -0.474 OA
ATOM      7  H   UNL     1      43.483  23.968  20.120  0.00  0.00    +0.404 HD
ENDBRANCH   5   6
TORSDOF 6
ENDMDL
MODEL 2
REMARK VINA RESULT:      -5.8      0.576      2.048
REMARK  Name = ZINC14645975
REMARK  9 active torsions:
REMARK  status: ('A' for Active; 'I' for Inactive)
REMARK    1  A    between atoms: C1_1  and  O1_2
REMARK    2  A    between atoms: O1_2  and  C2_3
REMARK    3  A    between atoms: C4_5  and  O7_25
REMARK    4  A    between atoms: C9_11  and  C11_14
REMARK    5  A    between atoms: C13_16  and  O6_24
REMARK    6  A    between atoms: C14_17  and  O5_22
REMARK    7  A    between atoms: C15_18  and  O4_20
REMARK    8  A    between atoms: O4_20  and  C17_21
REMARK    9  A    between atoms: O5_22  and  C18_23
REMARK                            x       y       z     vdW  Elec       q    Type
REMARK                         _______ _______ _______ _____ _____    ______ ____
ROOT
ATOM      3  C   UNL     1      41.927  20.632  18.663  0.00  0.00    +0.212 A 
ATOM      4  C   UNL     1      42.270  21.762  19.399  0.00  0.00    -0.118 A 
ATOM      5  C   UNL     1      43.587  21.985  19.754  0.00  0.00    +0.243 A 
ATOM      8  C   UNL     1      44.571  21.068  19.362  0.00  0.00    -0.289 A 
ATOM      9  C   UNL     1      44.223  19.923  18.624  0.00  0.00    +0.201 A 
ATOM     10  O   UNL     1      45.171  19.039  18.253  0.00  0.00    -0.214 OA
ATOM     11  C   UNL     1      46.464  19.180  18.556  0.00  0.00    +0.344 A 
ATOM     12  C   UNL     1      46.936  20.235  19.269  0.00  0.00    -0.246 A 
ATOM     25  C   UNL     1      45.984  21.263  19.726  0.00  0.00    +0.434 A 
ATOM     26  O   UNL     1      46.350  22.233  20.369  0.00  0.00    -0.441 OA
ATOM     27  C   UNL     1      42.895  19.719  18.277  0.00  0.00    -0.034 A 
ENDROOT
BRANCH  12  13
ATOM     13  C   UNL     1      48.381  20.350  19.582  0.00  0.00    +0.027 A 
ATOM     14  C   UNL     1      49.263  20.859  18.631  0.00  0.00    +0.002 A 
ATOM     15  C   UNL     1      50.612  20.967  18.925  0.00  0.00    +0.132 A 
ATOM     18  C   UNL     1      51.086  20.566  20.169  0.00  0.00    +0.040 A 
ATOM     21  C   UNL     1      50.208  20.056  21.119  0.00  0.00    +0.129 A 
ATOM     24  C   UNL     1      48.858  19.953  20.831  0.00  0.00    -0.062 A 
BRANCH  15  16
ATOM     16  O   UNL     1      51.472  21.465  17.998  0.00  0.00    -0.481 OA
ATOM     17  H   UNL     1      51.829  20.798  17.394  0.00  0.00    +0.392 HD
ENDBRANCH  15  16
BRANCH  18  19
ATOM     19  O   UNL     1      52.412  20.671  20.456  0.00  0.00    -0.315 OA
ATOM     20  C   UNL     1      52.850  21.890  21.061  0.00  0.00    +0.220 C 
ENDBRANCH  18  19
BRANCH  21  22
ATOM     22  O   UNL     1      50.674  19.665  22.336  0.00  0.00    -0.302 OA
ATOM     23  C   UNL     1      50.957  18.275  22.505  0.00  0.00    +0.242 C 
ENDBRANCH  21  22
ENDBRANCH  12  13
BRANCH   3   2
ATOM      1  C   UNL     1      39.737  21.531  18.453  0.00  0.00    +0.257 C 
ATOM      2  O   UNL     1      40.631  20.424  18.319  0.00  0.00    -0.302 OA
ENDBRANCH   3   2
BRANCH   5   6
ATOM      6  O   UNL     1      43.925  23.086  20.472  0.00  0.00    -0.474 OA
ATOM      7  H   UNL     1      44.772  23.012  20.931  0.00  0.00    +0.404 HD
ENDBRANCH   5   6
TORSDOF 6
ENDMDL
MODEL 3
REMARK VINA RESULT:      -5.8      3.764      7.294
REMARK  Name = ZINC14645975
REMARK  9 active torsions:
REMARK  status: ('A' for Active; 'I' for Inactive)
REMARK    1  A    between atoms: C1_1  and  O1_2
REMARK    2  A    between atoms: O1_2  and  C2_3
REMARK    3  A    between atoms: C4_5  and  O7_25
REMARK    4  A    between atoms: C9_11  and  C11_14
REMARK    5  A    between atoms: C13_16  and  O6_24
REMARK    6  A    between atoms: C14_17  and  O5_22
REMARK    7  A    between atoms: C15_18  and  O4_20
REMARK    8  A    between atoms: O4_20  and  C17_21
REMARK    9  A    between atoms: O5_22  and  C18_23
REMARK                            x       y       z     vdW  Elec       q    Type
REMARK                         _______ _______ _______ _____ _____    ______ ____
ROOT
ATOM      3  C   UNL     1      46.553  13.115  18.134  0.00  0.00    +0.212 A 
ATOM      4  C   UNL     1      47.006  13.925  17.099  0.00  0.00    -0.118 A 
ATOM      5  C   UNL     1      46.797  15.291  17.145  0.00  0.00    +0.243 A 
ATOM      8  C   UNL     1      46.131  15.850  18.244  0.00  0.00    -0.289 A 
ATOM      9  C   UNL     1      45.668  15.028  19.288  0.00  0.00    +0.201 A 
ATOM     10  O   UNL     1      45.022  15.567  20.341  0.00  0.00    -0.214 OA
ATOM     11  C   UNL     1      44.779  16.875  20.461  0.00  0.00    +0.344 A 
ATOM     12  C   UNL     1      45.165  17.779  19.524  0.00  0.00    -0.246 A 
ATOM     25  C   UNL     1      45.880  17.298  18.329  0.00  0.00    +0.434 A 
ATOM     26  O   UNL     1      46.252  18.062  17.455  0.00  0.00    -0.441 OA
ATOM     27  C   UNL     1      45.889  13.660  19.221  0.00  0.00    -0.034 A 
ENDROOT
BRANCH  12  13
ATOM     13  C   UNL     1      44.873  19.223  19.700  0.00  0.00    +0.027 A 
ATOM     14  C   UNL     1      45.836  20.067  20.250  0.00  0.00    +0.002 A 
ATOM     15  C   UNL     1      45.562  21.414  20.413  0.00  0.00    +0.132 A 
ATOM     18  C   UNL     1      44.327  21.924  20.030  0.00  0.00    +0.040 A 
ATOM     21  C   UNL     1      43.365  21.083  19.482  0.00  0.00    +0.129 A 
ATOM     24  C   UNL     1      43.638  19.736  19.311  0.00  0.00    -0.062 A 
BRANCH  15  16
ATOM     16  O   UNL     1      46.501  22.238  20.949  0.00  0.00    -0.481 OA
ATOM     17  H   UNL     1      46.704  22.054  21.877  0.00  0.00    +0.392 HD
ENDBRANCH  15  16
BRANCH  18  19
ATOM     19  O   UNL     1      44.059  23.249  20.192  0.00  0.00    -0.315 OA
ATOM     20  C   UNL     1      44.440  24.123  19.126  0.00  0.00    +0.220 C 
ENDBRANCH  18  19
BRANCH  21  22
ATOM     22  O   UNL     1      42.157  21.584  19.106  0.00  0.00    -0.302 OA
ATOM     23  C   UNL     1      41.267  20.694  18.432  0.00  0.00    +0.242 C 
ENDBRANCH  21  22
ENDBRANCH  12  13
BRANCH   3   2
ATOM      1  C   UNL     1      46.550  11.135  16.820  0.00  0.00    +0.257 C 
ATOM      2  O   UNL     1      46.765  11.775  18.079  0.00  0.00    -0.302 OA
ENDBRANCH   3   2
BRANCH   5   6
ATOM      6  O   UNL     1      47.238  16.085  16.137  0.00  0.00    -0.474 OA
ATOM      7  H   UNL     1      46.784  15.940  15.295  0.00  0.00    +0.404 HD
ENDBRANCH   5   6
TORSDOF 6
ENDMDL
MODEL 4
REMARK VINA RESULT:      -5.5      4.003      7.263
REMARK  Name = ZINC14645975
REMARK  9 active torsions:
REMARK  status: ('A' for Active; 'I' for Inactive)
REMARK    1  A    between atoms: C1_1  and  O1_2
REMARK    2  A    between atoms: O1_2  and  C2_3
REMARK    3  A    between atoms: C4_5  and  O7_25
REMARK    4  A    between atoms: C9_11  and  C11_14
REMARK    5  A    between atoms: C13_16  and  O6_24
REMARK    6  A    between atoms: C14_17  and  O5_22
REMARK    7  A    between atoms: C15_18  and  O4_20
REMARK    8  A    between atoms: O4_20  and  C17_21
REMARK    9  A    between atoms: O5_22  and  C18_23
REMARK                            x       y       z     vdW  Elec       q    Type
REMARK                         _______ _______ _______ _____ _____    ______ ____
ROOT
ATOM      3  C   UNL     1      46.856  12.914  17.090  0.00  0.00    +0.212 A 
ATOM      4  C   UNL     1      46.154  12.843  18.289  0.00  0.00    -0.118 A 
ATOM      5  C   UNL     1      45.738  14.001  18.919  0.00  0.00    +0.243 A 
ATOM      8  C   UNL     1      46.025  15.243  18.338  0.00  0.00    -0.289 A 
ATOM      9  C   UNL     1      46.740  15.314  17.128  0.00  0.00    +0.201 A 
ATOM     10  O   UNL     1      47.019  16.510  16.574  0.00  0.00    -0.214 OA
ATOM     11  C   UNL     1      46.655  17.675  17.119  0.00  0.00    +0.344 A 
ATOM     12  C   UNL     1      45.967  17.750  18.286  0.00  0.00    -0.246 A 
ATOM     25  C   UNL     1      45.608  16.500  18.980  0.00  0.00    +0.434 A 
ATOM     26  O   UNL     1      44.990  16.507  20.031  0.00  0.00    -0.441 OA
ATOM     27  C   UNL     1      47.147  14.139  16.513  0.00  0.00    -0.034 A 
ENDROOT
BRANCH  12  13
ATOM     13  C   UNL     1      45.583  19.066  18.854  0.00  0.00    +0.027 A 
ATOM     14  C   UNL     1      46.523  19.829  19.545  0.00  0.00    +0.002 A 
ATOM     15  C   UNL     1      46.164  21.057  20.074  0.00  0.00    +0.132 A 
ATOM     18  C   UNL     1      44.865  21.528  19.917  0.00  0.00    +0.040 A 
ATOM     21  C   UNL     1      43.926  20.768  19.229  0.00  0.00    +0.129 A 
ATOM     24  C   UNL     1      44.283  19.542  18.694  0.00  0.00    -0.062 A 
BRANCH  15  16
ATOM     16  O   UNL     1      47.080  21.802  20.747  0.00  0.00    -0.481 OA
ATOM     17  H   UNL     1      47.701  21.280  21.274  0.00  0.00    +0.392 HD
ENDBRANCH  15  16
BRANCH  18  19
ATOM     19  O   UNL     1      44.512  22.735  20.439  0.00  0.00    -0.315 OA
ATOM     20  C   UNL     1      44.653  23.875  19.588  0.00  0.00    +0.220 C 
ENDBRANCH  18  19
BRANCH  21  22
ATOM     22  O   UNL     1      42.656  21.231  19.077  0.00  0.00    -0.302 OA
ATOM     23  C   UNL     1      41.693  20.320  18.546  0.00  0.00    +0.242 C 
ENDBRANCH  21  22
ENDBRANCH  12  13
BRANCH   3   2
ATOM      1  C   UNL     1      46.235  10.863  16.063  0.00  0.00    +0.257 C 
ATOM      2  O   UNL     1      47.258  11.771  16.480  0.00  0.00    -0.302 OA
ENDBRANCH   3   2
BRANCH   5   6
ATOM      6  O   UNL     1      45.054  13.935  20.089  0.00  0.00    -0.474 OA
ATOM      7  H   UNL     1      45.266  13.159  20.626  0.00  0.00    +0.404 HD
ENDBRANCH   5   6
TORSDOF 6
ENDMDL
MODEL 5
REMARK VINA RESULT:      -5.5      5.706      7.280
REMARK  Name = ZINC14645975
REMARK  9 active torsions:
REMARK  status: ('A' for Active; 'I' for Inactive)
REMARK    1  A    between atoms: C1_1  and  O1_2
REMARK    2  A    between atoms: O1_2  and  C2_3
REMARK    3  A    between atoms: C4_5  and  O7_25
REMARK    4  A    between atoms: C9_11  and  C11_14
REMARK    5  A    between atoms: C13_16  and  O6_24
REMARK    6  A    between atoms: C14_17  and  O5_22
REMARK    7  A    between atoms: C15_18  and  O4_20
REMARK    8  A    between atoms: O4_20  and  C17_21
REMARK    9  A    between atoms: O5_22  and  C18_23
REMARK                            x       y       z     vdW  Elec       q    Type
REMARK                         _______ _______ _______ _____ _____    ______ ____
ROOT
ATOM      3  C   UNL     1      44.217  17.783  20.824  0.00  0.00    +0.212 A 
ATOM      4  C   UNL     1      44.533  18.584  19.732  0.00  0.00    -0.118 A 
ATOM      5  C   UNL     1      45.293  18.073  18.695  0.00  0.00    +0.243 A 
ATOM      8  C   UNL     1      45.736  16.746  18.754  0.00  0.00    -0.289 A 
ATOM      9  C   UNL     1      45.422  15.939  19.862  0.00  0.00    +0.201 A 
ATOM     10  O   UNL     1      45.854  14.664  19.919  0.00  0.00    -0.214 OA
ATOM     11  C   UNL     1      46.593  14.097  18.961  0.00  0.00    +0.344 A 
ATOM     12  C   UNL     1      46.973  14.763  17.842  0.00  0.00    -0.246 A 
ATOM     25  C   UNL     1      46.555  16.167  17.676  0.00  0.00    +0.434 A 
ATOM     26  O   UNL     1      46.865  16.815  16.691  0.00  0.00    -0.441 OA
ATOM     27  C   UNL     1      44.657  16.470  20.891  0.00  0.00    -0.034 A 
ENDROOT
BRANCH  12  13
ATOM     13  C   UNL     1      47.794  14.092  16.804  0.00  0.00    +0.027 A 
ATOM     14  C   UNL     1      47.178  13.489  15.709  0.00  0.00    +0.002 A 
ATOM     15  C   UNL     1      47.946  12.863  14.741  0.00  0.00    +0.132 A 
ATOM     18  C   UNL     1      49.331  12.837  14.862  0.00  0.00    +0.040 A 
ATOM     21  C   UNL     1      49.947  13.437  15.955  0.00  0.00    +0.129 A 
ATOM     24  C   UNL     1      49.183  14.069  16.921  0.00  0.00    -0.062 A 
BRANCH  15  16
ATOM     16  O   UNL     1      47.345  12.275  13.673  0.00  0.00    -0.481 OA
ATOM     17  H   UNL     1      46.956  12.901  13.046  0.00  0.00    +0.392 HD
ENDBRANCH  15  16
BRANCH  18  19
ATOM     19  O   UNL     1      50.084  12.220  13.911  0.00  0.00    -0.315 OA
ATOM     20  C   UNL     1      50.533  13.025  12.818  0.00  0.00    +0.220 C 
ENDBRANCH  18  19
BRANCH  21  22
ATOM     22  O   UNL     1      51.302  13.410  16.071  0.00  0.00    -0.302 OA
ATOM     23  C   UNL     1      51.857  12.445  16.965  0.00  0.00    +0.242 C 
ENDBRANCH  21  22
ENDBRANCH  12  13
BRANCH   3   2
ATOM      1  C   UNL     1      42.143  18.718  21.512  0.00  0.00    +0.257 C 
ATOM      2  O   UNL     1      43.469  18.293  21.835  0.00  0.00    -0.302 OA
ENDBRANCH   3   2
BRANCH   5   6
ATOM      6  O   UNL     1      45.603  18.852  17.628  0.00  0.00    -0.474 OA
ATOM      7  H   UNL     1      45.555  18.393  16.778  0.00  0.00    +0.404 HD
ENDBRANCH   5   6
TORSDOF 6
ENDMDL
MODEL 6
REMARK VINA RESULT:      -5.3      4.059      7.171
REMARK  Name = ZINC14645975
REMARK  9 active torsions:
REMARK  status: ('A' for Active; 'I' for Inactive)
REMARK    1  A    between atoms: C1_1  and  O1_2
REMARK    2  A    between atoms: O1_2  and  C2_3
REMARK    3  A    between atoms: C4_5  and  O7_25
REMARK    4  A    between atoms: C9_11  and  C11_14
REMARK    5  A    between atoms: C13_16  and  O6_24
REMARK    6  A    between atoms: C14_17  and  O5_22
REMARK    7  A    between atoms: C15_18  and  O4_20
REMARK    8  A    between atoms: O4_20  and  C17_21
REMARK    9  A    between atoms: O5_22  and  C18_23
REMARK                            x       y       z     vdW  Elec       q    Type
REMARK                         _______ _______ _______ _____ _____    ______ ____
ROOT
ATOM      3  C   UNL     1      46.740  12.914  16.926  0.00  0.00    +0.212 A 
ATOM      4  C   UNL     1      46.097  12.745  18.148  0.00  0.00    -0.118 A 
ATOM      5  C   UNL     1      45.699  13.849  18.880  0.00  0.00    +0.243 A 
ATOM      8  C   UNL     1      45.945  15.133  18.380  0.00  0.00    -0.289 A 
ATOM      9  C   UNL     1      46.601  15.304  17.147  0.00  0.00    +0.201 A 
ATOM     10  O   UNL     1      46.841  16.541  16.671  0.00  0.00    -0.214 OA
ATOM     11  C   UNL     1      46.491  17.657  17.317  0.00  0.00    +0.344 A 
ATOM     12  C   UNL     1      45.858  17.637  18.517  0.00  0.00    -0.246 A 
ATOM     25  C   UNL     1      45.546  16.334  19.132  0.00  0.00    +0.434 A 
ATOM     26  O   UNL     1      44.978  16.254  20.208  0.00  0.00    -0.441 OA
ATOM     27  C   UNL     1      46.991  14.183  16.428  0.00  0.00    -0.034 A 
ENDROOT
BRANCH  12  13
ATOM     13  C   UNL     1      45.488  18.902  19.198  0.00  0.00    +0.027 A 
ATOM     14  C   UNL     1      44.390  19.637  18.756  0.00  0.00    +0.002 A 
ATOM     15  C   UNL     1      44.045  20.817  19.392  0.00  0.00    +0.132 A 
ATOM     18  C   UNL     1      44.795  21.269  20.472  0.00  0.00    +0.040 A 
ATOM     21  C   UNL     1      45.891  20.537  20.915  0.00  0.00    +0.129 A 
ATOM     24  C   UNL     1      46.235  19.354  20.284  0.00  0.00    -0.062 A 
BRANCH  15  16
ATOM     16  O   UNL     1      42.974  21.534  18.961  0.00  0.00    -0.481 OA
ATOM     17  H   UNL     1      42.845  22.370  19.430  0.00  0.00    +0.392 HD
ENDBRANCH  15  16
BRANCH  18  19
ATOM     19  O   UNL     1      44.456  22.430  21.097  0.00  0.00    -0.315 OA
ATOM     20  C   UNL     1      45.088  23.625  20.631  0.00  0.00    +0.220 C 
ENDBRANCH  18  19
BRANCH  21  22
ATOM     22  O   UNL     1      46.623  20.981  21.972  0.00  0.00    -0.302 OA
ATOM     23  C   UNL     1      47.934  21.473  21.692  0.00  0.00    +0.242 C 
ENDBRANCH  21  22
ENDBRANCH  12  13
BRANCH   3   2
ATOM      1  C   UNL     1      47.713  12.061  14.933  0.00  0.00    +0.257 C 
ATOM      2  O   UNL     1      47.125  11.825  16.214  0.00  0.00    -0.302 OA
ENDBRANCH   3   2
BRANCH   5   6
ATOM      6  O   UNL     1      45.072  13.687  20.072  0.00  0.00    -0.474 OA
ATOM      7  H   UNL     1      44.182  14.064  20.103  0.00  0.00    +0.404 HD
ENDBRANCH   5   6
TORSDOF 6
ENDMDL
MODEL 7
REMARK VINA RESULT:      -5.3      5.828      7.476
REMARK  Name = ZINC14645975
REMARK  9 active torsions:
REMARK  status: ('A' for Active; 'I' for Inactive)
REMARK    1  A    between atoms: C1_1  and  O1_2
REMARK    2  A    between atoms: O1_2  and  C2_3
REMARK    3  A    between atoms: C4_5  and  O7_25
REMARK    4  A    between atoms: C9_11  and  C11_14
REMARK    5  A    between atoms: C13_16  and  O6_24
REMARK    6  A    between atoms: C14_17  and  O5_22
REMARK    7  A    between atoms: C15_18  and  O4_20
REMARK    8  A    between atoms: O4_20  and  C17_21
REMARK    9  A    between atoms: O5_22  and  C18_23
REMARK                            x       y       z     vdW  Elec       q    Type
REMARK                         _______ _______ _______ _____ _____    ______ ____
ROOT
ATOM      3  C   UNL     1      44.060  17.463  21.215  0.00  0.00    +0.212 A 
ATOM      4  C   UNL     1      44.323  16.190  21.711  0.00  0.00    -0.118 A 
ATOM      5  C   UNL     1      45.087  15.304  20.974  0.00  0.00    +0.243 A 
ATOM      8  C   UNL     1      45.596  15.700  19.731  0.00  0.00    -0.289 A 
ATOM      9  C   UNL     1      45.325  16.986  19.228  0.00  0.00    +0.201 A 
ATOM     10  O   UNL     1      45.812  17.363  18.029  0.00  0.00    -0.214 OA
ATOM     11  C   UNL     1      46.556  16.567  17.256  0.00  0.00    +0.344 A 
ATOM     12  C   UNL     1      46.887  15.301  17.617  0.00  0.00    -0.246 A 
ATOM     25  C   UNL     1      46.407  14.785  18.911  0.00  0.00    +0.434 A 
ATOM     26  O   UNL     1      46.674  13.657  19.289  0.00  0.00    -0.441 OA
ATOM     27  C   UNL     1      44.557  17.860  19.984  0.00  0.00    -0.034 A 
ENDROOT
BRANCH  12  13
ATOM     13  C   UNL     1      47.716  14.453  16.726  0.00  0.00    +0.027 A 
ATOM     14  C   UNL     1      47.112  13.681  15.736  0.00  0.00    +0.002 A 
ATOM     15  C   UNL     1      47.887  12.891  14.905  0.00  0.00    +0.132 A 
ATOM     18  C   UNL     1      49.268  12.866  15.059  0.00  0.00    +0.040 A 
ATOM     21  C   UNL     1      49.874  13.634  16.048  0.00  0.00    +0.129 A 
ATOM     24  C   UNL     1      49.102  14.431  16.876  0.00  0.00    -0.062 A 
BRANCH  15  16
ATOM     16  O   UNL     1      47.298  12.138  13.939  0.00  0.00    -0.481 OA
ATOM     17  H   UNL     1      46.403  12.425  13.707  0.00  0.00    +0.392 HD
ENDBRANCH  15  16
BRANCH  18  19
ATOM     19  O   UNL     1      50.030  12.087  14.243  0.00  0.00    -0.315 OA
ATOM     20  C   UNL     1      50.556  12.703  13.065  0.00  0.00    +0.220 C 
ENDBRANCH  18  19
BRANCH  21  22
ATOM     22  O   UNL     1      51.226  13.609  16.197  0.00  0.00    -0.302 OA
ATOM     23  C   UNL     1      51.739  12.940  17.349  0.00  0.00    +0.242 C 
ENDBRANCH  21  22
ENDBRANCH  12  13
BRANCH   3   2
ATOM      1  C   UNL     1      42.165  18.893  21.308  0.00  0.00    +0.257 C 
ATOM      2  O   UNL     1      43.310  18.326  21.947  0.00  0.00    -0.302 OA
ENDBRANCH   3   2
BRANCH   5   6
ATOM      6  O   UNL     1      45.345  14.061  21.455  0.00  0.00    -0.474 OA
ATOM      7  H   UNL     1      45.360  14.008  22.420  0.00  0.00    +0.404 HD
ENDBRANCH   5   6
TORSDOF 6
ENDMDL
MODEL 8
REMARK VINA RESULT:      -5.2      2.039      2.350
REMARK  Name = ZINC14645975
REMARK  9 active torsions:
REMARK  status: ('A' for Active; 'I' for Inactive)
REMARK    1  A    between atoms: C1_1  and  O1_2
REMARK    2  A    between atoms: O1_2  and  C2_3
REMARK    3  A    between atoms: C4_5  and  O7_25
REMARK    4  A    between atoms: C9_11  and  C11_14
REMARK    5  A    between atoms: C13_16  and  O6_24
REMARK    6  A    between atoms: C14_17  and  O5_22
REMARK    7  A    between atoms: C15_18  and  O4_20
REMARK    8  A    between atoms: O4_20  and  C17_21
REMARK    9  A    between atoms: O5_22  and  C18_23
REMARK                            x       y       z     vdW  Elec       q    Type
REMARK                         _______ _______ _______ _____ _____    ______ ____
ROOT
ATOM      3  C   UNL     1      43.060  21.175  19.201  0.00  0.00    +0.212 A 
ATOM      4  C   UNL     1      43.869  22.074  19.887  0.00  0.00    -0.118 A 
ATOM      5  C   UNL     1      45.221  21.823  20.028  0.00  0.00    +0.243 A 
ATOM      8  C   UNL     1      45.767  20.660  19.471  0.00  0.00    -0.289 A 
ATOM      9  C   UNL     1      44.947  19.747  18.783  0.00  0.00    +0.201 A 
ATOM     10  O   UNL     1      45.475  18.626  18.252  0.00  0.00    -0.214 OA
ATOM     11  C   UNL     1      46.769  18.309  18.346  0.00  0.00    +0.344 A 
ATOM     12  C   UNL     1      47.669  19.096  18.988  0.00  0.00    -0.246 A 
ATOM     25  C   UNL     1      47.200  20.349  19.606  0.00  0.00    +0.434 A 
ATOM     26  O   UNL     1      47.963  21.097  20.194  0.00  0.00    -0.441 OA
ATOM     27  C   UNL     1      43.593  20.019  18.652  0.00  0.00    -0.034 A 
ENDROOT
BRANCH  12  13
ATOM     13  C   UNL     1      49.098  18.704  19.066  0.00  0.00    +0.027 A 
ATOM     14  C   UNL     1      49.585  18.067  20.206  0.00  0.00    +0.002 A 
ATOM     15  C   UNL     1      50.918  17.701  20.277  0.00  0.00    +0.132 A 
ATOM     18  C   UNL     1      51.771  17.970  19.213  0.00  0.00    +0.040 A 
ATOM     21  C   UNL     1      51.287  18.606  18.075  0.00  0.00    +0.129 A 
ATOM     24  C   UNL     1      49.953  18.968  17.997  0.00  0.00    -0.062 A 
BRANCH  15  16
ATOM     16  O   UNL     1      51.394  17.079  21.389  0.00  0.00    -0.481 OA
ATOM     17  H   UNL     1      51.963  16.320  21.202  0.00  0.00    +0.392 HD
ENDBRANCH  15  16
BRANCH  18  19
ATOM     19  O   UNL     1      53.082  17.611  19.285  0.00  0.00    -0.315 OA
ATOM     20  C   UNL     1      53.396  16.245  19.004  0.00  0.00    +0.220 C 
ENDBRANCH  18  19
BRANCH  21  22
ATOM     22  O   UNL     1      52.123  18.868  17.034  0.00  0.00    -0.302 OA
ATOM     23  C   UNL     1      51.956  20.120  16.367  0.00  0.00    +0.242 C 
ENDBRANCH  21  22
ENDBRANCH  12  13
BRANCH   3   2
ATOM      1  C   UNL     1      40.949  20.455  18.380  0.00  0.00    +0.257 C 
ATOM      2  O   UNL     1      41.734  21.432  19.067  0.00  0.00    -0.302 OA
ENDBRANCH   3   2
BRANCH   5   6
ATOM      6  O   UNL     1      46.012  22.698  20.697  0.00  0.00    -0.474 OA
ATOM      7  H   UNL     1      45.886  23.621  20.437  0.00  0.00    +0.404 HD
ENDBRANCH   5   6
TORSDOF 6
ENDMDL
MODEL 9
REMARK VINA RESULT:      -5.1      2.303      8.057
REMARK  Name = ZINC14645975
REMARK  9 active torsions:
REMARK  status: ('A' for Active; 'I' for Inactive)
REMARK    1  A    between atoms: C1_1  and  O1_2
REMARK    2  A    between atoms: O1_2  and  C2_3
REMARK    3  A    between atoms: C4_5  and  O7_25
REMARK    4  A    between atoms: C9_11  and  C11_14
REMARK    5  A    between atoms: C13_16  and  O6_24
REMARK    6  A    between atoms: C14_17  and  O5_22
REMARK    7  A    between atoms: C15_18  and  O4_20
REMARK    8  A    between atoms: O4_20  and  C17_21
REMARK    9  A    between atoms: O5_22  and  C18_23
REMARK                            x       y       z     vdW  Elec       q    Type
REMARK                         _______ _______ _______ _____ _____    ______ ____
ROOT
ATOM      3  C   UNL     1      51.147  19.904  18.335  0.00  0.00    +0.212 A 
ATOM      4  C   UNL     1      50.677  18.710  17.798  0.00  0.00    -0.118 A 
ATOM      5  C   UNL     1      49.360  18.335  17.991  0.00  0.00    +0.243 A 
ATOM      8  C   UNL     1      48.506  19.167  18.725  0.00  0.00    -0.289 A 
ATOM      9  C   UNL     1      48.984  20.371  19.273  0.00  0.00    +0.201 A 
ATOM     10  O   UNL     1      48.162  21.168  19.984  0.00  0.00    -0.214 OA
ATOM     11  C   UNL     1      46.879  20.877  20.217  0.00  0.00    +0.344 A 
ATOM     12  C   UNL     1      46.292  19.745  19.753  0.00  0.00    -0.246 A 
ATOM     25  C   UNL     1      47.100  18.800  18.962  0.00  0.00    +0.434 A 
ATOM     26  O   UNL     1      46.626  17.768  18.518  0.00  0.00    -0.441 OA
ATOM     27  C   UNL     1      50.309  20.730  19.067  0.00  0.00    -0.034 A 
ENDROOT
BRANCH  12  13
ATOM     13  C   UNL     1      44.863  19.463  20.036  0.00  0.00    +0.027 A 
ATOM     14  C   UNL     1      44.510  18.680  21.134  0.00  0.00    +0.002 A 
ATOM     15  C   UNL     1      43.177  18.418  21.397  0.00  0.00    +0.132 A 
ATOM     18  C   UNL     1      42.189  18.935  20.566  0.00  0.00    +0.040 A 
ATOM     21  C   UNL     1      42.539  19.716  19.470  0.00  0.00    +0.129 A 
ATOM     24  C   UNL     1      43.872  19.985  19.207  0.00  0.00    -0.062 A 
BRANCH  15  16
ATOM     16  O   UNL     1      42.832  17.655  22.468  0.00  0.00    -0.481 OA
ATOM     17  H   UNL     1      42.334  16.858  22.240  0.00  0.00    +0.392 HD
ENDBRANCH  15  16
BRANCH  18  19
ATOM     19  O   UNL     1      40.878  18.676  20.825  0.00  0.00    -0.315 OA
ATOM     20  C   UNL     1      40.216  19.543  21.749  0.00  0.00    +0.220 C 
ENDBRANCH  18  19
BRANCH  21  22
ATOM     22  O   UNL     1      41.572  20.222  18.658  0.00  0.00    -0.302 OA
ATOM     23  C   UNL     1      41.313  21.623  18.753  0.00  0.00    +0.242 C 
ENDBRANCH  21  22
ENDBRANCH  12  13
BRANCH   3   2
ATOM      1  C   UNL     1      53.052  21.067  19.150  0.00  0.00    +0.257 C 
ATOM      2  O   UNL     1      52.440  20.264  18.138  0.00  0.00    -0.302 OA
ENDBRANCH   3   2
BRANCH   5   6
ATOM      6  O   UNL     1      48.899  17.170  17.469  0.00  0.00    -0.474 OA
ATOM      7  H   UNL     1      49.368  16.385  17.782  0.00  0.00    +0.404 HD
ENDBRANCH   5   6
TORSDOF 6
ENDMDL
