MODEL 1
REMARK VINA RESULT:      -8.4      0.000      0.000
REMARK  Name = ZINC95486212
REMARK  12 active torsions:
REMARK  status: ('A' for Active; 'I' for Inactive)
REMARK    1  A    between atoms: C1_1  and  N1_2
REMARK    2  A    between atoms: C6_8  and  O6_46
REMARK    3  A    between atoms: C7_9  and  O5_45
REMARK    4  A    between atoms: C15_18  and  O4_43
REMARK    5  A    between atoms: C16_19  and  O3_41
REMARK    6  A    between atoms: C17_20  and  O1_21
REMARK    7  A    between atoms: O1_21  and  C18_22
REMARK    8  A    between atoms: C24_28  and  C27_33
REMARK    9  A    between atoms: C27_33  and  C28_34
REMARK   10  A    between atoms: C31_37  and  O2_40
REMARK   11  A    between atoms: O3_41  and  C34_42
REMARK   12  A    between atoms: O4_43  and  C35_44
REMARK                            x       y       z     vdW  Elec       q    Type
REMARK                         _______ _______ _______ _____ _____    ______ ____
ROOT
ATOM      1  C   UNL     1      52.511  14.658  19.370  0.00  0.00    +0.202 C 
ATOM      2  N   UNL     1      52.526  15.853  18.515  0.00  0.00    -0.514 NA
ATOM      3  C   UNL     1      51.607  15.700  17.382  0.00  0.00    +0.228 C 
ATOM      4  C   UNL     1      51.907  16.788  16.351  0.00  0.00    +0.112 C 
ATOM      5  C   UNL     1      51.934  18.137  17.023  0.00  0.00    -0.055 A 
ATOM      6  C   UNL     1      51.820  19.271  16.234  0.00  0.00    +0.002 A 
ATOM      7  C   UNL     1      51.843  20.529  16.809  0.00  0.00    +0.085 A 
ATOM     10  C   UNL     1      51.983  20.653  18.189  0.00  0.00    +0.083 A 
ATOM     13  C   UNL     1      52.096  19.518  18.970  0.00  0.00    +0.011 A 
ATOM     14  C   UNL     1      52.070  18.256  18.390  0.00  0.00    -0.060 A 
ATOM     15  C   UNL     1      50.175  15.823  17.826  0.00  0.00    -0.057 A 
ATOM     16  C   UNL     1      49.179  15.374  16.969  0.00  0.00    -0.048 A 
ATOM     17  C   UNL     1      47.846  15.467  17.330  0.00  0.00    +0.122 A 
ATOM     20  C   UNL     1      47.500  16.012  18.560  0.00  0.00    +0.064 A 
ATOM     23  C   UNL     1      48.491  16.400  19.430  0.00  0.00    +0.106 A 
ATOM     45  C   UNL     1      49.828  16.324  19.058  0.00  0.00    -0.100 A 
ATOM     46  C   UNL     1      50.873  16.821  20.024  0.00  0.00    +0.073 C 
ATOM     47  C   UNL     1      52.192  17.055  19.286  0.00  0.00    +0.230 C 
ENDROOT
BRANCH   7   8
ATOM      8  O   UNL     1      51.730  21.639  16.031  0.00  0.00    -0.487 OA
ATOM      9  H   UNL     1      52.563  21.929  15.636  0.00  0.00    +0.386 HD
ENDBRANCH   7   8
BRANCH  10  11
ATOM     11  O   UNL     1      52.008  21.884  18.765  0.00  0.00    -0.485 OA
ATOM     12  H   UNL     1      52.450  21.908  19.625  0.00  0.00    +0.385 HD
ENDBRANCH  10  11
BRANCH  17  18
ATOM     18  O   UNL     1      46.878  15.024  16.482  0.00  0.00    -0.302 OA
ATOM     19  C   UNL     1      46.921  13.645  16.113  0.00  0.00    +0.244 C 
ENDBRANCH  17  18
BRANCH  20  21
ATOM     21  O   UNL     1      46.191  16.108  18.922  0.00  0.00    -0.317 OA
ATOM     22  C   UNL     1      45.611  14.970  19.563  0.00  0.00    +0.229 C 
ENDBRANCH  20  21
BRANCH  23  24
ATOM     24  O   UNL     1      48.153  16.917  20.641  0.00  0.00    -0.250 OA
BRANCH  24  25
ATOM     25  C   UNL     1      47.662  18.183  20.679  0.00  0.00    +0.130 A 
ATOM     26  C   UNL     1      48.429  19.242  20.211  0.00  0.00    -0.055 A 
ATOM     27  C   UNL     1      47.922  20.524  20.250  0.00  0.00    +0.040 A 
ATOM     28  C   UNL     1      46.653  20.763  20.757  0.00  0.00    -0.107 A 
ATOM     29  C   UNL     1      45.891  19.714  21.227  0.00  0.00    -0.076 A 
ATOM     30  C   UNL     1      44.513  19.926  21.796  0.00  0.00    +0.233 C 
ATOM     40  N   UNL     1      43.986  21.235  21.396  0.00  0.00    -0.666 NA
ATOM     41  H   UNL     1      43.758  21.247  20.413  0.00  0.00    +0.342 HD
ATOM     42  C   UNL     1      44.951  22.295  21.727  0.00  0.00    +0.216 C 
ATOM     43  C   UNL     1      46.143  22.181  20.775  0.00  0.00    +0.039 C 
ATOM     44  C   UNL     1      46.393  18.422  21.180  0.00  0.00    -0.005 A 
BRANCH  30  31
ATOM     31  C   UNL     1      43.579  18.828  21.283  0.00  0.00    +0.084 C 
BRANCH  31  32
ATOM     32  C   UNL     1      42.544  19.434  20.371  0.00  0.00    -0.078 A 
ATOM     33  C   UNL     1      42.911  19.894  19.119  0.00  0.00    +0.021 A 
ATOM     34  C   UNL     1      41.965  20.450  18.282  0.00  0.00    -0.020 A 
ATOM     35  C   UNL     1      40.645  20.549  18.697  0.00  0.00    +0.099 A 
ATOM     38  C   UNL     1      40.278  20.087  19.953  0.00  0.00    -0.019 A 
ATOM     39  C   UNL     1      41.228  19.526  20.784  0.00  0.00    +0.046 A 
BRANCH  35  36
ATOM     36  O   UNL     1      39.711  21.097  17.874  0.00  0.00    -0.502 OA
ATOM     37  H   UNL     1      40.045  21.822  17.328  0.00  0.00    +0.390 HD
ENDBRANCH  35  36
ENDBRANCH  31  32
ENDBRANCH  30  31
ENDBRANCH  24  25
ENDBRANCH  23  24
TORSDOF 9
ENDMDL
MODEL 2
REMARK VINA RESULT:      -7.3      2.624      5.269
REMARK  Name = ZINC95486212
REMARK  12 active torsions:
REMARK  status: ('A' for Active; 'I' for Inactive)
REMARK    1  A    between atoms: C1_1  and  N1_2
REMARK    2  A    between atoms: C6_8  and  O6_46
REMARK    3  A    between atoms: C7_9  and  O5_45
REMARK    4  A    between atoms: C15_18  and  O4_43
REMARK    5  A    between atoms: C16_19  and  O3_41
REMARK    6  A    between atoms: C17_20  and  O1_21
REMARK    7  A    between atoms: O1_21  and  C18_22
REMARK    8  A    between atoms: C24_28  and  C27_33
REMARK    9  A    between atoms: C27_33  and  C28_34
REMARK   10  A    between atoms: C31_37  and  O2_40
REMARK   11  A    between atoms: O3_41  and  C34_42
REMARK   12  A    between atoms: O4_43  and  C35_44
REMARK                            x       y       z     vdW  Elec       q    Type
REMARK                         _______ _______ _______ _____ _____    ______ ____
ROOT
ATOM      1  C   UNL     1      50.066  12.861  14.606  0.00  0.00    +0.202 C 
ATOM      2  N   UNL     1      50.498  12.588  15.984  0.00  0.00    -0.514 NA
ATOM      3  C   UNL     1      51.349  13.670  16.492  0.00  0.00    +0.228 C 
ATOM      4  C   UNL     1      52.048  13.194  17.766  0.00  0.00    +0.112 C 
ATOM      5  C   UNL     1      51.034  12.623  18.724  0.00  0.00    -0.055 A 
ATOM      6  C   UNL     1      51.390  12.480  20.056  0.00  0.00    +0.002 A 
ATOM      7  C   UNL     1      50.492  11.958  20.969  0.00  0.00    +0.085 A 
ATOM     10  C   UNL     1      49.223  11.574  20.543  0.00  0.00    +0.083 A 
ATOM     13  C   UNL     1      48.873  11.720  19.213  0.00  0.00    +0.011 A 
ATOM     14  C   UNL     1      49.777  12.246  18.300  0.00  0.00    -0.060 A 
ATOM     15  C   UNL     1      50.536  14.896  16.805  0.00  0.00    -0.057 A 
ATOM     16  C   UNL     1      51.201  16.104  16.968  0.00  0.00    -0.048 A 
ATOM     17  C   UNL     1      50.499  17.261  17.259  0.00  0.00    +0.122 A 
ATOM     20  C   UNL     1      49.116  17.214  17.389  0.00  0.00    +0.064 A 
ATOM     23  C   UNL     1      48.456  16.029  17.168  0.00  0.00    +0.106 A 
ATOM     45  C   UNL     1      49.164  14.865  16.895  0.00  0.00    -0.100 A 
ATOM     46  C   UNL     1      48.397  13.579  16.724  0.00  0.00    +0.073 C 
ATOM     47  C   UNL     1      49.345  12.387  16.867  0.00  0.00    +0.230 C 
ENDROOT
BRANCH   7   8
ATOM      8  O   UNL     1      50.845  11.820  22.275  0.00  0.00    -0.487 OA
ATOM      9  H   UNL     1      51.259  10.972  22.483  0.00  0.00    +0.386 HD
ENDBRANCH   7   8
BRANCH  10  11
ATOM     11  O   UNL     1      48.332  11.059  21.430  0.00  0.00    -0.485 OA
ATOM     12  H   UNL     1      47.406  11.222  21.201  0.00  0.00    +0.385 HD
ENDBRANCH  10  11
BRANCH  17  18
ATOM     18  O   UNL     1      51.160  18.438  17.416  0.00  0.00    -0.302 OA
ATOM     19  C   UNL     1      51.615  19.091  16.229  0.00  0.00    +0.244 C 
ENDBRANCH  17  18
BRANCH  20  21
ATOM     21  O   UNL     1      48.417  18.347  17.677  0.00  0.00    -0.317 OA
ATOM     22  C   UNL     1      48.600  18.907  18.979  0.00  0.00    +0.229 C 
ENDBRANCH  20  21
BRANCH  23  24
ATOM     24  O   UNL     1      47.101  15.988  17.278  0.00  0.00    -0.250 OA
BRANCH  24  25
ATOM     25  C   UNL     1      46.562  16.007  18.525  0.00  0.00    +0.130 A 
ATOM     26  C   UNL     1      46.979  15.088  19.479  0.00  0.00    -0.055 A 
ATOM     27  C   UNL     1      46.429  15.116  20.743  0.00  0.00    +0.040 A 
ATOM     28  C   UNL     1      45.459  16.053  21.066  0.00  0.00    -0.107 A 
ATOM     29  C   UNL     1      45.039  16.965  20.120  0.00  0.00    -0.076 A 
ATOM     30  C   UNL     1      43.981  17.994  20.422  0.00  0.00    +0.233 C 
ATOM     40  N   UNL     1      43.811  18.147  21.871  0.00  0.00    -0.666 NA
ATOM     41  H   UNL     1      44.608  18.610  22.281  0.00  0.00    +0.342 HD
ATOM     42  C   UNL     1      43.582  16.836  22.498  0.00  0.00    +0.216 C 
ATOM     43  C   UNL     1      44.891  16.046  22.463  0.00  0.00    +0.039 C 
ATOM     44  C   UNL     1      45.597  16.946  18.852  0.00  0.00    -0.005 A 
BRANCH  30  31
ATOM     31  C   UNL     1      44.396  19.337  19.818  0.00  0.00    +0.084 C 
BRANCH  31  32
ATOM     32  C   UNL     1      43.166  20.103  19.404  0.00  0.00    -0.078 A 
ATOM     33  C   UNL     1      42.042  19.422  18.974  0.00  0.00    +0.021 A 
ATOM     34  C   UNL     1      40.913  20.121  18.594  0.00  0.00    -0.020 A 
ATOM     35  C   UNL     1      40.907  21.508  18.645  0.00  0.00    +0.099 A 
ATOM     38  C   UNL     1      42.036  22.189  19.077  0.00  0.00    -0.019 A 
ATOM     39  C   UNL     1      43.160  21.484  19.462  0.00  0.00    +0.046 A 
BRANCH  35  36
ATOM     36  O   UNL     1      39.798  22.199  18.271  0.00  0.00    -0.502 OA
ATOM     37  H   UNL     1      39.318  21.802  17.531  0.00  0.00    +0.390 HD
ENDBRANCH  35  36
ENDBRANCH  31  32
ENDBRANCH  30  31
ENDBRANCH  24  25
ENDBRANCH  23  24
TORSDOF 9
ENDMDL
MODEL 3
REMARK VINA RESULT:      -7.2      3.145      7.843
REMARK  Name = ZINC95486212
REMARK  12 active torsions:
REMARK  status: ('A' for Active; 'I' for Inactive)
REMARK    1  A    between atoms: C1_1  and  N1_2
REMARK    2  A    between atoms: C6_8  and  O6_46
REMARK    3  A    between atoms: C7_9  and  O5_45
REMARK    4  A    between atoms: C15_18  and  O4_43
REMARK    5  A    between atoms: C16_19  and  O3_41
REMARK    6  A    between atoms: C17_20  and  O1_21
REMARK    7  A    between atoms: O1_21  and  C18_22
REMARK    8  A    between atoms: C24_28  and  C27_33
REMARK    9  A    between atoms: C27_33  and  C28_34
REMARK   10  A    between atoms: C31_37  and  O2_40
REMARK   11  A    between atoms: O3_41  and  C34_42
REMARK   12  A    between atoms: O4_43  and  C35_44
REMARK                            x       y       z     vdW  Elec       q    Type
REMARK                         _______ _______ _______ _____ _____    ______ ____
ROOT
ATOM      1  C   UNL     1      51.505  19.821  15.814  0.00  0.00    +0.202 C 
ATOM      2  N   UNL     1      52.028  19.365  17.109  0.00  0.00    -0.514 NA
ATOM      3  C   UNL     1      51.438  20.129  18.213  0.00  0.00    +0.228 C 
ATOM      4  C   UNL     1      52.248  19.873  19.483  0.00  0.00    +0.112 C 
ATOM      5  C   UNL     1      52.409  18.389  19.697  0.00  0.00    -0.055 A 
ATOM      6  C   UNL     1      52.779  17.939  20.955  0.00  0.00    +0.002 A 
ATOM      7  C   UNL     1      52.940  16.586  21.195  0.00  0.00    +0.085 A 
ATOM     10  C   UNL     1      52.729  15.674  20.164  0.00  0.00    +0.083 A 
ATOM     13  C   UNL     1      52.359  16.130  18.912  0.00  0.00    +0.011 A 
ATOM     14  C   UNL     1      52.197  17.489  18.675  0.00  0.00    -0.060 A 
ATOM     15  C   UNL     1      50.009  19.723  18.450  0.00  0.00    -0.057 A 
ATOM     16  C   UNL     1      49.203  20.560  19.210  0.00  0.00    -0.048 A 
ATOM     17  C   UNL     1      47.882  20.230  19.459  0.00  0.00    +0.122 A 
ATOM     20  C   UNL     1      47.356  19.052  18.943  0.00  0.00    +0.064 A 
ATOM     23  C   UNL     1      48.139  18.256  18.142  0.00  0.00    +0.106 A 
ATOM     45  C   UNL     1      49.471  18.580  17.909  0.00  0.00    -0.100 A 
ATOM     46  C   UNL     1      50.304  17.640  17.076  0.00  0.00    +0.073 C 
ATOM     47  C   UNL     1      51.789  17.930  17.297  0.00  0.00    +0.230 C 
ENDROOT
BRANCH   7   8
ATOM      8  O   UNL     1      53.303  16.148  22.431  0.00  0.00    -0.487 OA
ATOM      9  H   UNL     1      52.739  16.475  23.144  0.00  0.00    +0.386 HD
ENDBRANCH   7   8
BRANCH  10  11
ATOM     11  O   UNL     1      52.886  14.343  20.387  0.00  0.00    -0.485 OA
ATOM     12  H   UNL     1      52.134  13.926  20.831  0.00  0.00    +0.385 HD
ENDBRANCH  10  11
BRANCH  17  18
ATOM     18  O   UNL     1      47.102  21.058  20.205  0.00  0.00    -0.302 OA
ATOM     19  C   UNL     1      47.680  21.596  21.396  0.00  0.00    +0.244 C 
ENDBRANCH  17  18
BRANCH  20  21
ATOM     21  O   UNL     1      46.058  18.719  19.184  0.00  0.00    -0.317 OA
ATOM     22  C   UNL     1      45.077  19.249  18.290  0.00  0.00    +0.229 C 
ENDBRANCH  20  21
BRANCH  23  24
ATOM     24  O   UNL     1      47.619  17.113  17.623  0.00  0.00    -0.250 OA
BRANCH  24  25
ATOM     25  C   UNL     1      47.937  15.937  18.225  0.00  0.00    +0.130 A 
ATOM     26  C   UNL     1      47.722  15.770  19.586  0.00  0.00    -0.055 A 
ATOM     27  C   UNL     1      48.045  14.572  20.189  0.00  0.00    +0.040 A 
ATOM     28  C   UNL     1      48.586  13.535  19.444  0.00  0.00    -0.107 A 
ATOM     29  C   UNL     1      48.805  13.698  18.092  0.00  0.00    -0.076 A 
ATOM     30  C   UNL     1      49.399  12.604  17.246  0.00  0.00    +0.233 C 
ATOM     40  N   UNL     1      49.300  11.311  17.931  0.00  0.00    -0.666 NA
ATOM     41  H   UNL     1      48.343  10.990  17.960  0.00  0.00    +0.342 HD
ATOM     42  C   UNL     1      49.865  11.408  19.286  0.00  0.00    +0.216 C 
ATOM     43  C   UNL     1      48.917  12.243  20.148  0.00  0.00    +0.039 C 
ATOM     44  C   UNL     1      48.472  14.897  17.481  0.00  0.00    -0.005 A 
BRANCH  30  31
ATOM     31  C   UNL     1      48.648  12.529  15.915  0.00  0.00    +0.084 C 
BRANCH  31  32
ATOM     32  C   UNL     1      49.597  12.828  14.784  0.00  0.00    -0.078 A 
ATOM     33  C   UNL     1      50.918  13.133  15.055  0.00  0.00    +0.021 A 
ATOM     34  C   UNL     1      51.791  13.408  14.020  0.00  0.00    -0.020 A 
ATOM     35  C   UNL     1      51.341  13.378  12.708  0.00  0.00    +0.099 A 
ATOM     38  C   UNL     1      50.015  13.072  12.438  0.00  0.00    -0.019 A 
ATOM     39  C   UNL     1      49.148  12.792  13.477  0.00  0.00    +0.046 A 
BRANCH  35  36
ATOM     36  O   UNL     1      52.198  13.649  11.688  0.00  0.00    -0.502 OA
ATOM     37  H   UNL     1      52.693  14.472  11.798  0.00  0.00    +0.390 HD
ENDBRANCH  35  36
ENDBRANCH  31  32
ENDBRANCH  30  31
ENDBRANCH  24  25
ENDBRANCH  23  24
TORSDOF 9
ENDMDL
MODEL 4
REMARK VINA RESULT:      -6.9      1.975      7.563
REMARK  Name = ZINC95486212
REMARK  12 active torsions:
REMARK  status: ('A' for Active; 'I' for Inactive)
REMARK    1  A    between atoms: C1_1  and  N1_2
REMARK    2  A    between atoms: C6_8  and  O6_46
REMARK    3  A    between atoms: C7_9  and  O5_45
REMARK    4  A    between atoms: C15_18  and  O4_43
REMARK    5  A    between atoms: C16_19  and  O3_41
REMARK    6  A    between atoms: C17_20  and  O1_21
REMARK    7  A    between atoms: O1_21  and  C18_22
REMARK    8  A    between atoms: C24_28  and  C27_33
REMARK    9  A    between atoms: C27_33  and  C28_34
REMARK   10  A    between atoms: C31_37  and  O2_40
REMARK   11  A    between atoms: O3_41  and  C34_42
REMARK   12  A    between atoms: O4_43  and  C35_44
REMARK                            x       y       z     vdW  Elec       q    Type
REMARK                         _______ _______ _______ _____ _____    ______ ____
ROOT
ATOM      1  C   UNL     1      42.813  19.727  19.350  0.00  0.00    +0.202 C 
ATOM      2  N   UNL     1      43.996  20.018  20.173  0.00  0.00    -0.514 NA
ATOM      3  C   UNL     1      44.138  19.037  21.254  0.00  0.00    +0.228 C 
ATOM      4  C   UNL     1      45.148  19.564  22.272  0.00  0.00    +0.112 C 
ATOM      5  C   UNL     1      46.414  19.983  21.568  0.00  0.00    -0.055 A 
ATOM      6  C   UNL     1      47.569  20.136  22.319  0.00  0.00    +0.002 A 
ATOM      7  C   UNL     1      48.752  20.522  21.713  0.00  0.00    +0.085 A 
ATOM     10  C   UNL     1      48.777  20.757  20.341  0.00  0.00    +0.083 A 
ATOM     13  C   UNL     1      47.622  20.601  19.597  0.00  0.00    +0.011 A 
ATOM     14  C   UNL     1      46.437  20.213  20.208  0.00  0.00    -0.060 A 
ATOM     15  C   UNL     1      44.616  17.713  20.725  0.00  0.00    -0.057 A 
ATOM     16  C   UNL     1      44.482  16.593  21.534  0.00  0.00    -0.048 A 
ATOM     17  C   UNL     1      44.909  15.352  21.094  0.00  0.00    +0.122 A 
ATOM     20  C   UNL     1      45.475  15.224  19.831  0.00  0.00    +0.064 A 
ATOM     23  C   UNL     1      45.551  16.324  19.011  0.00  0.00    +0.106 A 
ATOM     45  C   UNL     1      45.140  17.573  19.462  0.00  0.00    -0.100 A 
ATOM     46  C   UNL     1      45.304  18.758  18.546  0.00  0.00    +0.073 C 
ATOM     47  C   UNL     1      45.211  20.054  19.353  0.00  0.00    +0.230 C 
ENDROOT
BRANCH   7   8
ATOM      8  O   UNL     1      49.883  20.670  22.453  0.00  0.00    -0.487 OA
ATOM      9  H   UNL     1      49.758  21.183  23.263  0.00  0.00    +0.386 HD
ENDBRANCH   7   8
BRANCH  10  11
ATOM     11  O   UNL     1      49.933  21.137  19.735  0.00  0.00    -0.485 OA
ATOM     12  H   UNL     1      50.478  20.400  19.426  0.00  0.00    +0.385 HD
ENDBRANCH  10  11
BRANCH  17  18
ATOM     18  O   UNL     1      44.773  14.261  21.895  0.00  0.00    -0.302 OA
ATOM     19  C   UNL     1      45.963  13.739  22.488  0.00  0.00    +0.244 C 
ENDBRANCH  17  18
BRANCH  20  21
ATOM     21  O   UNL     1      45.899  14.007  19.391  0.00  0.00    -0.317 OA
ATOM     22  C   UNL     1      44.905  13.129  18.860  0.00  0.00    +0.229 C 
ENDBRANCH  20  21
BRANCH  23  24
ATOM     24  O   UNL     1      46.090  16.196  17.769  0.00  0.00    -0.250 OA
BRANCH  24  25
ATOM     25  C   UNL     1      47.348  15.691  17.668  0.00  0.00    +0.130 A 
ATOM     26  C   UNL     1      47.668  14.819  16.637  0.00  0.00    -0.055 A 
ATOM     27  C   UNL     1      48.947  14.314  16.539  0.00  0.00    +0.040 A 
ATOM     28  C   UNL     1      49.915  14.670  17.467  0.00  0.00    -0.107 A 
ATOM     29  C   UNL     1      49.600  15.533  18.495  0.00  0.00    -0.076 A 
ATOM     30  C   UNL     1      50.614  15.940  19.531  0.00  0.00    +0.233 C 
ATOM     40  N   UNL     1      51.974  15.654  19.060  0.00  0.00    -0.666 NA
ATOM     41  H   UNL     1      52.239  16.285  18.319  0.00  0.00    +0.342 HD
ATOM     42  C   UNL     1      52.078  14.253  18.623  0.00  0.00    +0.216 C 
ATOM     43  C   UNL     1      51.300  14.094  17.315  0.00  0.00    +0.039 C 
ATOM     44  C   UNL     1      48.317  16.051  18.590  0.00  0.00    -0.005 A 
BRANCH  30  31
ATOM     31  C   UNL     1      50.481  17.438  19.809  0.00  0.00    +0.084 C 
BRANCH  31  32
ATOM     32  C   UNL     1      51.031  18.217  18.643  0.00  0.00    -0.078 A 
ATOM     33  C   UNL     1      52.225  18.903  18.773  0.00  0.00    +0.021 A 
ATOM     34  C   UNL     1      52.732  19.617  17.706  0.00  0.00    -0.020 A 
ATOM     35  C   UNL     1      52.043  19.647  16.502  0.00  0.00    +0.099 A 
ATOM     38  C   UNL     1      50.845  18.958  16.373  0.00  0.00    -0.019 A 
ATOM     39  C   UNL     1      50.345  18.240  17.442  0.00  0.00    +0.046 A 
BRANCH  35  36
ATOM     36  O   UNL     1      52.539  20.350  15.450  0.00  0.00    -0.502 OA
ATOM     37  H   UNL     1      52.062  20.208  14.621  0.00  0.00    +0.390 HD
ENDBRANCH  35  36
ENDBRANCH  31  32
ENDBRANCH  30  31
ENDBRANCH  24  25
ENDBRANCH  23  24
TORSDOF 9
ENDMDL
MODEL 5
REMARK VINA RESULT:      -6.8      2.783      6.508
REMARK  Name = ZINC95486212
REMARK  12 active torsions:
REMARK  status: ('A' for Active; 'I' for Inactive)
REMARK    1  A    between atoms: C1_1  and  N1_2
REMARK    2  A    between atoms: C6_8  and  O6_46
REMARK    3  A    between atoms: C7_9  and  O5_45
REMARK    4  A    between atoms: C15_18  and  O4_43
REMARK    5  A    between atoms: C16_19  and  O3_41
REMARK    6  A    between atoms: C17_20  and  O1_21
REMARK    7  A    between atoms: O1_21  and  C18_22
REMARK    8  A    between atoms: C24_28  and  C27_33
REMARK    9  A    between atoms: C27_33  and  C28_34
REMARK   10  A    between atoms: C31_37  and  O2_40
REMARK   11  A    between atoms: O3_41  and  C34_42
REMARK   12  A    between atoms: O4_43  and  C35_44
REMARK                            x       y       z     vdW  Elec       q    Type
REMARK                         _______ _______ _______ _____ _____    ______ ____
ROOT
ATOM      1  C   UNL     1      54.752  15.416  20.643  0.00  0.00    +0.202 C 
ATOM      2  N   UNL     1      53.426  15.345  21.272  0.00  0.00    -0.514 NA
ATOM      3  C   UNL     1      52.880  16.687  21.501  0.00  0.00    +0.228 C 
ATOM      4  C   UNL     1      51.689  16.583  22.452  0.00  0.00    +0.112 C 
ATOM      5  C   UNL     1      50.725  15.536  21.953  0.00  0.00    -0.055 A 
ATOM      6  C   UNL     1      49.430  15.541  22.447  0.00  0.00    +0.002 A 
ATOM      7  C   UNL     1      48.513  14.598  22.018  0.00  0.00    +0.085 A 
ATOM     10  C   UNL     1      48.899  13.639  21.085  0.00  0.00    +0.083 A 
ATOM     13  C   UNL     1      50.192  13.640  20.595  0.00  0.00    +0.011 A 
ATOM     14  C   UNL     1      51.108  14.590  21.027  0.00  0.00    -0.060 A 
ATOM     15  C   UNL     1      52.427  17.315  20.211  0.00  0.00    -0.057 A 
ATOM     16  C   UNL     1      52.206  18.685  20.187  0.00  0.00    -0.048 A 
ATOM     17  C   UNL     1      51.786  19.310  19.025  0.00  0.00    +0.122 A 
ATOM     20  C   UNL     1      51.586  18.561  17.872  0.00  0.00    +0.064 A 
ATOM     23  C   UNL     1      51.863  17.215  17.884  0.00  0.00    +0.106 A 
ATOM     45  C   UNL     1      52.266  16.587  19.056  0.00  0.00    -0.100 A 
ATOM     46  C   UNL     1      52.496  15.097  19.032  0.00  0.00    +0.073 C 
ATOM     47  C   UNL     1      52.500  14.549  20.459  0.00  0.00    +0.230 C 
ENDROOT
BRANCH   7   8
ATOM      8  O   UNL     1      47.244  14.606  22.505  0.00  0.00    -0.487 OA
ATOM      9  H   UNL     1      46.605  15.048  21.931  0.00  0.00    +0.386 HD
ENDBRANCH   7   8
BRANCH  10  11
ATOM     11  O   UNL     1      48.008  12.706  20.657  0.00  0.00    -0.485 OA
ATOM     12  H   UNL     1      47.148  12.750  21.098  0.00  0.00    +0.385 HD
ENDBRANCH  10  11
BRANCH  17  18
ATOM     18  O   UNL     1      51.572  20.653  19.013  0.00  0.00    -0.302 OA
ATOM     19  C   UNL     1      52.489  21.463  19.752  0.00  0.00    +0.244 C 
ENDBRANCH  17  18
BRANCH  20  21
ATOM     21  O   UNL     1      51.171  19.168  16.726  0.00  0.00    -0.317 OA
ATOM     22  C   UNL     1      52.184  19.728  15.887  0.00  0.00    +0.229 C 
ENDBRANCH  20  21
BRANCH  23  24
ATOM     24  O   UNL     1      51.683  16.486  16.751  0.00  0.00    -0.250 OA
BRANCH  24  25
ATOM     25  C   UNL     1      50.719  15.528  16.755  0.00  0.00    +0.130 A 
ATOM     26  C   UNL     1      51.000  14.254  16.281  0.00  0.00    -0.055 A 
ATOM     27  C   UNL     1      50.017  13.287  16.291  0.00  0.00    +0.040 A 
ATOM     28  C   UNL     1      48.749  13.580  16.770  0.00  0.00    -0.107 A 
ATOM     29  C   UNL     1      48.465  14.846  17.238  0.00  0.00    -0.076 A 
ATOM     30  C   UNL     1      47.100  15.214  17.758  0.00  0.00    +0.233 C 
ATOM     40  N   UNL     1      46.327  14.007  18.073  0.00  0.00    -0.666 NA
ATOM     41  H   UNL     1      46.693  13.548  18.893  0.00  0.00    +0.342 HD
ATOM     42  C   UNL     1      46.314  13.095  16.919  0.00  0.00    +0.216 C 
ATOM     43  C   UNL     1      47.709  12.488  16.765  0.00  0.00    +0.039 C 
ATOM     44  C   UNL     1      49.453  15.818  17.239  0.00  0.00    -0.005 A 
BRANCH  30  31
ATOM     31  C   UNL     1      47.251  16.061  19.023  0.00  0.00    +0.084 C 
BRANCH  31  32
ATOM     32  C   UNL     1      46.318  17.241  18.952  0.00  0.00    -0.078 A 
ATOM     33  C   UNL     1      46.593  18.287  18.091  0.00  0.00    +0.021 A 
ATOM     34  C   UNL     1      45.740  19.371  18.023  0.00  0.00    -0.020 A 
ATOM     35  C   UNL     1      44.605  19.410  18.821  0.00  0.00    +0.099 A 
ATOM     38  C   UNL     1      44.331  18.360  19.685  0.00  0.00    -0.019 A 
ATOM     39  C   UNL     1      45.185  17.275  19.744  0.00  0.00    +0.046 A 
BRANCH  35  36
ATOM     36  O   UNL     1      43.764  20.476  18.757  0.00  0.00    -0.502 OA
ATOM     37  H   UNL     1      42.833  20.251  18.889  0.00  0.00    +0.390 HD
ENDBRANCH  35  36
ENDBRANCH  31  32
ENDBRANCH  30  31
ENDBRANCH  24  25
ENDBRANCH  23  24
TORSDOF 9
ENDMDL
MODEL 6
REMARK VINA RESULT:      -6.7      3.120      8.415
REMARK  Name = ZINC95486212
REMARK  12 active torsions:
REMARK  status: ('A' for Active; 'I' for Inactive)
REMARK    1  A    between atoms: C1_1  and  N1_2
REMARK    2  A    between atoms: C6_8  and  O6_46
REMARK    3  A    between atoms: C7_9  and  O5_45
REMARK    4  A    between atoms: C15_18  and  O4_43
REMARK    5  A    between atoms: C16_19  and  O3_41
REMARK    6  A    between atoms: C17_20  and  O1_21
REMARK    7  A    between atoms: O1_21  and  C18_22
REMARK    8  A    between atoms: C24_28  and  C27_33
REMARK    9  A    between atoms: C27_33  and  C28_34
REMARK   10  A    between atoms: C31_37  and  O2_40
REMARK   11  A    between atoms: O3_41  and  C34_42
REMARK   12  A    between atoms: O4_43  and  C35_44
REMARK                            x       y       z     vdW  Elec       q    Type
REMARK                         _______ _______ _______ _____ _____    ______ ____
ROOT
ATOM      1  C   UNL     1      46.204  19.307  21.415  0.00  0.00    +0.202 C 
ATOM      2  N   UNL     1      46.109  18.591  20.136  0.00  0.00    -0.514 NA
ATOM      3  C   UNL     1      46.980  19.200  19.126  0.00  0.00    +0.228 C 
ATOM      4  C   UNL     1      46.597  18.660  17.748  0.00  0.00    +0.112 C 
ATOM      5  C   UNL     1      46.552  17.153  17.784  0.00  0.00    -0.055 A 
ATOM      6  C   UNL     1      46.591  16.462  16.583  0.00  0.00    +0.002 A 
ATOM      7  C   UNL     1      46.550  15.080  16.569  0.00  0.00    +0.085 A 
ATOM     10  C   UNL     1      46.468  14.382  17.771  0.00  0.00    +0.083 A 
ATOM     13  C   UNL     1      46.430  15.077  18.966  0.00  0.00    +0.011 A 
ATOM     14  C   UNL     1      46.474  16.465  18.976  0.00  0.00    -0.060 A 
ATOM     15  C   UNL     1      48.426  18.883  19.395  0.00  0.00    -0.057 A 
ATOM     16  C   UNL     1      49.397  19.641  18.756  0.00  0.00    -0.048 A 
ATOM     17  C   UNL     1      50.741  19.387  18.969  0.00  0.00    +0.122 A 
ATOM     20  C   UNL     1      51.123  18.365  19.830  0.00  0.00    +0.064 A 
ATOM     23  C   UNL     1      50.159  17.656  20.506  0.00  0.00    +0.106 A 
ATOM     45  C   UNL     1      48.810  17.900  20.276  0.00  0.00    -0.100 A 
ATOM     46  C   UNL     1      47.793  17.052  20.996  0.00  0.00    +0.073 C 
ATOM     47  C   UNL     1      46.435  17.171  20.302  0.00  0.00    +0.230 C 
ENDROOT
BRANCH   7   8
ATOM      8  O   UNL     1      46.589  14.406  15.388  0.00  0.00    -0.487 OA
ATOM      9  H   UNL     1      46.733  14.970  14.618  0.00  0.00    +0.386 HD
ENDBRANCH   7   8
BRANCH  10  11
ATOM     11  O   UNL     1      46.426  13.023  17.770  0.00  0.00    -0.485 OA
ATOM     12  H   UNL     1      46.492  12.627  16.890  0.00  0.00    +0.385 HD
ENDBRANCH  10  11
BRANCH  17  18
ATOM     18  O   UNL     1      51.685  20.136  18.337  0.00  0.00    -0.302 OA
ATOM     19  C   UNL     1      51.822  19.952  16.927  0.00  0.00    +0.244 C 
ENDBRANCH  17  18
BRANCH  20  21
ATOM     21  O   UNL     1      52.443  18.107  20.043  0.00  0.00    -0.317 OA
ATOM     22  C   UNL     1      53.072  17.176  19.161  0.00  0.00    +0.229 C 
ENDBRANCH  20  21
BRANCH  23  24
ATOM     24  O   UNL     1      50.533  16.668  21.361  0.00  0.00    -0.250 OA
BRANCH  24  25
ATOM     25  C   UNL     1      50.130  15.400  21.086  0.00  0.00    +0.130 A 
ATOM     26  C   UNL     1      49.511  14.637  22.067  0.00  0.00    -0.055 A 
ATOM     27  C   UNL     1      49.102  13.351  21.779  0.00  0.00    +0.040 A 
ATOM     28  C   UNL     1      49.309  12.816  20.517  0.00  0.00    -0.107 A 
ATOM     29  C   UNL     1      49.927  13.569  19.541  0.00  0.00    -0.076 A 
ATOM     30  C   UNL     1      50.181  13.026  18.159  0.00  0.00    +0.233 C 
ATOM     40  N   UNL     1      49.346  11.846  17.908  0.00  0.00    -0.666 NA
ATOM     41  H   UNL     1      48.377  12.106  17.803  0.00  0.00    +0.342 HD
ATOM     42  C   UNL     1      49.515  10.863  18.990  0.00  0.00    +0.216 C 
ATOM     43  C   UNL     1      48.840  11.408  20.250  0.00  0.00    +0.039 C 
ATOM     44  C   UNL     1      50.330  14.865  19.824  0.00  0.00    -0.005 A 
BRANCH  30  31
ATOM     31  C   UNL     1      49.856  14.104  17.124  0.00  0.00    +0.084 C 
BRANCH  31  32
ATOM     32  C   UNL     1      50.285  13.636  15.758  0.00  0.00    -0.078 A 
ATOM     33  C   UNL     1      51.573  13.882  15.318  0.00  0.00    +0.021 A 
ATOM     34  C   UNL     1      51.969  13.453  14.066  0.00  0.00    -0.020 A 
ATOM     35  C   UNL     1      51.075  12.776  13.250  0.00  0.00    +0.099 A 
ATOM     38  C   UNL     1      49.784  12.530  13.694  0.00  0.00    -0.019 A 
ATOM     39  C   UNL     1      49.394  12.955  14.949  0.00  0.00    +0.046 A 
BRANCH  35  36
ATOM     36  O   UNL     1      51.463  12.354  12.017  0.00  0.00    -0.502 OA
ATOM     37  H   UNL     1      52.172  11.697  12.031  0.00  0.00    +0.390 HD
ENDBRANCH  35  36
ENDBRANCH  31  32
ENDBRANCH  30  31
ENDBRANCH  24  25
ENDBRANCH  23  24
TORSDOF 9
ENDMDL
MODEL 7
REMARK VINA RESULT:      -6.6      3.621      7.375
REMARK  Name = ZINC95486212
REMARK  12 active torsions:
REMARK  status: ('A' for Active; 'I' for Inactive)
REMARK    1  A    between atoms: C1_1  and  N1_2
REMARK    2  A    between atoms: C6_8  and  O6_46
REMARK    3  A    between atoms: C7_9  and  O5_45
REMARK    4  A    between atoms: C15_18  and  O4_43
REMARK    5  A    between atoms: C16_19  and  O3_41
REMARK    6  A    between atoms: C17_20  and  O1_21
REMARK    7  A    between atoms: O1_21  and  C18_22
REMARK    8  A    between atoms: C24_28  and  C27_33
REMARK    9  A    between atoms: C27_33  and  C28_34
REMARK   10  A    between atoms: C31_37  and  O2_40
REMARK   11  A    between atoms: O3_41  and  C34_42
REMARK   12  A    between atoms: O4_43  and  C35_44
REMARK                            x       y       z     vdW  Elec       q    Type
REMARK                         _______ _______ _______ _____ _____    ______ ____
ROOT
ATOM      1  C   UNL     1      47.768  11.580  15.007  0.00  0.00    +0.202 C 
ATOM      2  N   UNL     1      46.989  12.364  15.976  0.00  0.00    -0.514 NA
ATOM      3  C   UNL     1      46.981  11.716  17.291  0.00  0.00    +0.228 C 
ATOM      4  C   UNL     1      45.897  12.360  18.155  0.00  0.00    +0.112 C 
ATOM      5  C   UNL     1      46.055  13.859  18.140  0.00  0.00    -0.055 A 
ATOM      6  C   UNL     1      45.426  14.600  19.129  0.00  0.00    +0.002 A 
ATOM      7  C   UNL     1      45.542  15.978  19.152  0.00  0.00    +0.085 A 
ATOM     10  C   UNL     1      46.295  16.622  18.173  0.00  0.00    +0.083 A 
ATOM     13  C   UNL     1      46.920  15.877  17.190  0.00  0.00    +0.011 A 
ATOM     14  C   UNL     1      46.803  14.494  17.172  0.00  0.00    -0.060 A 
ATOM     15  C   UNL     1      48.312  11.865  17.977  0.00  0.00    -0.057 A 
ATOM     16  C   UNL     1      48.592  11.041  19.058  0.00  0.00    -0.048 A 
ATOM     17  C   UNL     1      49.802  11.141  19.724  0.00  0.00    +0.122 A 
ATOM     20  C   UNL     1      50.744  12.073  19.307  0.00  0.00    +0.064 A 
ATOM     23  C   UNL     1      50.487  12.846  18.201  0.00  0.00    +0.106 A 
ATOM     45  C   UNL     1      49.264  12.758  17.546  0.00  0.00    -0.100 A 
ATOM     46  C   UNL     1      49.007  13.673  16.376  0.00  0.00    +0.073 C 
ATOM     47  C   UNL     1      47.507  13.731  16.083  0.00  0.00    +0.230 C 
ENDROOT
BRANCH   7   8
ATOM      8  O   UNL     1      44.924  16.701  20.124  0.00  0.00    -0.487 OA
ATOM      9  H   UNL     1      44.056  17.041  19.870  0.00  0.00    +0.386 HD
ENDBRANCH   7   8
BRANCH  10  11
ATOM     11  O   UNL     1      46.415  17.976  18.184  0.00  0.00    -0.485 OA
ATOM     12  H   UNL     1      45.881  18.424  17.515  0.00  0.00    +0.385 HD
ENDBRANCH  10  11
BRANCH  17  18
ATOM     18  O   UNL     1      50.067  10.327  20.781  0.00  0.00    -0.302 OA
ATOM     19  C   UNL     1      49.428  10.645  22.020  0.00  0.00    +0.244 C 
ENDBRANCH  17  18
BRANCH  20  21
ATOM     21  O   UNL     1      51.936  12.179  19.958  0.00  0.00    -0.317 OA
ATOM     22  C   UNL     1      52.951  11.236  19.609  0.00  0.00    +0.229 C 
ENDBRANCH  20  21
BRANCH  23  24
ATOM     24  O   UNL     1      51.415  13.747  17.783  0.00  0.00    -0.250 OA
BRANCH  24  25
ATOM     25  C   UNL     1      51.770  14.741  18.639  0.00  0.00    +0.130 A 
ATOM     26  C   UNL     1      53.066  14.804  19.134  0.00  0.00    -0.055 A 
ATOM     27  C   UNL     1      53.419  15.818  20.000  0.00  0.00    +0.040 A 
ATOM     28  C   UNL     1      52.488  16.772  20.382  0.00  0.00    -0.107 A 
ATOM     29  C   UNL     1      51.198  16.709  19.896  0.00  0.00    -0.076 A 
ATOM     30  C   UNL     1      50.150  17.716  20.290  0.00  0.00    +0.233 C 
ATOM     40  N   UNL     1      50.776  18.913  20.862  0.00  0.00    -0.666 NA
ATOM     41  H   UNL     1      51.252  19.447  20.150  0.00  0.00    +0.342 HD
ATOM     42  C   UNL     1      51.698  18.538  21.945  0.00  0.00    +0.216 C 
ATOM     43  C   UNL     1      52.924  17.863  21.327  0.00  0.00    +0.039 C 
ATOM     44  C   UNL     1      50.843  15.697  19.017  0.00  0.00    -0.005 A 
BRANCH  30  31
ATOM     31  C   UNL     1      49.339  18.112  19.055  0.00  0.00    +0.084 C 
BRANCH  31  32
ATOM     32  C   UNL     1      50.164  19.022  18.182  0.00  0.00    -0.078 A 
ATOM     33  C   UNL     1      50.859  18.502  17.106  0.00  0.00    +0.021 A 
ATOM     34  C   UNL     1      51.616  19.334  16.305  0.00  0.00    -0.020 A 
ATOM     35  C   UNL     1      51.679  20.692  16.580  0.00  0.00    +0.099 A 
ATOM     38  C   UNL     1      50.981  21.212  17.660  0.00  0.00    -0.019 A 
ATOM     39  C   UNL     1      50.220  20.377  18.455  0.00  0.00    +0.046 A 
BRANCH  35  36
ATOM     36  O   UNL     1      52.424  21.513  15.793  0.00  0.00    -0.502 OA
ATOM     37  H   UNL     1      53.292  21.728  16.160  0.00  0.00    +0.390 HD
ENDBRANCH  35  36
ENDBRANCH  31  32
ENDBRANCH  30  31
ENDBRANCH  24  25
ENDBRANCH  23  24
TORSDOF 9
ENDMDL
MODEL 8
REMARK VINA RESULT:      -6.5      3.255      6.216
REMARK  Name = ZINC95486212
REMARK  12 active torsions:
REMARK  status: ('A' for Active; 'I' for Inactive)
REMARK    1  A    between atoms: C1_1  and  N1_2
REMARK    2  A    between atoms: C6_8  and  O6_46
REMARK    3  A    between atoms: C7_9  and  O5_45
REMARK    4  A    between atoms: C15_18  and  O4_43
REMARK    5  A    between atoms: C16_19  and  O3_41
REMARK    6  A    between atoms: C17_20  and  O1_21
REMARK    7  A    between atoms: O1_21  and  C18_22
REMARK    8  A    between atoms: C24_28  and  C27_33
REMARK    9  A    between atoms: C27_33  and  C28_34
REMARK   10  A    between atoms: C31_37  and  O2_40
REMARK   11  A    between atoms: O3_41  and  C34_42
REMARK   12  A    between atoms: O4_43  and  C35_44
REMARK                            x       y       z     vdW  Elec       q    Type
REMARK                         _______ _______ _______ _____ _____    ______ ____
ROOT
ATOM      1  C   UNL     1      47.693  11.749  16.721  0.00  0.00    +0.202 C 
ATOM      2  N   UNL     1      47.061  12.749  17.593  0.00  0.00    -0.514 NA
ATOM      3  C   UNL     1      47.710  12.786  18.907  0.00  0.00    +0.228 C 
ATOM      4  C   UNL     1      46.823  13.566  19.877  0.00  0.00    +0.112 C 
ATOM      5  C   UNL     1      46.446  14.894  19.271  0.00  0.00    -0.055 A 
ATOM      6  C   UNL     1      45.968  15.890  20.108  0.00  0.00    +0.002 A 
ATOM      7  C   UNL     1      45.607  17.123  19.593  0.00  0.00    +0.085 A 
ATOM     10  C   UNL     1      45.726  17.359  18.226  0.00  0.00    +0.083 A 
ATOM     13  C   UNL     1      46.204  16.361  17.397  0.00  0.00    +0.011 A 
ATOM     14  C   UNL     1      46.567  15.126  17.918  0.00  0.00    -0.060 A 
ATOM     15  C   UNL     1      49.057  13.451  18.827  0.00  0.00    -0.057 A 
ATOM     16  C   UNL     1      49.943  13.274  19.881  0.00  0.00    -0.048 A 
ATOM     17  C   UNL     1      51.194  13.867  19.856  0.00  0.00    +0.122 A 
ATOM     20  C   UNL     1      51.567  14.646  18.767  0.00  0.00    +0.064 A 
ATOM     23  C   UNL     1      50.710  14.770  17.700  0.00  0.00    +0.106 A 
ATOM     45  C   UNL     1      49.448  14.190  17.735  0.00  0.00    -0.100 A 
ATOM     46  C   UNL     1      48.522  14.409  16.566  0.00  0.00    +0.073 C 
ATOM     47  C   UNL     1      47.086  14.077  16.973  0.00  0.00    +0.230 C 
ENDROOT
BRANCH   7   8
ATOM      8  O   UNL     1      45.139  18.097  20.418  0.00  0.00    -0.487 OA
ATOM      9  H   UNL     1      44.244  17.938  20.747  0.00  0.00    +0.386 HD
ENDBRANCH   7   8
BRANCH  10  11
ATOM     11  O   UNL     1      45.374  18.566  17.709  0.00  0.00    -0.485 OA
ATOM     12  H   UNL     1      45.905  18.840  16.950  0.00  0.00    +0.385 HD
ENDBRANCH  10  11
BRANCH  17  18
ATOM     18  O   UNL     1      52.054  13.687  20.894  0.00  0.00    -0.302 OA
ATOM     19  C   UNL     1      52.825  12.484  20.896  0.00  0.00    +0.244 C 
ENDBRANCH  17  18
BRANCH  20  21
ATOM     21  O   UNL     1      52.795  15.235  18.736  0.00  0.00    -0.317 OA
ATOM     22  C   UNL     1      53.095  16.162  19.781  0.00  0.00    +0.229 C 
ENDBRANCH  20  21
BRANCH  23  24
ATOM     24  O   UNL     1      51.082  15.518  16.628  0.00  0.00    -0.250 OA
BRANCH  24  25
ATOM     25  C   UNL     1      51.251  16.854  16.809  0.00  0.00    +0.130 A 
ATOM     26  C   UNL     1      52.020  17.587  15.915  0.00  0.00    -0.055 A 
ATOM     27  C   UNL     1      52.183  18.944  16.104  0.00  0.00    +0.040 A 
ATOM     28  C   UNL     1      51.587  19.579  17.183  0.00  0.00    -0.107 A 
ATOM     29  C   UNL     1      50.825  18.853  18.076  0.00  0.00    -0.076 A 
ATOM     30  C   UNL     1      50.167  19.497  19.267  0.00  0.00    +0.233 C 
ATOM     40  N   UNL     1      50.100  20.952  19.094  0.00  0.00    -0.666 NA
ATOM     41  H   UNL     1      49.427  21.201  18.384  0.00  0.00    +0.342 HD
ATOM     42  C   UNL     1      51.431  21.489  18.769  0.00  0.00    +0.216 C 
ATOM     43  C   UNL     1      51.791  21.064  17.344  0.00  0.00    +0.039 C 
ATOM     44  C   UNL     1      50.651  17.491  17.883  0.00  0.00    -0.005 A 
BRANCH  30  31
ATOM     31  C   UNL     1      48.750  18.942  19.424  0.00  0.00    +0.084 C 
BRANCH  31  32
ATOM     32  C   UNL     1      47.925  19.897  20.248  0.00  0.00    -0.078 A 
ATOM     33  C   UNL     1      48.063  19.917  21.624  0.00  0.00    +0.021 A 
ATOM     34  C   UNL     1      47.308  20.791  22.382  0.00  0.00    -0.020 A 
ATOM     35  C   UNL     1      46.410  21.647  21.762  0.00  0.00    +0.099 A 
ATOM     38  C   UNL     1      46.273  21.625  20.381  0.00  0.00    -0.019 A 
ATOM     39  C   UNL     1      47.035  20.754  19.628  0.00  0.00    +0.046 A 
BRANCH  35  36
ATOM     36  O   UNL     1      45.665  22.507  22.505  0.00  0.00    -0.502 OA
ATOM     37  H   UNL     1      44.788  22.171  22.736  0.00  0.00    +0.390 HD
ENDBRANCH  35  36
ENDBRANCH  31  32
ENDBRANCH  30  31
ENDBRANCH  24  25
ENDBRANCH  23  24
TORSDOF 9
ENDMDL
MODEL 9
REMARK VINA RESULT:      -6.5      2.723      7.847
REMARK  Name = ZINC95486212
REMARK  12 active torsions:
REMARK  status: ('A' for Active; 'I' for Inactive)
REMARK    1  A    between atoms: C1_1  and  N1_2
REMARK    2  A    between atoms: C6_8  and  O6_46
REMARK    3  A    between atoms: C7_9  and  O5_45
REMARK    4  A    between atoms: C15_18  and  O4_43
REMARK    5  A    between atoms: C16_19  and  O3_41
REMARK    6  A    between atoms: C17_20  and  O1_21
REMARK    7  A    between atoms: O1_21  and  C18_22
REMARK    8  A    between atoms: C24_28  and  C27_33
REMARK    9  A    between atoms: C27_33  and  C28_34
REMARK   10  A    between atoms: C31_37  and  O2_40
REMARK   11  A    between atoms: O3_41  and  C34_42
REMARK   12  A    between atoms: O4_43  and  C35_44
REMARK                            x       y       z     vdW  Elec       q    Type
REMARK                         _______ _______ _______ _____ _____    ______ ____
ROOT
ATOM      1  C   UNL     1      47.305  16.516  16.893  0.00  0.00    +0.202 C 
ATOM      2  N   UNL     1      46.210  16.621  17.867  0.00  0.00    -0.514 NA
ATOM      3  C   UNL     1      46.387  15.662  18.962  0.00  0.00    +0.228 C 
ATOM      4  C   UNL     1      45.080  15.559  19.748  0.00  0.00    +0.112 C 
ATOM      5  C   UNL     1      44.601  16.938  20.126  0.00  0.00    -0.055 A 
ATOM      6  C   UNL     1      43.659  17.056  21.136  0.00  0.00    +0.002 A 
ATOM      7  C   UNL     1      43.189  18.301  21.513  0.00  0.00    +0.085 A 
ATOM     10  C   UNL     1      43.668  19.440  20.871  0.00  0.00    +0.083 A 
ATOM     13  C   UNL     1      44.609  19.316  19.865  0.00  0.00    +0.011 A 
ATOM     14  C   UNL     1      45.079  18.064  19.491  0.00  0.00    -0.060 A 
ATOM     15  C   UNL     1      47.488  16.097  19.891  0.00  0.00    -0.057 A 
ATOM     16  C   UNL     1      48.015  15.162  20.771  0.00  0.00    -0.048 A 
ATOM     17  C   UNL     1      49.028  15.513  21.647  0.00  0.00    +0.122 A 
ATOM     20  C   UNL     1      49.522  16.813  21.646  0.00  0.00    +0.064 A 
ATOM     23  C   UNL     1      49.039  17.718  20.732  0.00  0.00    +0.106 A 
ATOM     45  C   UNL     1      48.009  17.369  19.867  0.00  0.00    -0.100 A 
ATOM     46  C   UNL     1      47.471  18.418  18.928  0.00  0.00    +0.073 C 
ATOM     47  C   UNL     1      46.105  17.985  18.394  0.00  0.00    +0.230 C 
ENDROOT
BRANCH   7   8
ATOM      8  O   UNL     1      42.265  18.413  22.505  0.00  0.00    -0.487 OA
ATOM      9  H   UNL     1      42.399  17.799  23.238  0.00  0.00    +0.386 HD
ENDBRANCH   7   8
BRANCH  10  11
ATOM     11  O   UNL     1      43.214  20.669  21.232  0.00  0.00    -0.485 OA
ATOM     12  H   UNL     1      43.913  21.316  21.396  0.00  0.00    +0.385 HD
ENDBRANCH  10  11
BRANCH  17  18
ATOM     18  O   UNL     1      49.538  14.590  22.505  0.00  0.00    -0.302 OA
ATOM     19  C   UNL     1      50.445  13.630  21.961  0.00  0.00    +0.244 C 
ENDBRANCH  17  18
BRANCH  20  21
ATOM     21  O   UNL     1      50.517  17.167  22.505  0.00  0.00    -0.317 OA
ATOM     22  C   UNL     1      51.840  17.239  21.971  0.00  0.00    +0.229 C 
ENDBRANCH  20  21
BRANCH  23  24
ATOM     24  O   UNL     1      49.534  18.984  20.720  0.00  0.00    -0.250 OA
BRANCH  24  25
ATOM     25  C   UNL     1      50.143  19.420  19.585  0.00  0.00    +0.130 A 
ATOM     26  C   UNL     1      50.365  20.776  19.391  0.00  0.00    -0.055 A 
ATOM     27  C   UNL     1      50.986  21.210  18.239  0.00  0.00    +0.040 A 
ATOM     28  C   UNL     1      51.387  20.300  17.272  0.00  0.00    -0.107 A 
ATOM     29  C   UNL     1      51.164  18.952  17.460  0.00  0.00    -0.076 A 
ATOM     30  C   UNL     1      51.572  17.928  16.433  0.00  0.00    +0.233 C 
ATOM     40  N   UNL     1      52.551  18.496  15.500  0.00  0.00    -0.666 NA
ATOM     41  H   UNL     1      53.442  18.635  15.952  0.00  0.00    +0.342 HD
ATOM     42  C   UNL     1      52.044  19.757  14.935  0.00  0.00    +0.216 C 
ATOM     43  C   UNL     1      52.066  20.824  16.031  0.00  0.00    +0.039 C 
ATOM     44  C   UNL     1      50.549  18.512  18.621  0.00  0.00    -0.005 A 
BRANCH  30  31
ATOM     31  C   UNL     1      52.191  16.721  17.141  0.00  0.00    +0.084 C 
BRANCH  31  32
ATOM     32  C   UNL     1      51.331  15.506  16.907  0.00  0.00    -0.078 A 
ATOM     33  C   UNL     1      50.444  15.091  17.883  0.00  0.00    +0.021 A 
ATOM     34  C   UNL     1      49.655  13.978  17.672  0.00  0.00    -0.020 A 
ATOM     35  C   UNL     1      49.753  13.275  16.480  0.00  0.00    +0.099 A 
ATOM     38  C   UNL     1      50.644  13.693  15.502  0.00  0.00    -0.019 A 
ATOM     39  C   UNL     1      51.427  14.811  15.716  0.00  0.00    +0.046 A 
BRANCH  35  36
ATOM     36  O   UNL     1      48.978  12.178  16.270  0.00  0.00    -0.502 OA
ATOM     37  H   UNL     1      49.144  11.734  15.427  0.00  0.00    +0.390 HD
ENDBRANCH  35  36
ENDBRANCH  31  32
ENDBRANCH  30  31
ENDBRANCH  24  25
ENDBRANCH  23  24
TORSDOF 9
ENDMDL
