MODEL 1
REMARK VINA RESULT:      -5.2      0.000      0.000
REMARK  Name = ZINC00057731
REMARK  2 active torsions:
REMARK  status: ('A' for Active; 'I' for Inactive)
REMARK    1  A    between atoms: C1_1  and  O1_2
REMARK    2  A    between atoms: O1_2  and  C2_3
REMARK                            x       y       z     vdW  Elec       q    Type
REMARK                         _______ _______ _______ _____ _____    ______ ____
ROOT
ATOM      3  C   UNL     1      43.242  20.110  20.087  0.00  0.00    +0.216 A 
ATOM      4  C   UNL     1      44.221  21.024  20.498  0.00  0.00    -0.193 A 
ATOM      5  C   UNL     1      45.396  20.578  21.247  0.00  0.00    +0.167 A 
ATOM      6  C   UNL     1      46.313  21.510  21.618  0.00  0.00    -0.079 A 
ATOM      7  C   UNL     1      46.114  22.862  21.280  0.00  0.00    +0.511 A 
ATOM      8  O   UNL     1      45.036  23.268  20.592  0.00  0.00    -0.267 OA
ATOM      9  O   UNL     1      46.944  23.687  21.619  0.00  0.00    -0.455 OA
ATOM     10  C   UNL     1      44.083  22.394  20.191  0.00  0.00    +0.185 A 
ATOM     11  C   UNL     1      42.981  22.839  19.483  0.00  0.00    +0.024 A 
ATOM     12  C   UNL     1      42.005  21.940  19.072  0.00  0.00    +0.123 A 
ATOM     13  O   UNL     1      40.853  22.086  18.386  0.00  0.00    -0.185 OA
ATOM     14  C   UNL     1      40.242  20.900  18.214  0.00  0.00    +0.232 A 
ATOM     15  C   UNL     1      40.955  19.924  18.790  0.00  0.00    -0.026 A 
ATOM     16  C   UNL     1      42.139  20.571  19.370  0.00  0.00    -0.173 A 
ENDROOT
BRANCH   3   2
ATOM      1  C   UNL     1      42.681  18.314  21.538  0.00  0.00    +0.246 C 
ATOM      2  O   UNL     1      43.369  18.791  20.379  0.00  0.00    -0.328 OA
ENDBRANCH   3   2
TORSDOF 1
ENDMDL
MODEL 2
REMARK VINA RESULT:      -5.1      1.014      4.633
REMARK  Name = ZINC00057731
REMARK  2 active torsions:
REMARK  status: ('A' for Active; 'I' for Inactive)
REMARK    1  A    between atoms: C1_1  and  O1_2
REMARK    2  A    between atoms: O1_2  and  C2_3
REMARK                            x       y       z     vdW  Elec       q    Type
REMARK                         _______ _______ _______ _____ _____    ______ ____
ROOT
ATOM      3  C   UNL     1      44.366  20.318  20.667  0.00  0.00    +0.216 A 
ATOM      4  C   UNL     1      43.165  20.538  19.981  0.00  0.00    -0.193 A 
ATOM      5  C   UNL     1      42.262  19.428  19.677  0.00  0.00    +0.167 A 
ATOM      6  C   UNL     1      41.110  19.702  19.009  0.00  0.00    -0.079 A 
ATOM      7  C   UNL     1      40.818  21.026  18.628  0.00  0.00    +0.511 A 
ATOM      8  O   UNL     1      41.649  22.041  18.909  0.00  0.00    -0.267 OA
ATOM      9  O   UNL     1      39.783  21.256  18.030  0.00  0.00    -0.455 OA
ATOM     10  C   UNL     1      42.812  21.841  19.571  0.00  0.00    +0.185 A 
ATOM     11  C   UNL     1      43.651  22.905  19.848  0.00  0.00    +0.024 A 
ATOM     12  C   UNL     1      44.844  22.697  20.529  0.00  0.00    +0.123 A 
ATOM     13  O   UNL     1      45.831  23.526  20.924  0.00  0.00    -0.185 OA
ATOM     14  C   UNL     1      46.795  22.850  21.576  0.00  0.00    +0.232 A 
ATOM     15  C   UNL     1      46.492  21.546  21.626  0.00  0.00    -0.026 A 
ATOM     16  C   UNL     1      45.199  21.401  20.944  0.00  0.00    -0.173 A 
ENDROOT
BRANCH   3   2
ATOM      1  C   UNL     1      44.422  18.712  22.417  0.00  0.00    +0.246 C 
ATOM      2  O   UNL     1      44.711  19.067  21.063  0.00  0.00    -0.328 OA
ENDBRANCH   3   2
TORSDOF 1
ENDMDL
MODEL 3
REMARK VINA RESULT:      -5.1      2.267      5.147
REMARK  Name = ZINC00057731
REMARK  2 active torsions:
REMARK  status: ('A' for Active; 'I' for Inactive)
REMARK    1  A    between atoms: C1_1  and  O1_2
REMARK    2  A    between atoms: O1_2  and  C2_3
REMARK                            x       y       z     vdW  Elec       q    Type
REMARK                         _______ _______ _______ _____ _____    ______ ____
ROOT
ATOM      3  C   UNL     1      43.801  19.766  20.257  0.00  0.00    +0.216 A 
ATOM      4  C   UNL     1      42.561  20.277  19.852  0.00  0.00    -0.193 A 
ATOM      5  C   UNL     1      42.482  21.431  18.957  0.00  0.00    +0.167 A 
ATOM      6  C   UNL     1      41.251  21.882  18.598  0.00  0.00    -0.079 A 
ATOM      7  C   UNL     1      40.098  21.239  19.088  0.00  0.00    +0.511 A 
ATOM      8  O   UNL     1      40.175  20.180  19.909  0.00  0.00    -0.267 OA
ATOM      9  O   UNL     1      39.002  21.654  18.758  0.00  0.00    -0.455 OA
ATOM     10  C   UNL     1      41.367  19.678  20.307  0.00  0.00    +0.185 A 
ATOM     11  C   UNL     1      41.418  18.586  21.154  0.00  0.00    +0.024 A 
ATOM     12  C   UNL     1      42.642  18.073  21.560  0.00  0.00    +0.123 A 
ATOM     13  O   UNL     1      42.985  17.043  22.361  0.00  0.00    -0.185 OA
ATOM     14  C   UNL     1      44.323  16.923  22.444  0.00  0.00    +0.232 A 
ATOM     15  C   UNL     1      44.919  17.876  21.715  0.00  0.00    -0.026 A 
ATOM     16  C   UNL     1      43.837  18.661  21.106  0.00  0.00    -0.173 A 
ENDROOT
BRANCH   3   2
ATOM      1  C   UNL     1      45.552  19.779  18.652  0.00  0.00    +0.246 C 
ATOM      2  O   UNL     1      44.953  20.336  19.823  0.00  0.00    -0.328 OA
ENDBRANCH   3   2
TORSDOF 1
ENDMDL
MODEL 4
REMARK VINA RESULT:      -4.9     21.163     22.684
REMARK  Name = ZINC00057731
REMARK  2 active torsions:
REMARK  status: ('A' for Active; 'I' for Inactive)
REMARK    1  A    between atoms: C1_1  and  O1_2
REMARK    2  A    between atoms: O1_2  and  C2_3
REMARK                            x       y       z     vdW  Elec       q    Type
REMARK                         _______ _______ _______ _____ _____    ______ ____
ROOT
ATOM      3  C   UNL     1      54.703  32.168   4.093  0.00  0.00    +0.216 A 
ATOM      4  C   UNL     1      53.981  32.955   4.999  0.00  0.00    -0.193 A 
ATOM      5  C   UNL     1      52.520  32.895   5.046  0.00  0.00    +0.167 A 
ATOM      6  C   UNL     1      51.874  33.681   5.947  0.00  0.00    -0.079 A 
ATOM      7  C   UNL     1      52.612  34.523   6.801  0.00  0.00    +0.511 A 
ATOM      8  O   UNL     1      53.953  34.575   6.755  0.00  0.00    -0.267 OA
ATOM      9  O   UNL     1      52.020  35.221   7.603  0.00  0.00    -0.455 OA
ATOM     10  C   UNL     1      54.661  33.820   5.883  0.00  0.00    +0.185 A 
ATOM     11  C   UNL     1      56.041  33.893   5.857  0.00  0.00    +0.024 A 
ATOM     12  C   UNL     1      56.766  33.117   4.961  0.00  0.00    +0.123 A 
ATOM     13  O   UNL     1      58.086  32.987   4.719  0.00  0.00    -0.185 OA
ATOM     14  C   UNL     1      58.310  32.083   3.747  0.00  0.00    +0.232 A 
ATOM     15  C   UNL     1      57.149  31.590   3.297  0.00  0.00    -0.026 A 
ATOM     16  C   UNL     1      56.095  32.248   4.081  0.00  0.00    -0.173 A 
ENDROOT
BRANCH   3   2
ATOM      1  C   UNL     1      53.834  31.810   1.911  0.00  0.00    +0.246 C 
ATOM      2  O   UNL     1      54.056  31.335   3.240  0.00  0.00    -0.328 OA
ENDBRANCH   3   2
TORSDOF 1
ENDMDL
MODEL 5
REMARK VINA RESULT:      -4.8      1.642      3.683
REMARK  Name = ZINC00057731
REMARK  2 active torsions:
REMARK  status: ('A' for Active; 'I' for Inactive)
REMARK    1  A    between atoms: C1_1  and  O1_2
REMARK    2  A    between atoms: O1_2  and  C2_3
REMARK                            x       y       z     vdW  Elec       q    Type
REMARK                         _______ _______ _______ _____ _____    ______ ____
ROOT
ATOM      3  C   UNL     1      43.532  20.968  19.675  0.00  0.00    +0.216 A 
ATOM      4  C   UNL     1      43.917  19.839  20.410  0.00  0.00    -0.193 A 
ATOM      5  C   UNL     1      45.308  19.649  20.820  0.00  0.00    +0.167 A 
ATOM      6  C   UNL     1      45.622  18.536  21.533  0.00  0.00    -0.079 A 
ATOM      7  C   UNL     1      44.617  17.603  21.854  0.00  0.00    +0.511 A 
ATOM      8  O   UNL     1      43.341  17.780  21.477  0.00  0.00    -0.267 OA
ATOM      9  O   UNL     1      44.912  16.609  22.493  0.00  0.00    -0.455 OA
ATOM     10  C   UNL     1      42.959  18.866  20.766  0.00  0.00    +0.185 A 
ATOM     11  C   UNL     1      41.637  19.025  20.389  0.00  0.00    +0.024 A 
ATOM     12  C   UNL     1      41.247  20.141  19.660  0.00  0.00    +0.123 A 
ATOM     13  O   UNL     1      40.058  20.546  19.169  0.00  0.00    -0.185 OA
ATOM     14  C   UNL     1      40.178  21.725  18.531  0.00  0.00    +0.232 A 
ATOM     15  C   UNL     1      41.451  22.140  18.562  0.00  0.00    -0.026 A 
ATOM     16  C   UNL     1      42.196  21.117  19.307  0.00  0.00    -0.173 A 
ENDROOT
BRANCH   3   2
ATOM      1  C   UNL     1      44.541  23.062  20.167  0.00  0.00    +0.246 C 
ATOM      2  O   UNL     1      44.449  21.907  19.330  0.00  0.00    -0.328 OA
ENDBRANCH   3   2
TORSDOF 1
ENDMDL
MODEL 6
REMARK VINA RESULT:      -4.8     21.174     22.472
REMARK  Name = ZINC00057731
REMARK  2 active torsions:
REMARK  status: ('A' for Active; 'I' for Inactive)
REMARK    1  A    between atoms: C1_1  and  O1_2
REMARK    2  A    between atoms: O1_2  and  C2_3
REMARK                            x       y       z     vdW  Elec       q    Type
REMARK                         _______ _______ _______ _____ _____    ______ ____
ROOT
ATOM      3  C   UNL     1      54.246  32.395   4.499  0.00  0.00    +0.216 A 
ATOM      4  C   UNL     1      55.580  32.794   4.654  0.00  0.00    -0.193 A 
ATOM      5  C   UNL     1      56.634  32.234   3.809  0.00  0.00    +0.167 A 
ATOM      6  C   UNL     1      57.909  32.660   4.004  0.00  0.00    -0.079 A 
ATOM      7  C   UNL     1      58.184  33.616   5.002  0.00  0.00    +0.511 A 
ATOM      8  O   UNL     1      57.214  34.128   5.775  0.00  0.00    -0.267 OA
ATOM      9  O   UNL     1      59.331  33.989   5.166  0.00  0.00    -0.455 OA
ATOM     10  C   UNL     1      55.923  33.749   5.635  0.00  0.00    +0.185 A 
ATOM     11  C   UNL     1      54.943  34.293   6.445  0.00  0.00    +0.024 A 
ATOM     12  C   UNL     1      53.618  33.902   6.298  0.00  0.00    +0.123 A 
ATOM     13  O   UNL     1      52.482  34.255   6.933  0.00  0.00    -0.185 OA
ATOM     14  C   UNL     1      51.421  33.605   6.419  0.00  0.00    +0.232 A 
ATOM     15  C   UNL     1      51.814  32.786   5.435  0.00  0.00    -0.026 A 
ATOM     16  C   UNL     1      53.269  32.955   5.319  0.00  0.00    -0.173 A 
ENDROOT
BRANCH   3   2
ATOM      1  C   UNL     1      53.390  31.975   2.323  0.00  0.00    +0.246 C 
ATOM      2  O   UNL     1      53.910  31.477   3.557  0.00  0.00    -0.328 OA
ENDBRANCH   3   2
TORSDOF 1
ENDMDL
MODEL 7
REMARK VINA RESULT:      -4.7      2.722      5.026
REMARK  Name = ZINC00057731
REMARK  2 active torsions:
REMARK  status: ('A' for Active; 'I' for Inactive)
REMARK    1  A    between atoms: C1_1  and  O1_2
REMARK    2  A    between atoms: O1_2  and  C2_3
REMARK                            x       y       z     vdW  Elec       q    Type
REMARK                         _______ _______ _______ _____ _____    ______ ____
ROOT
ATOM      3  C   UNL     1      43.942  18.627  21.112  0.00  0.00    +0.216 A 
ATOM      4  C   UNL     1      42.929  19.203  20.334  0.00  0.00    -0.193 A 
ATOM      5  C   UNL     1      41.541  19.207  20.795  0.00  0.00    +0.167 A 
ATOM      6  C   UNL     1      40.601  19.780  19.997  0.00  0.00    -0.079 A 
ATOM      7  C   UNL     1      40.979  20.347  18.765  0.00  0.00    +0.511 A 
ATOM      8  O   UNL     1      42.253  20.341  18.345  0.00  0.00    -0.267 OA
ATOM      9  O   UNL     1      40.126  20.857  18.060  0.00  0.00    -0.455 OA
ATOM     10  C   UNL     1      43.240  19.788  19.088  0.00  0.00    +0.185 A 
ATOM     11  C   UNL     1      44.546  19.795  18.632  0.00  0.00    +0.024 A 
ATOM     12  C   UNL     1      45.557  19.227  19.397  0.00  0.00    +0.123 A 
ATOM     13  O   UNL     1      46.885  19.093  19.208  0.00  0.00    -0.185 OA
ATOM     14  C   UNL     1      47.460  18.474  20.255  0.00  0.00    +0.232 A 
ATOM     15  C   UNL     1      46.535  18.160  21.172  0.00  0.00    -0.026 A 
ATOM     16  C   UNL     1      45.254  18.647  20.643  0.00  0.00    -0.173 A 
ENDROOT
BRANCH   3   2
ATOM      1  C   UNL     1      43.457  16.647  22.332  0.00  0.00    +0.246 C 
ATOM      2  O   UNL     1      43.649  18.063  22.311  0.00  0.00    -0.328 OA
ENDBRANCH   3   2
TORSDOF 1
ENDMDL
MODEL 8
REMARK VINA RESULT:      -4.6     21.110     22.335
REMARK  Name = ZINC00057731
REMARK  2 active torsions:
REMARK  status: ('A' for Active; 'I' for Inactive)
REMARK    1  A    between atoms: C1_1  and  O1_2
REMARK    2  A    between atoms: O1_2  and  C2_3
REMARK                            x       y       z     vdW  Elec       q    Type
REMARK                         _______ _______ _______ _____ _____    ______ ____
ROOT
ATOM      3  C   UNL     1      53.392  33.418   5.565  0.00  0.00    +0.216 A 
ATOM      4  C   UNL     1      54.716  33.214   5.154  0.00  0.00    -0.193 A 
ATOM      5  C   UNL     1      55.832  33.495   6.056  0.00  0.00    +0.167 A 
ATOM      6  C   UNL     1      57.095  33.277   5.603  0.00  0.00    -0.079 A 
ATOM      7  C   UNL     1      57.297  32.796   4.295  0.00  0.00    +0.511 A 
ATOM      8  O   UNL     1      56.270  32.540   3.470  0.00  0.00    -0.267 OA
ATOM      9  O   UNL     1      58.434  32.606   3.902  0.00  0.00    -0.455 OA
ATOM     10  C   UNL     1      54.988  32.733   3.856  0.00  0.00    +0.185 A 
ATOM     11  C   UNL     1      53.947  32.462   2.986  0.00  0.00    +0.024 A 
ATOM     12  C   UNL     1      52.632  32.660   3.384  0.00  0.00    +0.123 A 
ATOM     13  O   UNL     1      51.448  32.485   2.762  0.00  0.00    -0.185 OA
ATOM     14  C   UNL     1      50.425  32.805   3.576  0.00  0.00    +0.232 A 
ATOM     15  C   UNL     1      50.889  33.219   4.762  0.00  0.00    -0.026 A 
ATOM     16  C   UNL     1      52.354  33.135   4.679  0.00  0.00    -0.173 A 
ENDROOT
BRANCH   3   2
ATOM      1  C   UNL     1      52.793  35.266   6.933  0.00  0.00    +0.246 C 
ATOM      2  O   UNL     1      53.124  33.881   6.812  0.00  0.00    -0.328 OA
ENDBRANCH   3   2
TORSDOF 1
ENDMDL
MODEL 9
REMARK VINA RESULT:      -4.6     21.605     23.659
REMARK  Name = ZINC00057731
REMARK  2 active torsions:
REMARK  status: ('A' for Active; 'I' for Inactive)
REMARK    1  A    between atoms: C1_1  and  O1_2
REMARK    2  A    between atoms: O1_2  and  C2_3
REMARK                            x       y       z     vdW  Elec       q    Type
REMARK                         _______ _______ _______ _____ _____    ______ ____
ROOT
ATOM      3  C   UNL     1      42.283  34.662   0.244  0.00  0.00    +0.216 A 
ATOM      4  C   UNL     1      40.951  34.355   0.549  0.00  0.00    -0.193 A 
ATOM      5  C   UNL     1      39.875  34.664  -0.392  0.00  0.00    +0.167 A 
ATOM      6  C   UNL     1      38.602  34.342  -0.041  0.00  0.00    -0.079 A 
ATOM      7  C   UNL     1      38.351  33.728   1.201  0.00  0.00    +0.511 A 
ATOM      8  O   UNL     1      39.341  33.445   2.062  0.00  0.00    -0.267 OA
ATOM      9  O   UNL     1      37.206  33.445   1.502  0.00  0.00    -0.455 OA
ATOM     10  C   UNL     1      40.631  33.738   1.778  0.00  0.00    +0.185 A 
ATOM     11  C   UNL     1      41.632  33.436   2.683  0.00  0.00    +0.024 A 
ATOM     12  C   UNL     1      42.955  33.737   2.388  0.00  0.00    +0.123 A 
ATOM     13  O   UNL     1      44.109  33.562   3.065  0.00  0.00    -0.185 OA
ATOM     14  C   UNL     1      45.158  34.010   2.351  0.00  0.00    +0.232 A 
ATOM     15  C   UNL     1      44.742  34.512   1.181  0.00  0.00    -0.026 A 
ATOM     16  C   UNL     1      43.282  34.347   1.163  0.00  0.00    -0.173 A 
ENDROOT
BRANCH   3   2
ATOM      1  C   UNL     1      43.063  34.404  -1.985  0.00  0.00    +0.246 C 
ATOM      2  O   UNL     1      42.597  35.255  -0.936  0.00  0.00    -0.328 OA
ENDBRANCH   3   2
TORSDOF 1
ENDMDL
