MODEL 1
REMARK VINA RESULT:      -5.3      0.000      0.000
REMARK  Name = ZINC95486169
REMARK  4 active torsions:
REMARK  status: ('A' for Active; 'I' for Inactive)
REMARK    1  A    between atoms: C1_1  and  C2_2
REMARK    2  A    between atoms: C3_4  and  O6_21
REMARK    3  A    between atoms: C10_13  and  O2_14
REMARK    4  A    between atoms: O2_14  and  C11_15
REMARK                            x       y       z     vdW  Elec       q    Type
REMARK                         _______ _______ _______ _____ _____    ______ ____
ROOT
ATOM      1  C   UNL     1      45.385  16.502  19.694  0.00  0.00    +0.077 C 
ATOM      2  C   UNL     1      45.254  17.116  21.090  0.00  0.00    +0.002 C 
ATOM      3  C   UNL     1      46.144  18.362  21.190  0.00  0.00    +0.188 C 
ATOM      6  C   UNL     1      45.669  19.376  20.173  0.00  0.00    +0.374 C 
ATOM      7  C   UNL     1      44.229  19.643  20.068  0.00  0.00    -0.141 A 
ATOM      8  C   UNL     1      43.310  18.730  20.641  0.00  0.00    -0.092 A 
ATOM      9  C   UNL     1      41.945  18.971  20.546  0.00  0.00    +0.098 A 
ATOM     10  C   UNL     1      41.484  20.108  19.892  0.00  0.00    +0.072 A 
ATOM     11  C   UNL     1      42.383  21.009  19.326  0.00  0.00    +0.027 A 
ATOM     12  O   UNL     1      41.677  22.026  18.751  0.00  0.00    -0.291 OA
ATOM     13  C   UNL     1      40.333  21.529  18.611  0.00  0.00    +0.444 C 
ATOM     14  O   UNL     1      40.216  20.559  19.669  0.00  0.00    -0.296 OA
ATOM     15  C   UNL     1      43.757  20.782  19.412  0.00  0.00    +0.168 A 
ATOM     18  O   UNL     1      46.461  19.956  19.461  0.00  0.00    -0.409 OA
ATOM     19  C   UNL     1      43.818  17.528  21.332  0.00  0.00    +0.417 C 
ATOM     20  O   UNL     1      43.106  16.887  22.077  0.00  0.00    -0.422 OA
ENDROOT
BRANCH   3   4
ATOM      4  O   UNL     1      46.051  18.914  22.505  0.00  0.00    -0.540 OA
ATOM      5  H   UNL     1      45.643  18.322  23.153  0.00  0.00    +0.393 HD
ENDBRANCH   3   4
BRANCH  15  16
ATOM     16  O   UNL     1      44.630  21.662  18.862  0.00  0.00    -0.316 OA
ATOM     17  C   UNL     1      44.770  22.927  19.510  0.00  0.00    +0.248 C 
ENDBRANCH  15  16
TORSDOF 2
ENDMDL
MODEL 2
REMARK VINA RESULT:      -5.1      2.209      5.539
REMARK  Name = ZINC95486169
REMARK  4 active torsions:
REMARK  status: ('A' for Active; 'I' for Inactive)
REMARK    1  A    between atoms: C1_1  and  C2_2
REMARK    2  A    between atoms: C3_4  and  O6_21
REMARK    3  A    between atoms: C10_13  and  O2_14
REMARK    4  A    between atoms: O2_14  and  C11_15
REMARK                            x       y       z     vdW  Elec       q    Type
REMARK                         _______ _______ _______ _____ _____    ______ ____
ROOT
ATOM      1  C   UNL     1      42.154  19.957  19.594  0.00  0.00    +0.077 C 
ATOM      2  C   UNL     1      43.458  20.405  20.256  0.00  0.00    +0.002 C 
ATOM      3  C   UNL     1      43.716  19.561  21.511  0.00  0.00    +0.188 C 
ATOM      6  C   UNL     1      43.863  18.114  21.095  0.00  0.00    +0.374 C 
ATOM      7  C   UNL     1      44.715  17.797  19.943  0.00  0.00    -0.141 A 
ATOM      8  C   UNL     1      45.087  18.832  19.050  0.00  0.00    -0.092 A 
ATOM      9  C   UNL     1      45.892  18.544  17.955  0.00  0.00    +0.098 A 
ATOM     10  C   UNL     1      46.332  17.243  17.738  0.00  0.00    +0.072 A 
ATOM     11  C   UNL     1      45.968  16.221  18.612  0.00  0.00    +0.027 A 
ATOM     12  O   UNL     1      46.526  15.055  18.174  0.00  0.00    -0.291 OA
ATOM     13  C   UNL     1      46.891  15.295  16.803  0.00  0.00    +0.444 C 
ATOM     14  O   UNL     1      47.115  16.716  16.753  0.00  0.00    -0.296 OA
ATOM     15  C   UNL     1      45.160  16.493  19.717  0.00  0.00    +0.168 A 
ATOM     18  O   UNL     1      43.288  17.234  21.702  0.00  0.00    -0.409 OA
ATOM     19  C   UNL     1      44.611  20.208  19.296  0.00  0.00    +0.417 C 
ATOM     20  O   UNL     1      45.131  21.157  18.747  0.00  0.00    -0.422 OA
ENDROOT
BRANCH   3   4
ATOM      4  O   UNL     1      44.914  20.005  22.151  0.00  0.00    -0.540 OA
ATOM      5  H   UNL     1      44.885  19.958  23.117  0.00  0.00    +0.393 HD
ENDBRANCH   3   4
BRANCH  15  16
ATOM     16  O   UNL     1      44.809  15.497  20.567  0.00  0.00    -0.316 OA
ATOM     17  C   UNL     1      45.832  14.983  21.422  0.00  0.00    +0.248 C 
ENDBRANCH  15  16
TORSDOF 2
ENDMDL
MODEL 3
REMARK VINA RESULT:      -4.9      2.666      5.963
REMARK  Name = ZINC95486169
REMARK  4 active torsions:
REMARK  status: ('A' for Active; 'I' for Inactive)
REMARK    1  A    between atoms: C1_1  and  C2_2
REMARK    2  A    between atoms: C3_4  and  O6_21
REMARK    3  A    between atoms: C10_13  and  O2_14
REMARK    4  A    between atoms: O2_14  and  C11_15
REMARK                            x       y       z     vdW  Elec       q    Type
REMARK                         _______ _______ _______ _____ _____    ______ ____
ROOT
ATOM      1  C   UNL     1      44.723  23.449  19.341  0.00  0.00    +0.077 C 
ATOM      2  C   UNL     1      44.691  22.630  20.633  0.00  0.00    +0.002 C 
ATOM      3  C   UNL     1      43.896  21.337  20.404  0.00  0.00    +0.188 C 
ATOM      6  C   UNL     1      44.598  20.524  19.338  0.00  0.00    +0.374 C 
ATOM      7  C   UNL     1      46.054  20.356  19.428  0.00  0.00    -0.141 A 
ATOM      8  C   UNL     1      46.801  21.217  20.269  0.00  0.00    -0.092 A 
ATOM      9  C   UNL     1      48.180  21.068  20.360  0.00  0.00    +0.098 A 
ATOM     10  C   UNL     1      48.822  20.077  19.627  0.00  0.00    +0.072 A 
ATOM     11  C   UNL     1      48.092  19.229  18.798  0.00  0.00    +0.027 A 
ATOM     12  O   UNL     1      48.955  18.356  18.199  0.00  0.00    -0.291 OA
ATOM     13  C   UNL     1      50.260  18.942  18.353  0.00  0.00    +0.444 C 
ATOM     14  O   UNL     1      50.141  19.736  19.547  0.00  0.00    -0.296 OA
ATOM     15  C   UNL     1      46.707  19.363  18.695  0.00  0.00    +0.168 A 
ATOM     18  O   UNL     1      43.970  20.022  18.430  0.00  0.00    -0.409 OA
ATOM     19  C   UNL     1      46.102  22.264  21.039  0.00  0.00    +0.417 C 
ATOM     20  O   UNL     1      46.640  22.817  21.975  0.00  0.00    -0.422 OA
ENDROOT
BRANCH   3   4
ATOM      4  O   UNL     1      43.834  20.589  21.621  0.00  0.00    -0.540 OA
ATOM      5  H   UNL     1      42.962  20.590  22.039  0.00  0.00    +0.393 HD
ENDBRANCH   3   4
BRANCH  15  16
ATOM     16  O   UNL     1      45.999  18.535  17.887  0.00  0.00    -0.316 OA
ATOM     17  C   UNL     1      45.884  17.171  18.298  0.00  0.00    +0.248 C 
ENDBRANCH  15  16
TORSDOF 2
ENDMDL
MODEL 4
REMARK VINA RESULT:      -4.9     20.894     23.383
REMARK  Name = ZINC95486169
REMARK  4 active torsions:
REMARK  status: ('A' for Active; 'I' for Inactive)
REMARK    1  A    between atoms: C1_1  and  C2_2
REMARK    2  A    between atoms: C3_4  and  O6_21
REMARK    3  A    between atoms: C10_13  and  O2_14
REMARK    4  A    between atoms: O2_14  and  C11_15
REMARK                            x       y       z     vdW  Elec       q    Type
REMARK                         _______ _______ _______ _____ _____    ______ ____
ROOT
ATOM      1  C   UNL     1      52.427  35.382   5.957  0.00  0.00    +0.077 C 
ATOM      2  C   UNL     1      52.254  33.939   6.436  0.00  0.00    +0.002 C 
ATOM      3  C   UNL     1      50.930  33.374   5.902  0.00  0.00    +0.188 C 
ATOM      6  C   UNL     1      50.982  33.375   4.390  0.00  0.00    +0.374 C 
ATOM      7  C   UNL     1      52.191  32.867   3.729  0.00  0.00    -0.141 A 
ATOM      8  C   UNL     1      53.384  32.725   4.479  0.00  0.00    -0.092 A 
ATOM      9  C   UNL     1      54.535  32.247   3.863  0.00  0.00    +0.098 A 
ATOM     10  C   UNL     1      54.513  31.909   2.515  0.00  0.00    +0.072 A 
ATOM     11  C   UNL     1      53.342  32.049   1.772  0.00  0.00    +0.027 A 
ATOM     12  O   UNL     1      53.590  31.653   0.489  0.00  0.00    -0.291 OA
ATOM     13  C   UNL     1      55.023  31.661   0.356  0.00  0.00    +0.444 C 
ATOM     14  O   UNL     1      55.493  31.428   1.697  0.00  0.00    -0.296 OA
ATOM     15  C   UNL     1      52.178  32.527   2.375  0.00  0.00    +0.168 A 
ATOM     18  O   UNL     1      50.045  33.785   3.739  0.00  0.00    -0.409 OA
ATOM     19  C   UNL     1      53.389  33.089   5.909  0.00  0.00    +0.417 C 
ATOM     20  O   UNL     1      54.276  32.714   6.647  0.00  0.00    -0.422 OA
ENDROOT
BRANCH   3   4
ATOM      4  O   UNL     1      50.750  32.039   6.380  0.00  0.00    -0.540 OA
ATOM      5  H   UNL     1      51.575  31.588   6.608  0.00  0.00    +0.393 HD
ENDBRANCH   3   4
BRANCH  15  16
ATOM     16  O   UNL     1      51.040  32.660   1.650  0.00  0.00    -0.316 OA
ATOM     17  C   UNL     1      51.036  33.657   0.626  0.00  0.00    +0.248 C 
ENDBRANCH  15  16
TORSDOF 2
ENDMDL
MODEL 5
REMARK VINA RESULT:      -4.7      2.681      5.060
REMARK  Name = ZINC95486169
REMARK  4 active torsions:
REMARK  status: ('A' for Active; 'I' for Inactive)
REMARK    1  A    between atoms: C1_1  and  C2_2
REMARK    2  A    between atoms: C3_4  and  O6_21
REMARK    3  A    between atoms: C10_13  and  O2_14
REMARK    4  A    between atoms: O2_14  and  C11_15
REMARK                            x       y       z     vdW  Elec       q    Type
REMARK                         _______ _______ _______ _____ _____    ______ ____
ROOT
ATOM      1  C   UNL     1      48.032  13.948  19.577  0.00  0.00    +0.077 C 
ATOM      2  C   UNL     1      46.776  13.711  18.736  0.00  0.00    +0.002 C 
ATOM      3  C   UNL     1      45.583  13.426  19.658  0.00  0.00    +0.188 C 
ATOM      6  C   UNL     1      45.352  14.639  20.534  0.00  0.00    +0.374 C 
ATOM      7  C   UNL     1      45.356  15.967  19.909  0.00  0.00    -0.141 A 
ATOM      8  C   UNL     1      45.909  16.123  18.614  0.00  0.00    -0.092 A 
ATOM      9  C   UNL     1      45.920  17.376  18.013  0.00  0.00    +0.098 A 
ATOM     10  C   UNL     1      45.388  18.473  18.682  0.00  0.00    +0.072 A 
ATOM     11  C   UNL     1      44.844  18.325  19.956  0.00  0.00    +0.027 A 
ATOM     12  O   UNL     1      44.397  19.543  20.382  0.00  0.00    -0.291 OA
ATOM     13  C   UNL     1      45.043  20.507  19.532  0.00  0.00    +0.444 C 
ATOM     14  O   UNL     1      45.283  19.781  18.312  0.00  0.00    -0.296 OA
ATOM     15  C   UNL     1      44.825  17.074  20.574  0.00  0.00    +0.168 A 
ATOM     18  O   UNL     1      45.167  14.515  21.726  0.00  0.00    -0.409 OA
ATOM     19  C   UNL     1      46.470  14.948  17.919  0.00  0.00    +0.417 C 
ATOM     20  O   UNL     1      46.678  14.968  16.724  0.00  0.00    -0.422 OA
ENDROOT
BRANCH   3   4
ATOM      4  O   UNL     1      44.418  13.168  18.872  0.00  0.00    -0.540 OA
ATOM      5  H   UNL     1      44.487  13.471  17.956  0.00  0.00    +0.393 HD
ENDBRANCH   3   4
BRANCH  15  16
ATOM     16  O   UNL     1      44.293  16.933  21.813  0.00  0.00    -0.316 OA
ATOM     17  C   UNL     1      42.903  17.230  21.960  0.00  0.00    +0.248 C 
ENDBRANCH  15  16
TORSDOF 2
ENDMDL
MODEL 6
REMARK VINA RESULT:      -4.7      2.159      5.217
REMARK  Name = ZINC95486169
REMARK  4 active torsions:
REMARK  status: ('A' for Active; 'I' for Inactive)
REMARK    1  A    between atoms: C1_1  and  C2_2
REMARK    2  A    between atoms: C3_4  and  O6_21
REMARK    3  A    between atoms: C10_13  and  O2_14
REMARK    4  A    between atoms: O2_14  and  C11_15
REMARK                            x       y       z     vdW  Elec       q    Type
REMARK                         _______ _______ _______ _____ _____    ______ ____
ROOT
ATOM      1  C   UNL     1      45.361  20.871  21.124  0.00  0.00    +0.077 C 
ATOM      2  C   UNL     1      43.945  20.460  20.716  0.00  0.00    +0.002 C 
ATOM      3  C   UNL     1      43.898  20.205  19.203  0.00  0.00    +0.188 C 
ATOM      6  C   UNL     1      44.841  19.066  18.879  0.00  0.00    +0.374 C 
ATOM      7  C   UNL     1      44.803  17.862  19.718  0.00  0.00    -0.141 A 
ATOM      8  C   UNL     1      44.169  17.918  20.983  0.00  0.00    -0.092 A 
ATOM      9  C   UNL     1      44.128  16.785  21.787  0.00  0.00    +0.098 A 
ATOM     10  C   UNL     1      44.708  15.600  21.348  0.00  0.00    +0.072 A 
ATOM     11  C   UNL     1      45.333  15.540  20.105  0.00  0.00    +0.027 A 
ATOM     12  O   UNL     1      45.814  14.276  19.920  0.00  0.00    -0.291 OA
ATOM     13  C   UNL     1      45.838  13.680  21.230  0.00  0.00    +0.444 C 
ATOM     14  O   UNL     1      44.798  14.375  21.941  0.00  0.00    -0.296 OA
ATOM     15  C   UNL     1      45.383  16.668  19.285  0.00  0.00    +0.168 A 
ATOM     18  O   UNL     1      45.610  19.147  17.944  0.00  0.00    -0.409 OA
ATOM     19  C   UNL     1      43.559  19.185  21.433  0.00  0.00    +0.417 C 
ATOM     20  O   UNL     1      42.765  19.206  22.351  0.00  0.00    -0.422 OA
ENDROOT
BRANCH   3   4
ATOM      4  O   UNL     1      42.567  19.857  18.815  0.00  0.00    -0.540 OA
ATOM      5  H   UNL     1      42.259  19.015  19.177  0.00  0.00    +0.393 HD
ENDBRANCH   3   4
BRANCH  15  16
ATOM     16  O   UNL     1      45.992  16.606  18.075  0.00  0.00    -0.316 OA
ATOM     17  C   UNL     1      47.405  16.394  18.070  0.00  0.00    +0.248 C 
ENDBRANCH  15  16
TORSDOF 2
ENDMDL
MODEL 7
REMARK VINA RESULT:      -4.7      5.115      7.383
REMARK  Name = ZINC95486169
REMARK  4 active torsions:
REMARK  status: ('A' for Active; 'I' for Inactive)
REMARK    1  A    between atoms: C1_1  and  C2_2
REMARK    2  A    between atoms: C3_4  and  O6_21
REMARK    3  A    between atoms: C10_13  and  O2_14
REMARK    4  A    between atoms: O2_14  and  C11_15
REMARK                            x       y       z     vdW  Elec       q    Type
REMARK                         _______ _______ _______ _____ _____    ______ ____
ROOT
ATOM      1  C   UNL     1      51.479  21.136  16.136  0.00  0.00    +0.077 C 
ATOM      2  C   UNL     1      52.231  19.943  16.732  0.00  0.00    +0.002 C 
ATOM      3  C   UNL     1      52.356  20.119  18.251  0.00  0.00    +0.188 C 
ATOM      6  C   UNL     1      50.966  20.156  18.847  0.00  0.00    +0.374 C 
ATOM      7  C   UNL     1      49.989  19.150  18.412  0.00  0.00    -0.141 A 
ATOM      8  C   UNL     1      50.233  18.412  17.228  0.00  0.00    -0.092 A 
ATOM      9  C   UNL     1      49.314  17.459  16.806  0.00  0.00    +0.098 A 
ATOM     10  C   UNL     1      48.160  17.230  17.546  0.00  0.00    +0.072 A 
ATOM     11  C   UNL     1      47.914  17.954  18.710  0.00  0.00    +0.027 A 
ATOM     12  O   UNL     1      46.725  17.540  19.237  0.00  0.00    -0.291 OA
ATOM     13  C   UNL     1      46.050  16.852  18.169  0.00  0.00    +0.444 C 
ATOM     14  O   UNL     1      47.124  16.365  17.343  0.00  0.00    -0.296 OA
ATOM     15  C   UNL     1      48.826  18.915  19.149  0.00  0.00    +0.168 A 
ATOM     18  O   UNL     1      50.666  20.998  19.667  0.00  0.00    -0.409 OA
ATOM     19  C   UNL     1      51.464  18.669  16.455  0.00  0.00    +0.417 C 
ATOM     20  O   UNL     1      51.855  17.879  15.621  0.00  0.00    -0.422 OA
ENDROOT
BRANCH   3   4
ATOM      4  O   UNL     1      53.091  19.024  18.803  0.00  0.00    -0.540 OA
ATOM      5  H   UNL     1      52.556  18.237  18.971  0.00  0.00    +0.393 HD
ENDBRANCH   3   4
BRANCH  15  16
ATOM     16  O   UNL     1      48.585  19.616  20.284  0.00  0.00    -0.316 OA
ATOM     17  C   UNL     1      48.706  18.910  21.521  0.00  0.00    +0.248 C 
ENDBRANCH  15  16
TORSDOF 2
ENDMDL
MODEL 8
REMARK VINA RESULT:      -4.7      2.700      5.453
REMARK  Name = ZINC95486169
REMARK  4 active torsions:
REMARK  status: ('A' for Active; 'I' for Inactive)
REMARK    1  A    between atoms: C1_1  and  C2_2
REMARK    2  A    between atoms: C3_4  and  O6_21
REMARK    3  A    between atoms: C10_13  and  O2_14
REMARK    4  A    between atoms: O2_14  and  C11_15
REMARK                            x       y       z     vdW  Elec       q    Type
REMARK                         _______ _______ _______ _____ _____    ______ ____
ROOT
ATOM      1  C   UNL     1      44.156  20.264  21.504  0.00  0.00    +0.077 C 
ATOM      2  C   UNL     1      44.061  21.007  20.170  0.00  0.00    +0.002 C 
ATOM      3  C   UNL     1      45.178  22.056  20.084  0.00  0.00    +0.188 C 
ATOM      6  C   UNL     1      46.512  21.345  20.143  0.00  0.00    +0.374 C 
ATOM      7  C   UNL     1      46.709  20.152  19.310  0.00  0.00    -0.141 A 
ATOM      8  C   UNL     1      45.581  19.498  18.757  0.00  0.00    -0.092 A 
ATOM      9  C   UNL     1      45.755  18.367  17.968  0.00  0.00    +0.098 A 
ATOM     10  C   UNL     1      47.034  17.881  17.723  0.00  0.00    +0.072 A 
ATOM     11  C   UNL     1      48.147  18.520  18.265  0.00  0.00    +0.027 A 
ATOM     12  O   UNL     1      49.268  17.847  17.874  0.00  0.00    -0.291 OA
ATOM     13  C   UNL     1      48.807  16.558  17.431  0.00  0.00    +0.444 C 
ATOM     14  O   UNL     1      47.458  16.808  16.995  0.00  0.00    -0.296 OA
ATOM     15  C   UNL     1      47.990  19.657  19.059  0.00  0.00    +0.168 A 
ATOM     18  O   UNL     1      47.399  21.752  20.863  0.00  0.00    -0.409 OA
ATOM     19  C   UNL     1      44.230  20.028  19.029  0.00  0.00    +0.417 C 
ATOM     20  O   UNL     1      43.279  19.692  18.355  0.00  0.00    -0.422 OA
ENDROOT
BRANCH   3   4
ATOM      4  O   UNL     1      45.067  22.777  18.855  0.00  0.00    -0.540 OA
ATOM      5  H   UNL     1      44.506  23.563  18.909  0.00  0.00    +0.393 HD
ENDBRANCH   3   4
BRANCH  15  16
ATOM     16  O   UNL     1      49.076  20.277  19.584  0.00  0.00    -0.316 OA
ATOM     17  C   UNL     1      49.957  20.928  18.666  0.00  0.00    +0.248 C 
ENDBRANCH  15  16
TORSDOF 2
ENDMDL
MODEL 9
REMARK VINA RESULT:      -4.7      4.649      6.869
REMARK  Name = ZINC95486169
REMARK  4 active torsions:
REMARK  status: ('A' for Active; 'I' for Inactive)
REMARK    1  A    between atoms: C1_1  and  C2_2
REMARK    2  A    between atoms: C3_4  and  O6_21
REMARK    3  A    between atoms: C10_13  and  O2_14
REMARK    4  A    between atoms: O2_14  and  C11_15
REMARK                            x       y       z     vdW  Elec       q    Type
REMARK                         _______ _______ _______ _____ _____    ______ ____
ROOT
ATOM      1  C   UNL     1      52.587  18.156  19.263  0.00  0.00    +0.077 C 
ATOM      2  C   UNL     1      52.308  18.956  17.989  0.00  0.00    +0.002 C 
ATOM      3  C   UNL     1      51.656  18.044  16.940  0.00  0.00    +0.188 C 
ATOM      6  C   UNL     1      50.339  17.543  17.490  0.00  0.00    +0.374 C 
ATOM      7  C   UNL     1      49.434  18.505  18.131  0.00  0.00    -0.141 A 
ATOM      8  C   UNL     1      49.935  19.768  18.533  0.00  0.00    -0.092 A 
ATOM      9  C   UNL     1      49.088  20.685  19.142  0.00  0.00    +0.098 A 
ATOM     10  C   UNL     1      47.753  20.364  19.355  0.00  0.00    +0.072 A 
ATOM     11  C   UNL     1      47.255  19.124  18.963  0.00  0.00    +0.027 A 
ATOM     12  O   UNL     1      45.929  19.065  19.285  0.00  0.00    -0.291 OA
ATOM     13  C   UNL     1      45.721  20.116  20.245  0.00  0.00    +0.444 C 
ATOM     14  O   UNL     1      46.740  21.081  19.923  0.00  0.00    -0.296 OA
ATOM     15  C   UNL     1      48.091  18.190  18.349  0.00  0.00    +0.168 A 
ATOM     18  O   UNL     1      50.038  16.371  17.403  0.00  0.00    -0.409 OA
ATOM     19  C   UNL     1      51.357  20.091  18.299  0.00  0.00    +0.417 C 
ATOM     20  O   UNL     1      51.754  21.236  18.350  0.00  0.00    -0.422 OA
ENDROOT
BRANCH   3   4
ATOM      4  O   UNL     1      51.429  18.782  15.737  0.00  0.00    -0.540 OA
ATOM      5  H   UNL     1      51.596  18.277  14.929  0.00  0.00    +0.393 HD
ENDBRANCH   3   4
BRANCH  15  16
ATOM     16  O   UNL     1      47.603  16.984  17.968  0.00  0.00    -0.316 OA
ATOM     17  C   UNL     1      46.741  16.965  16.828  0.00  0.00    +0.248 C 
ENDBRANCH  15  16
TORSDOF 2
ENDMDL
