MODEL 1
REMARK VINA RESULT:      -6.3      0.000      0.000
REMARK  Name = ZINC00608186
REMARK  13 active torsions:
REMARK  status: ('A' for Active; 'I' for Inactive)
REMARK    1  A    between atoms: C1_1  and  C2_2
REMARK    2  A    between atoms: C4_4  and  O8_27
REMARK    3  A    between atoms: C5_5  and  C19_25
REMARK    4  A    between atoms: C6_6  and  O6_24
REMARK    5  A    between atoms: C7_7  and  C8_8
REMARK    6  A    between atoms: C8_8  and  O2_10
REMARK    7  A    between atoms: O2_10  and  C9_11
REMARK    8  A    between atoms: C11_13  and  C18_23
REMARK    9  A    between atoms: C12_14  and  C16_19
REMARK   10  A    between atoms: C13_15  and  O3_18
REMARK   11  A    between atoms: C14_16  and  C15_17
REMARK   12  A    between atoms: C16_19  and  O5_21
REMARK   13  A    between atoms: O5_21  and  C17_22
REMARK                            x       y       z     vdW  Elec       q    Type
REMARK                         _______ _______ _______ _____ _____    ______ ____
ROOT
ATOM     14  C   UNL     1      43.814  18.836  20.813  0.00  0.00    +0.525 C 
ATOM     30  O   UNL     1      43.116  18.128  21.512  0.00  0.00    -0.460 OA
ENDROOT
BRANCH  14  13
ATOM      1  C   UNL     1      45.294  21.314  20.807  0.00  0.00    +0.119 C 
ATOM      2  C   UNL     1      43.943  21.228  20.145  0.00  0.00    +0.027 A 
ATOM      3  C   UNL     1      43.413  22.339  19.528  0.00  0.00    -0.021 A 
ATOM      4  C   UNL     1      42.170  22.277  18.913  0.00  0.00    +0.219 A 
ATOM      7  C   UNL     1      41.440  21.074  18.918  0.00  0.00    -0.256 A 
ATOM     10  C   UNL     1      41.978  19.940  19.546  0.00  0.00    +0.226 A 
ATOM     13  C   UNL     1      43.237  20.020  20.156  0.00  0.00    -0.167 A 
BRANCH   4   5
ATOM      5  O   UNL     1      41.658  23.376  18.309  0.00  0.00    -0.474 OA
ATOM      6  H   UNL     1      42.303  24.082  18.166  0.00  0.00    +0.406 HD
ENDBRANCH   4   5
BRANCH   7   8
ATOM      8  C   UNL     1      40.128  21.006  18.272  0.00  0.00    +0.497 C 
ATOM      9  O   UNL     1      39.188  21.612  18.742  0.00  0.00    -0.439 OA
ENDBRANCH   7   8
BRANCH  10  11
ATOM     11  O   UNL     1      41.288  18.776  19.558  0.00  0.00    -0.483 OA
ATOM     12  H   UNL     1      40.358  18.872  19.804  0.00  0.00    +0.407 HD
ENDBRANCH  10  11
ENDBRANCH  14  13
BRANCH  14  15
ATOM     15  O   UNL     1      45.118  18.537  20.639  0.00  0.00    -0.286 OA
BRANCH  15  16
ATOM     16  C   UNL     1      45.427  17.448  19.891  0.00  0.00    +0.122 A 
ATOM     17  C   UNL     1      45.329  16.175  20.446  0.00  0.00    +0.020 A 
ATOM     18  C   UNL     1      45.637  15.072  19.702  0.00  0.00    -0.018 A 
ATOM     19  C   UNL     1      45.528  13.699  20.313  0.00  0.00    +0.116 C 
ATOM     20  C   UNL     1      46.056  15.216  18.375  0.00  0.00    -0.129 A 
ATOM     25  C   UNL     1      46.155  16.497  17.812  0.00  0.00    +0.169 A 
ATOM     28  C   UNL     1      45.835  17.608  18.575  0.00  0.00    -0.113 A 
ATOM     29  C   UNL     1      45.934  18.988  17.978  0.00  0.00    +0.120 C 
BRANCH  20  21
ATOM     21  C   UNL     1      46.389  14.028  17.573  0.00  0.00    +0.524 C 
ATOM     24  O   UNL     1      47.535  13.843  17.209  0.00  0.00    -0.490 OA
BRANCH  21  22
ATOM     22  O   UNL     1      45.426  13.146  17.242  0.00  0.00    -0.341 OA
ATOM     23  C   UNL     1      45.852  11.848  16.821  0.00  0.00    +0.264 C 
ENDBRANCH  21  22
ENDBRANCH  20  21
BRANCH  25  26
ATOM     26  O   UNL     1      46.560  16.648  16.526  0.00  0.00    -0.483 OA
ATOM     27  H   UNL     1      46.596  15.821  16.025  0.00  0.00    +0.401 HD
ENDBRANCH  25  26
ENDBRANCH  15  16
ENDBRANCH  14  15
TORSDOF 9
ENDMDL
MODEL 2
REMARK VINA RESULT:      -6.1      1.752      2.605
REMARK  Name = ZINC00608186
REMARK  13 active torsions:
REMARK  status: ('A' for Active; 'I' for Inactive)
REMARK    1  A    between atoms: C1_1  and  C2_2
REMARK    2  A    between atoms: C4_4  and  O8_27
REMARK    3  A    between atoms: C5_5  and  C19_25
REMARK    4  A    between atoms: C6_6  and  O6_24
REMARK    5  A    between atoms: C7_7  and  C8_8
REMARK    6  A    between atoms: C8_8  and  O2_10
REMARK    7  A    between atoms: O2_10  and  C9_11
REMARK    8  A    between atoms: C11_13  and  C18_23
REMARK    9  A    between atoms: C12_14  and  C16_19
REMARK   10  A    between atoms: C13_15  and  O3_18
REMARK   11  A    between atoms: C14_16  and  C15_17
REMARK   12  A    between atoms: C16_19  and  O5_21
REMARK   13  A    between atoms: O5_21  and  C17_22
REMARK                            x       y       z     vdW  Elec       q    Type
REMARK                         _______ _______ _______ _____ _____    ______ ____
ROOT
ATOM     14  C   UNL     1      45.459  18.430  19.842  0.00  0.00    +0.525 C 
ATOM     30  O   UNL     1      46.401  18.635  20.582  0.00  0.00    -0.460 OA
ENDROOT
BRANCH  14  13
ATOM      1  C   UNL     1      44.593  17.216  22.312  0.00  0.00    +0.119 C 
ATOM      2  C   UNL     1      43.651  18.078  21.512  0.00  0.00    +0.027 A 
ATOM      3  C   UNL     1      42.369  18.292  21.967  0.00  0.00    -0.021 A 
ATOM      4  C   UNL     1      41.489  19.085  21.241  0.00  0.00    +0.219 A 
ATOM      7  C   UNL     1      41.902  19.674  20.033  0.00  0.00    -0.256 A 
ATOM     10  C   UNL     1      43.209  19.457  19.568  0.00  0.00    +0.226 A 
ATOM     13  C   UNL     1      44.085  18.660  20.316  0.00  0.00    -0.167 A 
BRANCH   4   5
ATOM      5  O   UNL     1      40.230  19.289  21.698  0.00  0.00    -0.474 OA
ATOM      6  H   UNL     1      39.566  18.717  21.288  0.00  0.00    +0.406 HD
ENDBRANCH   4   5
BRANCH   7   8
ATOM      8  C   UNL     1      40.976  20.508  19.266  0.00  0.00    +0.497 C 
ATOM      9  O   UNL     1      40.705  20.218  18.119  0.00  0.00    -0.439 OA
ENDBRANCH   7   8
BRANCH  10  11
ATOM     11  O   UNL     1      43.621  20.018  18.408  0.00  0.00    -0.483 OA
ATOM     12  H   UNL     1      42.904  20.219  17.790  0.00  0.00    +0.407 HD
ENDBRANCH  10  11
ENDBRANCH  14  13
BRANCH  14  15
ATOM     15  O   UNL     1      45.673  17.992  18.584  0.00  0.00    -0.286 OA
BRANCH  15  16
ATOM     16  C   UNL     1      45.954  16.675  18.407  0.00  0.00    +0.122 A 
ATOM     17  C   UNL     1      45.442  15.732  19.294  0.00  0.00    +0.020 A 
ATOM     18  C   UNL     1      45.717  14.406  19.126  0.00  0.00    -0.018 A 
ATOM     19  C   UNL     1      45.159  13.393  20.093  0.00  0.00    +0.116 C 
ATOM     20  C   UNL     1      46.517  13.986  18.058  0.00  0.00    -0.129 A 
ATOM     25  C   UNL     1      47.034  14.932  17.162  0.00  0.00    +0.169 A 
ATOM     28  C   UNL     1      46.744  16.275  17.340  0.00  0.00    -0.113 A 
ATOM     29  C   UNL     1      47.291  17.299  16.380  0.00  0.00    +0.120 C 
BRANCH  20  21
ATOM     21  C   UNL     1      46.815  12.556  17.877  0.00  0.00    +0.524 C 
ATOM     24  O   UNL     1      47.871  12.100  18.272  0.00  0.00    -0.490 OA
BRANCH  21  22
ATOM     22  O   UNL     1      45.918  11.752  17.273  0.00  0.00    -0.341 OA
ATOM     23  C   UNL     1      46.280  11.221  15.996  0.00  0.00    +0.264 C 
ENDBRANCH  21  22
ENDBRANCH  20  21
BRANCH  25  26
ATOM     26  O   UNL     1      47.811  14.536  16.123  0.00  0.00    -0.483 OA
ATOM     27  H   UNL     1      48.558  15.124  15.943  0.00  0.00    +0.401 HD
ENDBRANCH  25  26
ENDBRANCH  15  16
ENDBRANCH  14  15
TORSDOF 9
ENDMDL
MODEL 3
REMARK VINA RESULT:      -6.1      3.636      5.664
REMARK  Name = ZINC00608186
REMARK  13 active torsions:
REMARK  status: ('A' for Active; 'I' for Inactive)
REMARK    1  A    between atoms: C1_1  and  C2_2
REMARK    2  A    between atoms: C4_4  and  O8_27
REMARK    3  A    between atoms: C5_5  and  C19_25
REMARK    4  A    between atoms: C6_6  and  O6_24
REMARK    5  A    between atoms: C7_7  and  C8_8
REMARK    6  A    between atoms: C8_8  and  O2_10
REMARK    7  A    between atoms: O2_10  and  C9_11
REMARK    8  A    between atoms: C11_13  and  C18_23
REMARK    9  A    between atoms: C12_14  and  C16_19
REMARK   10  A    between atoms: C13_15  and  O3_18
REMARK   11  A    between atoms: C14_16  and  C15_17
REMARK   12  A    between atoms: C16_19  and  O5_21
REMARK   13  A    between atoms: O5_21  and  C17_22
REMARK                            x       y       z     vdW  Elec       q    Type
REMARK                         _______ _______ _______ _____ _____    ______ ____
ROOT
ATOM     14  C   UNL     1      46.330  16.974  18.392  0.00  0.00    +0.525 C 
ATOM     30  O   UNL     1      46.064  16.752  17.227  0.00  0.00    -0.460 OA
ENDROOT
BRANCH  14  13
ATOM      1  C   UNL     1      45.027  15.540  20.531  0.00  0.00    +0.119 C 
ATOM      2  C   UNL     1      44.720  16.996  20.288  0.00  0.00    +0.027 A 
ATOM      3  C   UNL     1      43.816  17.647  21.096  0.00  0.00    -0.021 A 
ATOM      4  C   UNL     1      43.523  18.988  20.885  0.00  0.00    +0.219 A 
ATOM      7  C   UNL     1      44.150  19.691  19.841  0.00  0.00    -0.256 A 
ATOM     10  C   UNL     1      45.072  19.029  19.015  0.00  0.00    +0.226 A 
ATOM     13  C   UNL     1      45.360  17.677  19.246  0.00  0.00    -0.167 A 
BRANCH   4   5
ATOM      5  O   UNL     1      42.631  19.619  21.686  0.00  0.00    -0.474 OA
ATOM      6  H   UNL     1      41.962  19.034  22.067  0.00  0.00    +0.406 HD
ENDBRANCH   4   5
BRANCH   7   8
ATOM      8  C   UNL     1      43.841  21.105  19.615  0.00  0.00    +0.497 C 
ATOM      9  O   UNL     1      42.717  21.438  19.303  0.00  0.00    -0.439 OA
ENDBRANCH   7   8
BRANCH  10  11
ATOM     11  O   UNL     1      45.683  19.693  18.007  0.00  0.00    -0.483 OA
ATOM     12  H   UNL     1      45.572  19.281  17.139  0.00  0.00    +0.407 HD
ENDBRANCH  10  11
ENDBRANCH  14  13
BRANCH  14  15
ATOM     15  O   UNL     1      47.513  16.575  18.901  0.00  0.00    -0.286 OA
BRANCH  15  16
ATOM     16  C   UNL     1      48.625  17.270  18.551  0.00  0.00    +0.122 A 
ATOM     17  C   UNL     1      48.821  18.559  19.043  0.00  0.00    +0.020 A 
ATOM     18  C   UNL     1      49.935  19.267  18.697  0.00  0.00    -0.018 A 
ATOM     19  C   UNL     1      50.137  20.661  19.234  0.00  0.00    +0.116 C 
ATOM     20  C   UNL     1      50.889  18.702  17.844  0.00  0.00    -0.129 A 
ATOM     25  C   UNL     1      50.696  17.404  17.347  0.00  0.00    +0.169 A 
ATOM     28  C   UNL     1      49.563  16.693  17.709  0.00  0.00    -0.113 A 
ATOM     29  C   UNL     1      49.349  15.297  17.184  0.00  0.00    +0.120 C 
BRANCH  20  21
ATOM     21  C   UNL     1      52.090  19.465  17.470  0.00  0.00    +0.524 C 
ATOM     24  O   UNL     1      52.977  19.638  18.283  0.00  0.00    -0.490 OA
BRANCH  21  22
ATOM     22  O   UNL     1      52.207  19.972  16.227  0.00  0.00    -0.341 OA
ATOM     23  C   UNL     1      51.611  21.250  15.989  0.00  0.00    +0.264 C 
ENDBRANCH  21  22
ENDBRANCH  20  21
BRANCH  25  26
ATOM     26  O   UNL     1      51.615  16.846  16.519  0.00  0.00    -0.483 OA
ATOM     27  H   UNL     1      51.911  17.432  15.809  0.00  0.00    +0.401 HD
ENDBRANCH  25  26
ENDBRANCH  15  16
ENDBRANCH  14  15
TORSDOF 9
ENDMDL
MODEL 4
REMARK VINA RESULT:      -6.0      3.074      4.535
REMARK  Name = ZINC00608186
REMARK  13 active torsions:
REMARK  status: ('A' for Active; 'I' for Inactive)
REMARK    1  A    between atoms: C1_1  and  C2_2
REMARK    2  A    between atoms: C4_4  and  O8_27
REMARK    3  A    between atoms: C5_5  and  C19_25
REMARK    4  A    between atoms: C6_6  and  O6_24
REMARK    5  A    between atoms: C7_7  and  C8_8
REMARK    6  A    between atoms: C8_8  and  O2_10
REMARK    7  A    between atoms: O2_10  and  C9_11
REMARK    8  A    between atoms: C11_13  and  C18_23
REMARK    9  A    between atoms: C12_14  and  C16_19
REMARK   10  A    between atoms: C13_15  and  O3_18
REMARK   11  A    between atoms: C14_16  and  C15_17
REMARK   12  A    between atoms: C16_19  and  O5_21
REMARK   13  A    between atoms: O5_21  and  C17_22
REMARK                            x       y       z     vdW  Elec       q    Type
REMARK                         _______ _______ _______ _____ _____    ______ ____
ROOT
ATOM     14  C   UNL     1      45.450  21.203  19.998  0.00  0.00    +0.525 C 
ATOM     30  O   UNL     1      45.888  22.033  20.770  0.00  0.00    -0.460 OA
ENDROOT
BRANCH  14  13
ATOM      1  C   UNL     1      45.632  19.111  21.978  0.00  0.00    +0.119 C 
ATOM      2  C   UNL     1      44.317  19.417  21.306  0.00  0.00    +0.027 A 
ATOM      3  C   UNL     1      43.194  18.696  21.644  0.00  0.00    -0.021 A 
ATOM      4  C   UNL     1      41.975  18.966  21.034  0.00  0.00    +0.219 A 
ATOM      7  C   UNL     1      41.882  19.980  20.064  0.00  0.00    -0.256 A 
ATOM     10  C   UNL     1      43.026  20.716  19.718  0.00  0.00    +0.226 A 
ATOM     13  C   UNL     1      44.245  20.434  20.348  0.00  0.00    -0.167 A 
BRANCH   4   5
ATOM      5  O   UNL     1      40.877  18.251  21.374  0.00  0.00    -0.474 OA
ATOM      6  H   UNL     1      40.841  17.371  20.973  0.00  0.00    +0.406 HD
ENDBRANCH   4   5
BRANCH   7   8
ATOM      8  C   UNL     1      40.599  20.265  19.419  0.00  0.00    +0.497 C 
ATOM      9  O   UNL     1      40.512  20.251  18.208  0.00  0.00    -0.439 OA
ENDBRANCH   7   8
BRANCH  10  11
ATOM     11  O   UNL     1      42.950  21.695  18.787  0.00  0.00    -0.483 OA
ATOM     12  H   UNL     1      43.738  21.773  18.232  0.00  0.00    +0.407 HD
ENDBRANCH  10  11
ENDBRANCH  14  13
BRANCH  14  15
ATOM     15  O   UNL     1      46.069  20.987  18.819  0.00  0.00    -0.286 OA
BRANCH  15  16
ATOM     16  C   UNL     1      47.212  20.254  18.824  0.00  0.00    +0.122 A 
ATOM     17  C   UNL     1      48.415  20.850  19.194  0.00  0.00    +0.020 A 
ATOM     18  C   UNL     1      49.571  20.123  19.204  0.00  0.00    -0.018 A 
ATOM     19  C   UNL     1      50.867  20.777  19.605  0.00  0.00    +0.116 C 
ATOM     20  C   UNL     1      49.552  18.772  18.840  0.00  0.00    -0.129 A 
ATOM     25  C   UNL     1      48.342  18.169  18.467  0.00  0.00    +0.169 A 
ATOM     28  C   UNL     1      47.175  18.915  18.466  0.00  0.00    -0.113 A 
ATOM     29  C   UNL     1      45.870  18.275  18.071  0.00  0.00    +0.120 C 
BRANCH  20  21
ATOM     21  C   UNL     1      50.798  17.988  18.848  0.00  0.00    +0.524 C 
ATOM     24  O   UNL     1      50.973  17.135  19.697  0.00  0.00    -0.490 OA
BRANCH  21  22
ATOM     22  O   UNL     1      51.744  18.216  17.916  0.00  0.00    -0.341 OA
ATOM     23  C   UNL     1      51.369  18.023  16.551  0.00  0.00    +0.264 C 
ENDBRANCH  21  22
ENDBRANCH  20  21
BRANCH  25  26
ATOM     26  O   UNL     1      48.313  16.859  18.112  0.00  0.00    -0.483 OA
ATOM     27  H   UNL     1      48.276  16.712  17.157  0.00  0.00    +0.401 HD
ENDBRANCH  25  26
ENDBRANCH  15  16
ENDBRANCH  14  15
TORSDOF 9
ENDMDL
MODEL 5
REMARK VINA RESULT:      -5.9      3.514      5.470
REMARK  Name = ZINC00608186
REMARK  13 active torsions:
REMARK  status: ('A' for Active; 'I' for Inactive)
REMARK    1  A    between atoms: C1_1  and  C2_2
REMARK    2  A    between atoms: C4_4  and  O8_27
REMARK    3  A    between atoms: C5_5  and  C19_25
REMARK    4  A    between atoms: C6_6  and  O6_24
REMARK    5  A    between atoms: C7_7  and  C8_8
REMARK    6  A    between atoms: C8_8  and  O2_10
REMARK    7  A    between atoms: O2_10  and  C9_11
REMARK    8  A    between atoms: C11_13  and  C18_23
REMARK    9  A    between atoms: C12_14  and  C16_19
REMARK   10  A    between atoms: C13_15  and  O3_18
REMARK   11  A    between atoms: C14_16  and  C15_17
REMARK   12  A    between atoms: C16_19  and  O5_21
REMARK   13  A    between atoms: O5_21  and  C17_22
REMARK                            x       y       z     vdW  Elec       q    Type
REMARK                         _______ _______ _______ _____ _____    ______ ____
ROOT
ATOM     14  C   UNL     1      45.853  16.580  19.814  0.00  0.00    +0.525 C 
ATOM     30  O   UNL     1      45.752  15.809  18.880  0.00  0.00    -0.460 OA
ENDROOT
BRANCH  14  13
ATOM      1  C   UNL     1      44.387  15.836  22.185  0.00  0.00    +0.119 C 
ATOM      2  C   UNL     1      43.975  17.040  21.378  0.00  0.00    +0.027 A 
ATOM      3  C   UNL     1      42.894  17.793  21.778  0.00  0.00    -0.021 A 
ATOM      4  C   UNL     1      42.502  18.906  21.046  0.00  0.00    +0.219 A 
ATOM      7  C   UNL     1      43.209  19.271  19.886  0.00  0.00    -0.256 A 
ATOM     10  C   UNL     1      44.311  18.504  19.475  0.00  0.00    +0.226 A 
ATOM     13  C   UNL     1      44.696  17.388  20.230  0.00  0.00    -0.167 A 
BRANCH   4   5
ATOM      5  O   UNL     1      41.437  19.640  21.448  0.00  0.00    -0.474 OA
ATOM      6  H   UNL     1      41.360  20.496  21.006  0.00  0.00    +0.406 HD
ENDBRANCH   4   5
BRANCH   7   8
ATOM      8  C   UNL     1      42.796  20.442  19.110  0.00  0.00    +0.497 C 
ATOM      9  O   UNL     1      41.799  20.394  18.421  0.00  0.00    -0.439 OA
ENDBRANCH   7   8
BRANCH  10  11
ATOM     11  O   UNL     1      45.000  18.844  18.361  0.00  0.00    -0.483 OA
ATOM     12  H   UNL     1      44.495  19.377  17.733  0.00  0.00    +0.407 HD
ENDBRANCH  10  11
ENDBRANCH  14  13
BRANCH  14  15
ATOM     15  O   UNL     1      47.026  16.695  20.469  0.00  0.00    -0.286 OA
BRANCH  15  16
ATOM     16  C   UNL     1      47.922  17.609  20.016  0.00  0.00    +0.122 A 
ATOM     17  C   UNL     1      48.621  17.369  18.836  0.00  0.00    +0.020 A 
ATOM     18  C   UNL     1      49.524  18.280  18.370  0.00  0.00    -0.018 A 
ATOM     19  C   UNL     1      50.275  18.010  17.092  0.00  0.00    +0.116 C 
ATOM     20  C   UNL     1      49.753  19.465  19.079  0.00  0.00    -0.129 A 
ATOM     25  C   UNL     1      49.051  19.711  20.268  0.00  0.00    +0.169 A 
ATOM     28  C   UNL     1      48.133  18.780  20.728  0.00  0.00    -0.113 A 
ATOM     29  C   UNL     1      47.371  19.037  22.001  0.00  0.00    +0.120 C 
BRANCH  20  21
ATOM     21  C   UNL     1      50.727  20.448  18.579  0.00  0.00    +0.524 C 
ATOM     24  O   UNL     1      50.350  21.389  17.907  0.00  0.00    -0.490 OA
BRANCH  21  22
ATOM     22  O   UNL     1      52.036  20.306  18.865  0.00  0.00    -0.341 OA
ATOM     23  C   UNL     1      52.611  21.257  19.763  0.00  0.00    +0.264 C 
ENDBRANCH  21  22
ENDBRANCH  20  21
BRANCH  25  26
ATOM     26  O   UNL     1      49.266  20.856  20.963  0.00  0.00    -0.483 OA
ATOM     27  H   UNL     1      49.306  21.649  20.411  0.00  0.00    +0.401 HD
ENDBRANCH  25  26
ENDBRANCH  15  16
ENDBRANCH  14  15
TORSDOF 9
ENDMDL
MODEL 6
REMARK VINA RESULT:      -5.9      2.425      3.205
REMARK  Name = ZINC00608186
REMARK  13 active torsions:
REMARK  status: ('A' for Active; 'I' for Inactive)
REMARK    1  A    between atoms: C1_1  and  C2_2
REMARK    2  A    between atoms: C4_4  and  O8_27
REMARK    3  A    between atoms: C5_5  and  C19_25
REMARK    4  A    between atoms: C6_6  and  O6_24
REMARK    5  A    between atoms: C7_7  and  C8_8
REMARK    6  A    between atoms: C8_8  and  O2_10
REMARK    7  A    between atoms: O2_10  and  C9_11
REMARK    8  A    between atoms: C11_13  and  C18_23
REMARK    9  A    between atoms: C12_14  and  C16_19
REMARK   10  A    between atoms: C13_15  and  O3_18
REMARK   11  A    between atoms: C14_16  and  C15_17
REMARK   12  A    between atoms: C16_19  and  O5_21
REMARK   13  A    between atoms: O5_21  and  C17_22
REMARK                            x       y       z     vdW  Elec       q    Type
REMARK                         _______ _______ _______ _____ _____    ______ ____
ROOT
ATOM     14  C   UNL     1      45.271  20.803  20.567  0.00  0.00    +0.525 C 
ATOM     30  O   UNL     1      45.282  20.264  21.656  0.00  0.00    -0.460 OA
ENDROOT
BRANCH  14  13
ATOM      1  C   UNL     1      44.770  23.600  20.062  0.00  0.00    +0.119 C 
ATOM      2  C   UNL     1      43.737  22.562  19.709  0.00  0.00    +0.027 A 
ATOM      3  C   UNL     1      42.547  22.950  19.135  0.00  0.00    -0.021 A 
ATOM      4  C   UNL     1      41.584  22.006  18.803  0.00  0.00    +0.219 A 
ATOM      7  C   UNL     1      41.820  20.642  19.052  0.00  0.00    -0.256 A 
ATOM     10  C   UNL     1      43.032  20.243  19.637  0.00  0.00    +0.226 A 
ATOM     13  C   UNL     1      43.994  21.209  19.959  0.00  0.00    -0.167 A 
BRANCH   4   5
ATOM      5  O   UNL     1      40.417  22.399  18.240  0.00  0.00    -0.474 OA
ATOM      6  H   UNL     1      40.526  22.907  17.424  0.00  0.00    +0.406 HD
ENDBRANCH   4   5
BRANCH   7   8
ATOM      8  C   UNL     1      40.806  19.644  18.705  0.00  0.00    +0.497 C 
ATOM      9  O   UNL     1      40.326  19.629  17.591  0.00  0.00    -0.439 OA
ENDBRANCH   7   8
BRANCH  10  11
ATOM     11  O   UNL     1      43.272  18.934  19.882  0.00  0.00    -0.483 OA
ATOM     12  H   UNL     1      44.199  18.732  20.067  0.00  0.00    +0.407 HD
ENDBRANCH  10  11
ENDBRANCH  14  13
BRANCH  14  15
ATOM     15  O   UNL     1      46.431  21.030  19.916  0.00  0.00    -0.286 OA
BRANCH  15  16
ATOM     16  C   UNL     1      47.115  19.958  19.441  0.00  0.00    +0.122 A 
ATOM     17  C   UNL     1      46.502  19.086  18.546  0.00  0.00    +0.020 A 
ATOM     18  C   UNL     1      47.180  18.005  18.061  0.00  0.00    -0.018 A 
ATOM     19  C   UNL     1      46.507  17.066  17.094  0.00  0.00    +0.116 C 
ATOM     20  C   UNL     1      48.499  17.767  18.463  0.00  0.00    -0.129 A 
ATOM     25  C   UNL     1      49.121  18.645  19.364  0.00  0.00    +0.169 A 
ATOM     28  C   UNL     1      48.423  19.741  19.845  0.00  0.00    -0.113 A 
ATOM     29  C   UNL     1      49.084  20.691  20.809  0.00  0.00    +0.120 C 
BRANCH  20  21
ATOM     21  C   UNL     1      49.231  16.602  17.942  0.00  0.00    +0.524 C 
ATOM     24  O   UNL     1      50.050  16.746  17.055  0.00  0.00    -0.490 OA
BRANCH  21  22
ATOM     22  O   UNL     1      48.994  15.376  18.447  0.00  0.00    -0.341 OA
ATOM     23  C   UNL     1      50.037  14.407  18.317  0.00  0.00    +0.264 C 
ENDBRANCH  21  22
ENDBRANCH  20  21
BRANCH  25  26
ATOM     26  O   UNL     1      50.400  18.424  19.760  0.00  0.00    -0.483 OA
ATOM     27  H   UNL     1      51.060  18.898  19.237  0.00  0.00    +0.401 HD
ENDBRANCH  25  26
ENDBRANCH  15  16
ENDBRANCH  14  15
TORSDOF 9
ENDMDL
MODEL 7
REMARK VINA RESULT:      -5.8      3.400      4.684
REMARK  Name = ZINC00608186
REMARK  13 active torsions:
REMARK  status: ('A' for Active; 'I' for Inactive)
REMARK    1  A    between atoms: C1_1  and  C2_2
REMARK    2  A    between atoms: C4_4  and  O8_27
REMARK    3  A    between atoms: C5_5  and  C19_25
REMARK    4  A    between atoms: C6_6  and  O6_24
REMARK    5  A    between atoms: C7_7  and  C8_8
REMARK    6  A    between atoms: C8_8  and  O2_10
REMARK    7  A    between atoms: O2_10  and  C9_11
REMARK    8  A    between atoms: C11_13  and  C18_23
REMARK    9  A    between atoms: C12_14  and  C16_19
REMARK   10  A    between atoms: C13_15  and  O3_18
REMARK   11  A    between atoms: C14_16  and  C15_17
REMARK   12  A    between atoms: C16_19  and  O5_21
REMARK   13  A    between atoms: O5_21  and  C17_22
REMARK                            x       y       z     vdW  Elec       q    Type
REMARK                         _______ _______ _______ _____ _____    ______ ____
ROOT
ATOM     14  C   UNL     1      46.092  19.580  21.315  0.00  0.00    +0.525 C 
ATOM     30  O   UNL     1      46.335  19.585  22.505  0.00  0.00    -0.460 OA
ENDROOT
BRANCH  14  13
ATOM      1  C   UNL     1      47.032  22.308  21.398  0.00  0.00    +0.119 C 
ATOM      2  C   UNL     1      45.707  21.974  20.761  0.00  0.00    +0.027 A 
ATOM      3  C   UNL     1      44.943  22.978  20.210  0.00  0.00    -0.021 A 
ATOM      4  C   UNL     1      43.720  22.687  19.618  0.00  0.00    +0.219 A 
ATOM      7  C   UNL     1      43.253  21.361  19.580  0.00  0.00    -0.256 A 
ATOM     10  C   UNL     1      44.031  20.336  20.141  0.00  0.00    +0.226 A 
ATOM     13  C   UNL     1      45.265  20.647  20.728  0.00  0.00    -0.167 A 
BRANCH   4   5
ATOM      5  O   UNL     1      42.976  23.682  19.079  0.00  0.00    -0.474 OA
ATOM      6  H   UNL     1      42.969  24.496  19.602  0.00  0.00    +0.406 HD
ENDBRANCH   4   5
BRANCH   7   8
ATOM      8  C   UNL     1      41.964  21.052  18.959  0.00  0.00    +0.497 C 
ATOM      9  O   UNL     1      41.903  20.240  18.059  0.00  0.00    -0.439 OA
ENDBRANCH   7   8
BRANCH  10  11
ATOM     11  O   UNL     1      43.594  19.056  20.111  0.00  0.00    -0.483 OA
ATOM     12  H   UNL     1      42.677  18.958  19.822  0.00  0.00    +0.407 HD
ENDBRANCH  10  11
ENDBRANCH  14  13
BRANCH  14  15
ATOM     15  O   UNL     1      46.580  18.598  20.530  0.00  0.00    -0.286 OA
BRANCH  15  16
ATOM     16  C   UNL     1      47.771  18.807  19.914  0.00  0.00    +0.122 A 
ATOM     17  C   UNL     1      48.710  19.659  20.491  0.00  0.00    +0.020 A 
ATOM     18  C   UNL     1      49.911  19.876  19.880  0.00  0.00    -0.018 A 
ATOM     19  C   UNL     1      50.919  20.801  20.512  0.00  0.00    +0.116 C 
ATOM     20  C   UNL     1      50.206  19.243  18.668  0.00  0.00    -0.129 A 
ATOM     25  C   UNL     1      49.264  18.384  18.084  0.00  0.00    +0.169 A 
ATOM     28  C   UNL     1      48.050  18.167  18.716  0.00  0.00    -0.113 A 
ATOM     29  C   UNL     1      47.033  17.242  18.100  0.00  0.00    +0.120 C 
BRANCH  20  21
ATOM     21  C   UNL     1      51.501  19.478  18.008  0.00  0.00    +0.524 C 
ATOM     24  O   UNL     1      52.491  18.881  18.384  0.00  0.00    -0.490 OA
BRANCH  21  22
ATOM     22  O   UNL     1      51.589  20.355  16.989  0.00  0.00    -0.341 OA
ATOM     23  C   UNL     1      52.158  19.876  15.769  0.00  0.00    +0.264 C 
ENDBRANCH  21  22
ENDBRANCH  20  21
BRANCH  25  26
ATOM     26  O   UNL     1      49.540  17.765  16.909  0.00  0.00    -0.483 OA
ATOM     27  H   UNL     1      50.380  18.034  16.511  0.00  0.00    +0.401 HD
ENDBRANCH  25  26
ENDBRANCH  15  16
ENDBRANCH  14  15
TORSDOF 9
ENDMDL
MODEL 8
REMARK VINA RESULT:      -5.7      1.297      2.297
REMARK  Name = ZINC00608186
REMARK  13 active torsions:
REMARK  status: ('A' for Active; 'I' for Inactive)
REMARK    1  A    between atoms: C1_1  and  C2_2
REMARK    2  A    between atoms: C4_4  and  O8_27
REMARK    3  A    between atoms: C5_5  and  C19_25
REMARK    4  A    between atoms: C6_6  and  O6_24
REMARK    5  A    between atoms: C7_7  and  C8_8
REMARK    6  A    between atoms: C8_8  and  O2_10
REMARK    7  A    between atoms: O2_10  and  C9_11
REMARK    8  A    between atoms: C11_13  and  C18_23
REMARK    9  A    between atoms: C12_14  and  C16_19
REMARK   10  A    between atoms: C13_15  and  O3_18
REMARK   11  A    between atoms: C14_16  and  C15_17
REMARK   12  A    between atoms: C16_19  and  O5_21
REMARK   13  A    between atoms: O5_21  and  C17_22
REMARK                            x       y       z     vdW  Elec       q    Type
REMARK                         _______ _______ _______ _____ _____    ______ ____
ROOT
ATOM     14  C   UNL     1      44.061  18.930  20.908  0.00  0.00    +0.525 C 
ATOM     30  O   UNL     1      44.659  18.994  21.963  0.00  0.00    -0.460 OA
ENDROOT
BRANCH  14  13
ATOM      1  C   UNL     1      45.799  21.221  20.659  0.00  0.00    +0.119 C 
ATOM      2  C   UNL     1      44.383  21.276  20.147  0.00  0.00    +0.027 A 
ATOM      3  C   UNL     1      43.916  22.427  19.552  0.00  0.00    -0.021 A 
ATOM      4  C   UNL     1      42.614  22.494  19.075  0.00  0.00    +0.219 A 
ATOM      7  C   UNL     1      41.760  21.384  19.198  0.00  0.00    -0.256 A 
ATOM     10  C   UNL     1      42.232  20.210  19.805  0.00  0.00    +0.226 A 
ATOM     13  C   UNL     1      43.552  20.158  20.275  0.00  0.00    -0.167 A 
BRANCH   4   5
ATOM      5  O   UNL     1      42.165  23.631  18.491  0.00  0.00    -0.474 OA
ATOM      6  H   UNL     1      41.269  23.563  18.134  0.00  0.00    +0.406 HD
ENDBRANCH   4   5
BRANCH   7   8
ATOM      8  C   UNL     1      40.385  21.452  18.698  0.00  0.00    +0.497 C 
ATOM      9  O   UNL     1      39.963  20.584  17.962  0.00  0.00    -0.439 OA
ENDBRANCH   7   8
BRANCH  10  11
ATOM     11  O   UNL     1      41.422  19.133  19.930  0.00  0.00    -0.483 OA
ATOM     12  H   UNL     1      41.119  18.971  20.834  0.00  0.00    +0.407 HD
ENDBRANCH  10  11
ENDBRANCH  14  13
BRANCH  14  15
ATOM     15  O   UNL     1      43.864  17.735  20.315  0.00  0.00    -0.286 OA
BRANCH  15  16
ATOM     16  C   UNL     1      44.938  17.108  19.772  0.00  0.00    +0.122 A 
ATOM     17  C   UNL     1      45.517  17.608  18.609  0.00  0.00    +0.020 A 
ATOM     18  C   UNL     1      46.598  16.987  18.053  0.00  0.00    -0.018 A 
ATOM     19  C   UNL     1      47.217  17.536  16.794  0.00  0.00    +0.116 C 
ATOM     20  C   UNL     1      47.131  15.839  18.651  0.00  0.00    -0.129 A 
ATOM     25  C   UNL     1      46.551  15.332  19.824  0.00  0.00    +0.169 A 
ATOM     28  C   UNL     1      45.457  15.975  20.381  0.00  0.00    -0.113 A 
ATOM     29  C   UNL     1      44.829  15.441  21.642  0.00  0.00    +0.120 C 
BRANCH  20  21
ATOM     21  C   UNL     1      48.296  15.168  18.053  0.00  0.00    +0.524 C 
ATOM     24  O   UNL     1      49.391  15.276  18.569  0.00  0.00    -0.490 OA
BRANCH  21  22
ATOM     22  O   UNL     1      48.148  14.433  16.933  0.00  0.00    -0.341 OA
ATOM     23  C   UNL     1      47.793  13.059  17.101  0.00  0.00    +0.264 C 
ENDBRANCH  21  22
ENDBRANCH  20  21
BRANCH  25  26
ATOM     26  O   UNL     1      47.059  14.221  20.412  0.00  0.00    -0.483 OA
ATOM     27  H   UNL     1      47.808  14.394  20.999  0.00  0.00    +0.401 HD
ENDBRANCH  25  26
ENDBRANCH  15  16
ENDBRANCH  14  15
TORSDOF 9
ENDMDL
MODEL 9
REMARK VINA RESULT:      -5.6      3.820      7.530
REMARK  Name = ZINC00608186
REMARK  13 active torsions:
REMARK  status: ('A' for Active; 'I' for Inactive)
REMARK    1  A    between atoms: C1_1  and  C2_2
REMARK    2  A    between atoms: C4_4  and  O8_27
REMARK    3  A    between atoms: C5_5  and  C19_25
REMARK    4  A    between atoms: C6_6  and  O6_24
REMARK    5  A    between atoms: C7_7  and  C8_8
REMARK    6  A    between atoms: C8_8  and  O2_10
REMARK    7  A    between atoms: O2_10  and  C9_11
REMARK    8  A    between atoms: C11_13  and  C18_23
REMARK    9  A    between atoms: C12_14  and  C16_19
REMARK   10  A    between atoms: C13_15  and  O3_18
REMARK   11  A    between atoms: C14_16  and  C15_17
REMARK   12  A    between atoms: C16_19  and  O5_21
REMARK   13  A    between atoms: O5_21  and  C17_22
REMARK                            x       y       z     vdW  Elec       q    Type
REMARK                         _______ _______ _______ _____ _____    ______ ____
ROOT
ATOM     14  C   UNL     1      49.136  17.195  18.616  0.00  0.00    +0.525 C 
ATOM     30  O   UNL     1      49.554  16.157  19.090  0.00  0.00    -0.460 OA
ENDROOT
BRANCH  14  13
ATOM      1  C   UNL     1      49.397  18.488  21.183  0.00  0.00    +0.119 C 
ATOM      2  C   UNL     1      50.068  19.066  19.964  0.00  0.00    +0.027 A 
ATOM      3  C   UNL     1      50.815  20.217  20.076  0.00  0.00    -0.021 A 
ATOM      4  C   UNL     1      51.440  20.762  18.962  0.00  0.00    +0.219 A 
ATOM      7  C   UNL     1      51.312  20.141  17.707  0.00  0.00    -0.256 A 
ATOM     10  C   UNL     1      50.550  18.967  17.589  0.00  0.00    +0.226 A 
ATOM     13  C   UNL     1      49.932  18.428  18.726  0.00  0.00    -0.167 A 
BRANCH   4   5
ATOM      5  O   UNL     1      52.173  21.895  19.085  0.00  0.00    -0.474 OA
ATOM      6  H   UNL     1      52.500  22.057  19.980  0.00  0.00    +0.406 HD
ENDBRANCH   4   5
BRANCH   7   8
ATOM      8  C   UNL     1      51.968  20.714  16.531  0.00  0.00    +0.497 C 
ATOM      9  O   UNL     1      52.518  19.989  15.728  0.00  0.00    -0.439 OA
ENDBRANCH   7   8
BRANCH  10  11
ATOM     11  O   UNL     1      50.419  18.358  16.389  0.00  0.00    -0.483 OA
ATOM     12  H   UNL     1      49.704  18.712  15.843  0.00  0.00    +0.407 HD
ENDBRANCH  10  11
ENDBRANCH  14  13
BRANCH  14  15
ATOM     15  O   UNL     1      47.942  17.217  17.990  0.00  0.00    -0.286 OA
BRANCH  15  16
ATOM     16  C   UNL     1      46.917  17.871  18.595  0.00  0.00    +0.122 A 
ATOM     17  C   UNL     1      46.799  19.252  18.459  0.00  0.00    +0.020 A 
ATOM     18  C   UNL     1      45.773  19.919  19.063  0.00  0.00    -0.018 A 
ATOM     19  C   UNL     1      45.655  21.414  18.911  0.00  0.00    +0.116 C 
ATOM     20  C   UNL     1      44.831  19.217  19.823  0.00  0.00    -0.129 A 
ATOM     25  C   UNL     1      44.945  17.826  19.961  0.00  0.00    +0.169 A 
ATOM     28  C   UNL     1      45.989  17.159  19.339  0.00  0.00    -0.113 A 
ATOM     29  C   UNL     1      46.118  15.665  19.478  0.00  0.00    +0.120 C 
BRANCH  20  21
ATOM     21  C   UNL     1      43.724  19.936  20.474  0.00  0.00    +0.524 C 
ATOM     24  O   UNL     1      43.771  20.170  21.667  0.00  0.00    -0.490 OA
BRANCH  21  22
ATOM     22  O   UNL     1      42.661  20.336  19.750  0.00  0.00    -0.341 OA
ATOM     23  C   UNL     1      41.557  19.432  19.666  0.00  0.00    +0.264 C 
ENDBRANCH  21  22
ENDBRANCH  20  21
BRANCH  25  26
ATOM     26  O   UNL     1      44.037  17.136  20.696  0.00  0.00    -0.483 OA
ATOM     27  H   UNL     1      44.431  16.532  21.340  0.00  0.00    +0.401 HD
ENDBRANCH  25  26
ENDBRANCH  15  16
ENDBRANCH  14  15
TORSDOF 9
ENDMDL
