MODEL 1
REMARK VINA RESULT:      -6.2      0.000      0.000
REMARK  Name = ZINC95485931
REMARK  11 active torsions:
REMARK  status: ('A' for Active; 'I' for Inactive)
REMARK    1  A    between atoms: C1_1  and  C2_2
REMARK    2  A    between atoms: C2_2  and  C21_25
REMARK    3  A    between atoms: C3_3  and  C4_4
REMARK    4  A    between atoms: C4_4  and  C5_5
REMARK    5  A    between atoms: C5_5  and  C6_6
REMARK    6  A    between atoms: C7_7  and  O4_24
REMARK    7  A    between atoms: C10_10  and  C12_13
REMARK    8  A    between atoms: C11_11  and  O1_12
REMARK    9  A    between atoms: C12_13  and  C13_15
REMARK   10  A    between atoms: C14_16  and  C15_17
REMARK   11  A    between atoms: C18_20  and  O3_23
REMARK                            x       y       z     vdW  Elec       q    Type
REMARK                         _______ _______ _______ _____ _____    ______ ____
ROOT
ATOM      7  C   UNL     1      43.647  19.904  21.325  0.00  0.00    -0.150 A 
ATOM      8  C   UNL     1      42.921  20.494  20.302  0.00  0.00    +0.156 A 
ATOM     11  C   UNL     1      43.564  21.269  19.340  0.00  0.00    -0.026 A 
ATOM     12  C   UNL     1      44.927  21.454  19.398  0.00  0.00    +0.092 A 
ATOM     13  C   UNL     1      45.669  20.864  20.426  0.00  0.00    -0.198 A 
ATOM     26  C   UNL     1      45.017  20.087  21.398  0.00  0.00    +0.185 A 
ENDROOT
BRANCH   8   9
ATOM      9  O   UNL     1      41.577  20.317  20.236  0.00  0.00    -0.491 OA
ATOM     10  H   UNL     1      41.267  19.501  20.655  0.00  0.00    +0.397 HD
ENDBRANCH   8   9
BRANCH  13  14
ATOM     14  C   UNL     1      47.129  21.059  20.492  0.00  0.00    +0.423 C 
ATOM     25  O   UNL     1      47.623  21.647  21.437  0.00  0.00    -0.444 OA
BRANCH  14  15
ATOM     15  C   UNL     1      47.983  20.547  19.421  0.00  0.00    -0.103 C 
ATOM     16  C   UNL     1      49.314  20.776  19.451  0.00  0.00    +0.126 C 
BRANCH  16  17
ATOM     17  C   UNL     1      50.173  20.261  18.376  0.00  0.00    -0.093 A 
ATOM     18  C   UNL     1      51.034  21.126  17.690  0.00  0.00    +0.052 A 
ATOM     19  C   UNL     1      51.837  20.638  16.684  0.00  0.00    -0.014 A 
ATOM     20  C   UNL     1      51.794  19.290  16.349  0.00  0.00    +0.121 A 
ATOM     23  C   UNL     1      50.940  18.427  17.027  0.00  0.00    -0.014 A 
ATOM     24  C   UNL     1      50.138  18.903  18.039  0.00  0.00    +0.060 A 
BRANCH  20  21
ATOM     21  O   UNL     1      52.588  18.814  15.356  0.00  0.00    -0.499 OA
ATOM     22  H   UNL     1      52.385  17.907  15.091  0.00  0.00    +0.395 HD
ENDBRANCH  20  21
ENDBRANCH  16  17
ENDBRANCH  14  15
ENDBRANCH  13  14
BRANCH  26  27
ATOM     27  O   UNL     1      45.728  19.515  22.401  0.00  0.00    -0.474 OA
ATOM     28  H   UNL     1      45.378  19.696  23.284  0.00  0.00    +0.396 HD
ENDBRANCH  26  27
BRANCH   7   6
ATOM      6  C   UNL     1      42.944  19.067  22.362  0.00  0.00    +0.091 C 
BRANCH   6   5
ATOM      5  C   UNL     1      42.684  17.668  21.799  0.00  0.00    +0.055 C 
BRANCH   5   4
ATOM      1  C   UNL     1      44.854  16.499  20.428  0.00  0.00    +0.073 C 
ATOM      2  C   UNL     1      44.544  16.087  21.843  0.00  0.00    -0.127 C 
ATOM      3  C   UNL     1      45.352  15.000  22.505  0.00  0.00    +0.072 C 
ATOM      4  C   UNL     1      43.571  16.672  22.499  0.00  0.00    -0.063 C 
ENDBRANCH   5   4
ENDBRANCH   6   5
ENDBRANCH   7   6
TORSDOF 9
ENDMDL
MODEL 2
REMARK VINA RESULT:      -6.0      1.379      2.225
REMARK  Name = ZINC95485931
REMARK  11 active torsions:
REMARK  status: ('A' for Active; 'I' for Inactive)
REMARK    1  A    between atoms: C1_1  and  C2_2
REMARK    2  A    between atoms: C2_2  and  C21_25
REMARK    3  A    between atoms: C3_3  and  C4_4
REMARK    4  A    between atoms: C4_4  and  C5_5
REMARK    5  A    between atoms: C5_5  and  C6_6
REMARK    6  A    between atoms: C7_7  and  O4_24
REMARK    7  A    between atoms: C10_10  and  C12_13
REMARK    8  A    between atoms: C11_11  and  O1_12
REMARK    9  A    between atoms: C12_13  and  C13_15
REMARK   10  A    between atoms: C14_16  and  C15_17
REMARK   11  A    between atoms: C18_20  and  O3_23
REMARK                            x       y       z     vdW  Elec       q    Type
REMARK                         _______ _______ _______ _____ _____    ______ ____
ROOT
ATOM      7  C   UNL     1      44.737  21.493  19.868  0.00  0.00    -0.150 A 
ATOM      8  C   UNL     1      44.443  22.771  20.320  0.00  0.00    +0.156 A 
ATOM     11  C   UNL     1      45.379  23.486  21.061  0.00  0.00    -0.026 A 
ATOM     12  C   UNL     1      46.605  22.931  21.350  0.00  0.00    +0.092 A 
ATOM     13  C   UNL     1      46.912  21.643  20.900  0.00  0.00    -0.198 A 
ATOM     26  C   UNL     1      45.965  20.921  20.157  0.00  0.00    +0.185 A 
ENDROOT
BRANCH   8   9
ATOM      9  O   UNL     1      43.237  23.326  20.039  0.00  0.00    -0.491 OA
ATOM     10  H   UNL     1      43.153  23.646  19.130  0.00  0.00    +0.397 HD
ENDBRANCH   8   9
BRANCH  13  14
ATOM     14  C   UNL     1      48.224  21.045  21.206  0.00  0.00    +0.423 C 
ATOM     25  O   UNL     1      48.693  21.144  22.326  0.00  0.00    -0.444 OA
BRANCH  14  15
ATOM     15  C   UNL     1      48.962  20.332  20.165  0.00  0.00    -0.103 C 
ATOM     16  C   UNL     1      49.665  21.024  19.241  0.00  0.00    +0.126 C 
BRANCH  16  17
ATOM     17  C   UNL     1      50.408  20.308  18.195  0.00  0.00    -0.093 A 
ATOM     18  C   UNL     1      51.130  21.024  17.231  0.00  0.00    +0.052 A 
ATOM     19  C   UNL     1      51.825  20.348  16.254  0.00  0.00    -0.014 A 
ATOM     20  C   UNL     1      51.811  18.959  16.223  0.00  0.00    +0.121 A 
ATOM     23  C   UNL     1      51.095  18.243  17.176  0.00  0.00    -0.014 A 
ATOM     24  C   UNL     1      50.402  18.909  18.161  0.00  0.00    +0.060 A 
BRANCH  20  21
ATOM     21  O   UNL     1      52.498  18.297  15.256  0.00  0.00    -0.499 OA
ATOM     22  H   UNL     1      53.286  18.764  14.945  0.00  0.00    +0.395 HD
ENDBRANCH  20  21
ENDBRANCH  16  17
ENDBRANCH  14  15
ENDBRANCH  13  14
BRANCH  26  27
ATOM     27  O   UNL     1      46.252  19.670  19.720  0.00  0.00    -0.474 OA
ATOM     28  H   UNL     1      46.338  19.016  20.427  0.00  0.00    +0.396 HD
ENDBRANCH  26  27
BRANCH   7   6
ATOM      6  C   UNL     1      43.719  20.724  19.066  0.00  0.00    +0.091 C 
BRANCH   6   5
ATOM      5  C   UNL     1      42.672  20.127  20.009  0.00  0.00    +0.055 C 
BRANCH   5   4
ATOM      1  C   UNL     1      43.678  19.279  22.503  0.00  0.00    +0.073 C 
ATOM      2  C   UNL     1      43.500  18.287  21.383  0.00  0.00    -0.127 C 
ATOM      3  C   UNL     1      43.922  16.852  21.573  0.00  0.00    +0.072 C 
ATOM      4  C   UNL     1      42.979  18.671  20.243  0.00  0.00    -0.063 C 
ENDBRANCH   5   4
ENDBRANCH   6   5
ENDBRANCH   7   6
TORSDOF 9
ENDMDL
MODEL 3
REMARK VINA RESULT:      -5.9      2.556      7.176
REMARK  Name = ZINC95485931
REMARK  11 active torsions:
REMARK  status: ('A' for Active; 'I' for Inactive)
REMARK    1  A    between atoms: C1_1  and  C2_2
REMARK    2  A    between atoms: C2_2  and  C21_25
REMARK    3  A    between atoms: C3_3  and  C4_4
REMARK    4  A    between atoms: C4_4  and  C5_5
REMARK    5  A    between atoms: C5_5  and  C6_6
REMARK    6  A    between atoms: C7_7  and  O4_24
REMARK    7  A    between atoms: C10_10  and  C12_13
REMARK    8  A    between atoms: C11_11  and  O1_12
REMARK    9  A    between atoms: C12_13  and  C13_15
REMARK   10  A    between atoms: C14_16  and  C15_17
REMARK   11  A    between atoms: C18_20  and  O3_23
REMARK                            x       y       z     vdW  Elec       q    Type
REMARK                         _______ _______ _______ _____ _____    ______ ____
ROOT
ATOM      7  C   UNL     1      51.579  18.451  17.814  0.00  0.00    -0.150 A 
ATOM      8  C   UNL     1      51.870  19.327  16.780  0.00  0.00    +0.156 A 
ATOM     11  C   UNL     1      51.553  20.678  16.894  0.00  0.00    -0.026 A 
ATOM     12  C   UNL     1      50.949  21.153  18.036  0.00  0.00    +0.092 A 
ATOM     13  C   UNL     1      50.651  20.278  19.084  0.00  0.00    -0.198 A 
ATOM     26  C   UNL     1      50.967  18.915  18.965  0.00  0.00    +0.185 A 
ENDROOT
BRANCH   8   9
ATOM      9  O   UNL     1      52.466  18.867  15.651  0.00  0.00    -0.491 OA
ATOM     10  H   UNL     1      53.433  18.862  15.690  0.00  0.00    +0.397 HD
ENDBRANCH   8   9
BRANCH  13  14
ATOM     14  C   UNL     1      50.004  20.783  20.309  0.00  0.00    +0.423 C 
ATOM     25  O   UNL     1      50.672  21.008  21.303  0.00  0.00    -0.444 OA
BRANCH  14  15
ATOM     15  C   UNL     1      48.560  21.012  20.331  0.00  0.00    -0.103 C 
ATOM     16  C   UNL     1      47.776  20.475  19.371  0.00  0.00    +0.126 C 
BRANCH  16  17
ATOM     17  C   UNL     1      46.325  20.704  19.393  0.00  0.00    -0.093 A 
ATOM     18  C   UNL     1      45.797  21.794  20.097  0.00  0.00    +0.052 A 
ATOM     19  C   UNL     1      44.437  22.005  20.114  0.00  0.00    -0.014 A 
ATOM     20  C   UNL     1      43.588  21.139  19.434  0.00  0.00    +0.121 A 
ATOM     23  C   UNL     1      44.107  20.055  18.734  0.00  0.00    -0.014 A 
ATOM     24  C   UNL     1      45.466  19.839  18.705  0.00  0.00    +0.060 A 
BRANCH  20  21
ATOM     21  O   UNL     1      42.247  21.351  19.454  0.00  0.00    -0.499 OA
ATOM     22  H   UNL     1      41.970  22.156  18.996  0.00  0.00    +0.395 HD
ENDBRANCH  20  21
ENDBRANCH  16  17
ENDBRANCH  14  15
ENDBRANCH  13  14
BRANCH  26  27
ATOM     27  O   UNL     1      50.677  18.058  19.976  0.00  0.00    -0.474 OA
ATOM     28  H   UNL     1      50.626  18.478  20.845  0.00  0.00    +0.396 HD
ENDBRANCH  26  27
BRANCH   7   6
ATOM      6  C   UNL     1      51.926  16.989  17.683  0.00  0.00    +0.091 C 
BRANCH   6   5
ATOM      5  C   UNL     1      50.857  16.285  16.845  0.00  0.00    +0.055 C 
BRANCH   5   4
ATOM      1  C   UNL     1      48.203  17.209  17.076  0.00  0.00    +0.073 C 
ATOM      2  C   UNL     1      48.673  16.043  17.906  0.00  0.00    -0.127 C 
ATOM      3  C   UNL     1      47.743  15.410  18.910  0.00  0.00    +0.072 C 
ATOM      4  C   UNL     1      49.888  15.578  17.756  0.00  0.00    -0.063 C 
ENDBRANCH   5   4
ENDBRANCH   6   5
ENDBRANCH   7   6
TORSDOF 9
ENDMDL
MODEL 4
REMARK VINA RESULT:      -5.7      2.878      8.017
REMARK  Name = ZINC95485931
REMARK  11 active torsions:
REMARK  status: ('A' for Active; 'I' for Inactive)
REMARK    1  A    between atoms: C1_1  and  C2_2
REMARK    2  A    between atoms: C2_2  and  C21_25
REMARK    3  A    between atoms: C3_3  and  C4_4
REMARK    4  A    between atoms: C4_4  and  C5_5
REMARK    5  A    between atoms: C5_5  and  C6_6
REMARK    6  A    between atoms: C7_7  and  O4_24
REMARK    7  A    between atoms: C10_10  and  C12_13
REMARK    8  A    between atoms: C11_11  and  O1_12
REMARK    9  A    between atoms: C12_13  and  C13_15
REMARK   10  A    between atoms: C14_16  and  C15_17
REMARK   11  A    between atoms: C18_20  and  O3_23
REMARK                            x       y       z     vdW  Elec       q    Type
REMARK                         _______ _______ _______ _____ _____    ______ ____
ROOT
ATOM      7  C   UNL     1      50.545  17.120  18.044  0.00  0.00    -0.150 A 
ATOM      8  C   UNL     1      50.996  16.800  19.316  0.00  0.00    +0.156 A 
ATOM     11  C   UNL     1      50.092  16.440  20.312  0.00  0.00    -0.026 A 
ATOM     12  C   UNL     1      48.743  16.398  20.041  0.00  0.00    +0.092 A 
ATOM     13  C   UNL     1      48.278  16.719  18.762  0.00  0.00    -0.198 A 
ATOM     26  C   UNL     1      49.191  17.087  17.760  0.00  0.00    +0.185 A 
ENDROOT
BRANCH   8   9
ATOM      9  O   UNL     1      52.324  16.838  19.592  0.00  0.00    -0.491 OA
ATOM     10  H   UNL     1      52.611  16.178  20.238  0.00  0.00    +0.397 HD
ENDBRANCH   8   9
BRANCH  13  14
ATOM     14  C   UNL     1      46.834  16.675  18.467  0.00  0.00    +0.423 C 
ATOM     25  O   UNL     1      46.361  15.720  17.876  0.00  0.00    -0.444 OA
BRANCH  14  15
ATOM     15  C   UNL     1      45.970  17.779  18.882  0.00  0.00    -0.103 C 
ATOM     16  C   UNL     1      46.143  19.010  18.351  0.00  0.00    +0.126 C 
BRANCH  16  17
ATOM     17  C   UNL     1      45.274  20.119  18.768  0.00  0.00    -0.093 A 
ATOM     18  C   UNL     1      43.894  19.918  18.901  0.00  0.00    +0.052 A 
ATOM     19  C   UNL     1      43.085  20.961  19.293  0.00  0.00    -0.014 A 
ATOM     20  C   UNL     1      43.635  22.210  19.556  0.00  0.00    +0.121 A 
ATOM     23  C   UNL     1      45.004  22.414  19.424  0.00  0.00    -0.014 A 
ATOM     24  C   UNL     1      45.824  21.377  19.040  0.00  0.00    +0.060 A 
BRANCH  20  21
ATOM     21  O   UNL     1      42.832  23.235  19.941  0.00  0.00    -0.499 OA
ATOM     22  H   UNL     1      42.558  23.192  20.867  0.00  0.00    +0.395 HD
ENDBRANCH  20  21
ENDBRANCH  16  17
ENDBRANCH  14  15
ENDBRANCH  13  14
BRANCH  26  27
ATOM     27  O   UNL     1      48.747  17.405  16.518  0.00  0.00    -0.474 OA
ATOM     28  H   UNL     1      49.310  18.037  16.050  0.00  0.00    +0.396 HD
ENDBRANCH  26  27
BRANCH   7   6
ATOM      6  C   UNL     1      51.529  17.509  16.971  0.00  0.00    +0.091 C 
BRANCH   6   5
ATOM      5  C   UNL     1      51.445  19.016  16.724  0.00  0.00    +0.055 C 
BRANCH   5   4
ATOM      1  C   UNL     1      50.127  20.734  18.531  0.00  0.00    +0.073 C 
ATOM      2  C   UNL     1      51.625  20.585  18.585  0.00  0.00    -0.127 C 
ATOM      3  C   UNL     1      52.429  21.406  19.563  0.00  0.00    +0.072 C 
ATOM      4  C   UNL     1      52.231  19.744  17.784  0.00  0.00    -0.063 C 
ENDBRANCH   5   4
ENDBRANCH   6   5
ENDBRANCH   7   6
TORSDOF 9
ENDMDL
MODEL 5
REMARK VINA RESULT:      -5.6      2.280      4.574
REMARK  Name = ZINC95485931
REMARK  11 active torsions:
REMARK  status: ('A' for Active; 'I' for Inactive)
REMARK    1  A    between atoms: C1_1  and  C2_2
REMARK    2  A    between atoms: C2_2  and  C21_25
REMARK    3  A    between atoms: C3_3  and  C4_4
REMARK    4  A    between atoms: C4_4  and  C5_5
REMARK    5  A    between atoms: C5_5  and  C6_6
REMARK    6  A    between atoms: C7_7  and  O4_24
REMARK    7  A    between atoms: C10_10  and  C12_13
REMARK    8  A    between atoms: C11_11  and  O1_12
REMARK    9  A    between atoms: C12_13  and  C13_15
REMARK   10  A    between atoms: C14_16  and  C15_17
REMARK   11  A    between atoms: C18_20  and  O3_23
REMARK                            x       y       z     vdW  Elec       q    Type
REMARK                         _______ _______ _______ _____ _____    ______ ____
ROOT
ATOM      7  C   UNL     1      43.831  18.715  20.188  0.00  0.00    -0.150 A 
ATOM      8  C   UNL     1      43.623  17.915  21.301  0.00  0.00    +0.156 A 
ATOM     11  C   UNL     1      44.297  16.704  21.431  0.00  0.00    -0.026 A 
ATOM     12  C   UNL     1      45.177  16.293  20.455  0.00  0.00    +0.092 A 
ATOM     13  C   UNL     1      45.393  17.092  19.328  0.00  0.00    -0.198 A 
ATOM     26  C   UNL     1      44.708  18.311  19.197  0.00  0.00    +0.185 A 
ENDROOT
BRANCH   8   9
ATOM      9  O   UNL     1      42.758  18.312  22.268  0.00  0.00    -0.491 OA
ATOM     10  H   UNL     1      41.963  17.765  22.335  0.00  0.00    +0.397 HD
ENDBRANCH   8   9
BRANCH  13  14
ATOM     14  C   UNL     1      46.335  16.656  18.281  0.00  0.00    +0.423 C 
ATOM     25  O   UNL     1      46.248  15.535  17.812  0.00  0.00    -0.444 OA
BRANCH  14  15
ATOM     15  C   UNL     1      47.373  17.570  17.806  0.00  0.00    -0.103 C 
ATOM     16  C   UNL     1      48.508  17.732  18.520  0.00  0.00    +0.126 C 
BRANCH  16  17
ATOM     17  C   UNL     1      49.552  18.649  18.043  0.00  0.00    -0.093 A 
ATOM     18  C   UNL     1      50.432  18.247  17.030  0.00  0.00    +0.052 A 
ATOM     19  C   UNL     1      51.407  19.110  16.586  0.00  0.00    -0.014 A 
ATOM     20  C   UNL     1      51.519  20.380  17.141  0.00  0.00    +0.121 A 
ATOM     23  C   UNL     1      50.649  20.784  18.147  0.00  0.00    -0.014 A 
ATOM     24  C   UNL     1      49.666  19.931  18.594  0.00  0.00    +0.060 A 
BRANCH  20  21
ATOM     21  O   UNL     1      52.484  21.228  16.699  0.00  0.00    -0.499 OA
ATOM     22  H   UNL     1      53.026  20.868  15.985  0.00  0.00    +0.395 HD
ENDBRANCH  20  21
ENDBRANCH  16  17
ENDBRANCH  14  15
ENDBRANCH  13  14
BRANCH  26  27
ATOM     27  O   UNL     1      44.908  19.090  18.105  0.00  0.00    -0.474 OA
ATOM     28  H   UNL     1      45.380  18.647  17.386  0.00  0.00    +0.396 HD
ENDBRANCH  26  27
BRANCH   7   6
ATOM      6  C   UNL     1      43.097  20.025  20.054  0.00  0.00    +0.091 C 
BRANCH   6   5
ATOM      5  C   UNL     1      43.981  21.161  20.572  0.00  0.00    +0.055 C 
BRANCH   5   4
ATOM      1  C   UNL     1      45.563  23.450  21.031  0.00  0.00    +0.073 C 
ATOM      2  C   UNL     1      44.664  23.382  19.825  0.00  0.00    -0.127 C 
ATOM      3  C   UNL     1      44.558  24.566  18.897  0.00  0.00    +0.072 C 
ATOM      4  C   UNL     1      43.973  22.296  19.581  0.00  0.00    -0.063 C 
ENDBRANCH   5   4
ENDBRANCH   6   5
ENDBRANCH   7   6
TORSDOF 9
ENDMDL
MODEL 6
REMARK VINA RESULT:      -5.5      4.057      6.119
REMARK  Name = ZINC95485931
REMARK  11 active torsions:
REMARK  status: ('A' for Active; 'I' for Inactive)
REMARK    1  A    between atoms: C1_1  and  C2_2
REMARK    2  A    between atoms: C2_2  and  C21_25
REMARK    3  A    between atoms: C3_3  and  C4_4
REMARK    4  A    between atoms: C4_4  and  C5_5
REMARK    5  A    between atoms: C5_5  and  C6_6
REMARK    6  A    between atoms: C7_7  and  O4_24
REMARK    7  A    between atoms: C10_10  and  C12_13
REMARK    8  A    between atoms: C11_11  and  O1_12
REMARK    9  A    between atoms: C12_13  and  C13_15
REMARK   10  A    between atoms: C14_16  and  C15_17
REMARK   11  A    between atoms: C18_20  and  O3_23
REMARK                            x       y       z     vdW  Elec       q    Type
REMARK                         _______ _______ _______ _____ _____    ______ ____
ROOT
ATOM      7  C   UNL     1      43.702  19.189  20.943  0.00  0.00    -0.150 A 
ATOM      8  C   UNL     1      42.683  18.596  21.673  0.00  0.00    +0.156 A 
ATOM     11  C   UNL     1      42.838  17.307  22.177  0.00  0.00    -0.026 A 
ATOM     12  C   UNL     1      44.005  16.612  21.954  0.00  0.00    +0.092 A 
ATOM     13  C   UNL     1      45.038  17.200  21.219  0.00  0.00    -0.198 A 
ATOM     26  C   UNL     1      44.878  18.498  20.707  0.00  0.00    +0.185 A 
ENDROOT
BRANCH   8   9
ATOM      9  O   UNL     1      41.529  19.274  21.898  0.00  0.00    -0.491 OA
ATOM     10  H   UNL     1      41.462  19.652  22.786  0.00  0.00    +0.397 HD
ENDBRANCH   8   9
BRANCH  13  14
ATOM     14  C   UNL     1      46.290  16.460  20.978  0.00  0.00    +0.423 C 
ATOM     25  O   UNL     1      47.319  16.806  21.531  0.00  0.00    -0.444 OA
BRANCH  14  15
ATOM     15  C   UNL     1      46.297  15.311  20.074  0.00  0.00    -0.103 C 
ATOM     16  C   UNL     1      46.508  15.493  18.751  0.00  0.00    +0.126 C 
BRANCH  16  17
ATOM     17  C   UNL     1      46.515  14.339  17.842  0.00  0.00    -0.093 A 
ATOM     18  C   UNL     1      45.694  13.235  18.102  0.00  0.00    +0.052 A 
ATOM     19  C   UNL     1      45.704  12.156  17.247  0.00  0.00    -0.014 A 
ATOM     20  C   UNL     1      46.528  12.163  16.127  0.00  0.00    +0.121 A 
ATOM     23  C   UNL     1      47.345  13.256  15.864  0.00  0.00    -0.014 A 
ATOM     24  C   UNL     1      47.338  14.342  16.710  0.00  0.00    +0.060 A 
BRANCH  20  21
ATOM     21  O   UNL     1      46.534  11.096  15.287  0.00  0.00    -0.499 OA
ATOM     22  H   UNL     1      47.331  11.029  14.743  0.00  0.00    +0.395 HD
ENDBRANCH  20  21
ENDBRANCH  16  17
ENDBRANCH  14  15
ENDBRANCH  13  14
BRANCH  26  27
ATOM     27  O   UNL     1      45.874  19.075  19.989  0.00  0.00    -0.474 OA
ATOM     28  H   UNL     1      46.340  19.780  20.459  0.00  0.00    +0.396 HD
ENDBRANCH  26  27
BRANCH   7   6
ATOM      6  C   UNL     1      43.527  20.584  20.401  0.00  0.00    +0.091 C 
BRANCH   6   5
ATOM      5  C   UNL     1      42.868  20.517  19.023  0.00  0.00    +0.055 C 
BRANCH   5   4
ATOM      1  C   UNL     1      40.589  19.377  17.815  0.00  0.00    +0.073 C 
ATOM      2  C   UNL     1      40.506  20.741  18.449  0.00  0.00    -0.127 C 
ATOM      3  C   UNL     1      39.221  21.526  18.379  0.00  0.00    +0.072 C 
ATOM      4  C   UNL     1      41.549  21.245  19.060  0.00  0.00    -0.063 C 
ENDBRANCH   5   4
ENDBRANCH   6   5
ENDBRANCH   7   6
TORSDOF 9
ENDMDL
MODEL 7
REMARK VINA RESULT:      -5.4      2.398      4.128
REMARK  Name = ZINC95485931
REMARK  11 active torsions:
REMARK  status: ('A' for Active; 'I' for Inactive)
REMARK    1  A    between atoms: C1_1  and  C2_2
REMARK    2  A    between atoms: C2_2  and  C21_25
REMARK    3  A    between atoms: C3_3  and  C4_4
REMARK    4  A    between atoms: C4_4  and  C5_5
REMARK    5  A    between atoms: C5_5  and  C6_6
REMARK    6  A    between atoms: C7_7  and  O4_24
REMARK    7  A    between atoms: C10_10  and  C12_13
REMARK    8  A    between atoms: C11_11  and  O1_12
REMARK    9  A    between atoms: C12_13  and  C13_15
REMARK   10  A    between atoms: C14_16  and  C15_17
REMARK   11  A    between atoms: C18_20  and  O3_23
REMARK                            x       y       z     vdW  Elec       q    Type
REMARK                         _______ _______ _______ _____ _____    ______ ____
ROOT
ATOM      7  C   UNL     1      44.088  17.904  20.491  0.00  0.00    -0.150 A 
ATOM      8  C   UNL     1      44.118  16.745  21.251  0.00  0.00    +0.156 A 
ATOM     11  C   UNL     1      44.936  15.682  20.879  0.00  0.00    -0.026 A 
ATOM     12  C   UNL     1      45.724  15.775  19.754  0.00  0.00    +0.092 A 
ATOM     13  C   UNL     1      45.702  16.939  18.980  0.00  0.00    -0.198 A 
ATOM     26  C   UNL     1      44.871  18.008  19.354  0.00  0.00    +0.185 A 
ENDROOT
BRANCH   8   9
ATOM      9  O   UNL     1      43.345  16.644  22.362  0.00  0.00    -0.491 OA
ATOM     10  H   UNL     1      42.863  15.808  22.432  0.00  0.00    +0.397 HD
ENDBRANCH   8   9
BRANCH  13  14
ATOM     14  C   UNL     1      46.544  17.044  17.775  0.00  0.00    +0.423 C 
ATOM     25  O   UNL     1      46.249  16.423  16.769  0.00  0.00    -0.444 OA
BRANCH  14  15
ATOM     15  C   UNL     1      47.734  17.892  17.787  0.00  0.00    -0.103 C 
ATOM     16  C   UNL     1      48.266  18.293  18.963  0.00  0.00    +0.126 C 
BRANCH  16  17
ATOM     17  C   UNL     1      49.463  19.145  18.976  0.00  0.00    -0.093 A 
ATOM     18  C   UNL     1      49.675  20.042  20.031  0.00  0.00    +0.052 A 
ATOM     19  C   UNL     1      50.799  20.837  20.038  0.00  0.00    -0.014 A 
ATOM     20  C   UNL     1      51.722  20.750  19.002  0.00  0.00    +0.121 A 
ATOM     23  C   UNL     1      51.516  19.861  17.953  0.00  0.00    -0.014 A 
ATOM     24  C   UNL     1      50.399  19.057  17.938  0.00  0.00    +0.060 A 
BRANCH  20  21
ATOM     21  O   UNL     1      52.828  21.537  19.015  0.00  0.00    -0.499 OA
ATOM     22  H   UNL     1      52.646  22.469  19.198  0.00  0.00    +0.395 HD
ENDBRANCH  20  21
ENDBRANCH  16  17
ENDBRANCH  14  15
ENDBRANCH  13  14
BRANCH  26  27
ATOM     27  O   UNL     1      44.840  19.140  18.607  0.00  0.00    -0.474 OA
ATOM     28  H   UNL     1      45.070  19.941  19.097  0.00  0.00    +0.396 HD
ENDBRANCH  26  27
BRANCH   7   6
ATOM      6  C   UNL     1      43.199  19.050  20.900  0.00  0.00    +0.091 C 
BRANCH   6   5
ATOM      5  C   UNL     1      43.860  19.827  22.040  0.00  0.00    +0.055 C 
BRANCH   5   4
ATOM      1  C   UNL     1      46.673  19.708  22.196  0.00  0.00    +0.073 C 
ATOM      2  C   UNL     1      45.999  20.914  21.595  0.00  0.00    -0.127 C 
ATOM      3  C   UNL     1      46.827  22.089  21.137  0.00  0.00    +0.072 C 
ATOM      4  C   UNL     1      44.695  20.943  21.471  0.00  0.00    -0.063 C 
ENDBRANCH   5   4
ENDBRANCH   6   5
ENDBRANCH   7   6
TORSDOF 9
ENDMDL
MODEL 8
REMARK VINA RESULT:      -5.3      2.778      7.890
REMARK  Name = ZINC95485931
REMARK  11 active torsions:
REMARK  status: ('A' for Active; 'I' for Inactive)
REMARK    1  A    between atoms: C1_1  and  C2_2
REMARK    2  A    between atoms: C2_2  and  C21_25
REMARK    3  A    between atoms: C3_3  and  C4_4
REMARK    4  A    between atoms: C4_4  and  C5_5
REMARK    5  A    between atoms: C5_5  and  C6_6
REMARK    6  A    between atoms: C7_7  and  O4_24
REMARK    7  A    between atoms: C10_10  and  C12_13
REMARK    8  A    between atoms: C11_11  and  O1_12
REMARK    9  A    between atoms: C12_13  and  C13_15
REMARK   10  A    between atoms: C14_16  and  C15_17
REMARK   11  A    between atoms: C18_20  and  O3_23
REMARK                            x       y       z     vdW  Elec       q    Type
REMARK                         _______ _______ _______ _____ _____    ______ ____
ROOT
ATOM      7  C   UNL     1      51.410  18.411  17.955  0.00  0.00    -0.150 A 
ATOM      8  C   UNL     1      51.732  19.269  16.915  0.00  0.00    +0.156 A 
ATOM     11  C   UNL     1      51.428  20.625  17.004  0.00  0.00    -0.026 A 
ATOM     12  C   UNL     1      50.804  21.123  18.125  0.00  0.00    +0.092 A 
ATOM     13  C   UNL     1      50.474  20.266  19.179  0.00  0.00    -0.198 A 
ATOM     26  C   UNL     1      50.777  18.898  19.086  0.00  0.00    +0.185 A 
ENDROOT
BRANCH   8   9
ATOM      9  O   UNL     1      52.347  18.787  15.806  0.00  0.00    -0.491 OA
ATOM     10  H   UNL     1      52.500  17.832  15.824  0.00  0.00    +0.397 HD
ENDBRANCH   8   9
BRANCH  13  14
ATOM     14  C   UNL     1      49.807  20.794  20.383  0.00  0.00    +0.423 C 
ATOM     25  O   UNL     1      50.457  21.032  21.385  0.00  0.00    -0.444 OA
BRANCH  14  15
ATOM     15  C   UNL     1      48.364  21.032  20.373  0.00  0.00    -0.103 C 
ATOM     16  C   UNL     1      47.591  20.455  19.427  0.00  0.00    +0.126 C 
BRANCH  16  17
ATOM     17  C   UNL     1      46.141  20.693  19.417  0.00  0.00    -0.093 A 
ATOM     18  C   UNL     1      45.606  21.796  20.094  0.00  0.00    +0.052 A 
ATOM     19  C   UNL     1      44.247  22.015  20.081  0.00  0.00    -0.014 A 
ATOM     20  C   UNL     1      43.407  21.144  19.397  0.00  0.00    +0.121 A 
ATOM     23  C   UNL     1      43.933  20.047  18.724  0.00  0.00    -0.014 A 
ATOM     24  C   UNL     1      45.291  19.822  18.725  0.00  0.00    +0.060 A 
BRANCH  20  21
ATOM     21  O   UNL     1      42.067  21.364  19.388  0.00  0.00    -0.499 OA
ATOM     22  H   UNL     1      41.679  21.464  20.268  0.00  0.00    +0.395 HD
ENDBRANCH  20  21
ENDBRANCH  16  17
ENDBRANCH  14  15
ENDBRANCH  13  14
BRANCH  26  27
ATOM     27  O   UNL     1      50.456  18.058  20.101  0.00  0.00    -0.474 OA
ATOM     28  H   UNL     1      50.127  17.196  19.810  0.00  0.00    +0.396 HD
ENDBRANCH  26  27
BRANCH   7   6
ATOM      6  C   UNL     1      51.742  16.944  17.852  0.00  0.00    +0.091 C 
BRANCH   6   5
ATOM      5  C   UNL     1      53.014  16.652  18.651  0.00  0.00    +0.055 C 
BRANCH   5   4
ATOM      1  C   UNL     1      55.345  15.437  19.672  0.00  0.00    +0.073 C 
ATOM      2  C   UNL     1      54.055  14.661  19.605  0.00  0.00    -0.127 C 
ATOM      3  C   UNL     1      54.025  13.213  20.023  0.00  0.00    +0.072 C 
ATOM      4  C   UNL     1      52.960  15.244  19.184  0.00  0.00    -0.063 C 
ENDBRANCH   5   4
ENDBRANCH   6   5
ENDBRANCH   7   6
TORSDOF 9
ENDMDL
MODEL 9
REMARK VINA RESULT:      -5.3      3.417      6.368
REMARK  Name = ZINC95485931
REMARK  11 active torsions:
REMARK  status: ('A' for Active; 'I' for Inactive)
REMARK    1  A    between atoms: C1_1  and  C2_2
REMARK    2  A    between atoms: C2_2  and  C21_25
REMARK    3  A    between atoms: C3_3  and  C4_4
REMARK    4  A    between atoms: C4_4  and  C5_5
REMARK    5  A    between atoms: C5_5  and  C6_6
REMARK    6  A    between atoms: C7_7  and  O4_24
REMARK    7  A    between atoms: C10_10  and  C12_13
REMARK    8  A    between atoms: C11_11  and  O1_12
REMARK    9  A    between atoms: C12_13  and  C13_15
REMARK   10  A    between atoms: C14_16  and  C15_17
REMARK   11  A    between atoms: C18_20  and  O3_23
REMARK                            x       y       z     vdW  Elec       q    Type
REMARK                         _______ _______ _______ _____ _____    ______ ____
ROOT
ATOM      7  C   UNL     1      46.261  20.288  19.946  0.00  0.00    -0.150 A 
ATOM      8  C   UNL     1      45.205  20.779  19.193  0.00  0.00    +0.156 A 
ATOM     11  C   UNL     1      44.082  19.991  18.960  0.00  0.00    -0.026 A 
ATOM     12  C   UNL     1      44.011  18.716  19.475  0.00  0.00    +0.092 A 
ATOM     13  C   UNL     1      45.070  18.210  20.235  0.00  0.00    -0.198 A 
ATOM     26  C   UNL     1      46.205  19.005  20.465  0.00  0.00    +0.185 A 
ENDROOT
BRANCH   8   9
ATOM      9  O   UNL     1      45.267  22.035  18.682  0.00  0.00    -0.491 OA
ATOM     10  H   UNL     1      46.153  22.423  18.696  0.00  0.00    +0.397 HD
ENDBRANCH   8   9
BRANCH  13  14
ATOM     14  C   UNL     1      44.998  16.846  20.789  0.00  0.00    +0.423 C 
ATOM     25  O   UNL     1      44.794  16.682  21.979  0.00  0.00    -0.444 OA
BRANCH  14  15
ATOM     15  C   UNL     1      45.173  15.691  19.911  0.00  0.00    -0.103 C 
ATOM     16  C   UNL     1      46.161  15.687  18.988  0.00  0.00    +0.126 C 
BRANCH  16  17
ATOM     17  C   UNL     1      46.338  14.526  18.106  0.00  0.00    -0.093 A 
ATOM     18  C   UNL     1      47.157  14.622  16.974  0.00  0.00    +0.052 A 
ATOM     19  C   UNL     1      47.320  13.531  16.151  0.00  0.00    -0.014 A 
ATOM     20  C   UNL     1      46.674  12.335  16.442  0.00  0.00    +0.121 A 
ATOM     23  C   UNL     1      45.860  12.234  17.565  0.00  0.00    -0.014 A 
ATOM     24  C   UNL     1      45.694  13.317  18.398  0.00  0.00    +0.060 A 
BRANCH  20  21
ATOM     21  O   UNL     1      46.838  11.262  15.627  0.00  0.00    -0.499 OA
ATOM     22  H   UNL     1      47.727  10.880  15.653  0.00  0.00    +0.395 HD
ENDBRANCH  20  21
ENDBRANCH  16  17
ENDBRANCH  14  15
ENDBRANCH  13  14
BRANCH  26  27
ATOM     27  O   UNL     1      47.239  18.521  21.197  0.00  0.00    -0.474 OA
ATOM     28  H   UNL     1      46.980  17.860  21.853  0.00  0.00    +0.396 HD
ENDBRANCH  26  27
BRANCH   7   6
ATOM      6  C   UNL     1      47.474  21.147  20.195  0.00  0.00    +0.091 C 
BRANCH   6   5
ATOM      5  C   UNL     1      48.575  20.775  19.200  0.00  0.00    +0.055 C 
BRANCH   5   4
ATOM      1  C   UNL     1      50.933  21.140  17.697  0.00  0.00    +0.073 C 
ATOM      2  C   UNL     1      51.011  20.928  19.187  0.00  0.00    -0.127 C 
ATOM      3  C   UNL     1      52.355  20.844  19.866  0.00  0.00    +0.072 C 
ATOM      4  C   UNL     1      49.912  20.816  19.892  0.00  0.00    -0.063 C 
ENDBRANCH   5   4
ENDBRANCH   6   5
ENDBRANCH   7   6
TORSDOF 9
ENDMDL
