MODEL 1
REMARK VINA RESULT:      -3.8      0.000      0.000
REMARK  Name = ZINC05193911
REMARK  8 active torsions:
REMARK  status: ('A' for Active; 'I' for Inactive)
REMARK    1  A    between atoms: C2_2  and  C3_3
REMARK    2  A    between atoms: C3_3  and  S1_4
REMARK    3  A    between atoms: S1_4  and  S2_5
REMARK    4  A    between atoms: S2_5  and  C4_6
REMARK    5  A    between atoms: C5_7  and  C6_8
REMARK    6  A    between atoms: C6_8  and  S3_9
REMARK    7  A    between atoms: S3_9  and  C7_11
REMARK    8  A    between atoms: C7_11  and  C8_12
REMARK                            x       y       z     vdW  Elec       q    Type
REMARK                         _______ _______ _______ _____ _____    ______ ____
ROOT
ATOM      6  C   UNL     1      47.565  19.571  19.005  0.00  0.00    -0.047 C 
ATOM      7  C   UNL     1      46.531  20.379  19.154  0.00  0.00    +0.038 C 
ENDROOT
BRANCH   6   5
ATOM      5  S   UNL     1      49.139  20.027  19.655  0.00  0.00    -0.026 S 
BRANCH   5   4
ATOM      4  S   UNL     1      50.459  19.485  18.182  0.00  0.00    -0.141 S 
BRANCH   4   3
ATOM      3  C   UNL     1      51.291  21.036  17.745  0.00  0.00    +0.145 C 
BRANCH   3   2
ATOM      1  C   UNL     1      52.145  19.866  15.780  0.00  0.00    +0.043 C 
ATOM      2  C   UNL     1      51.715  20.989  16.300  0.00  0.00    -0.044 C 
ENDBRANCH   3   2
ENDBRANCH   4   3
ENDBRANCH   5   4
ENDBRANCH   6   5
BRANCH   7   8
ATOM      8  C   UNL     1      45.185  19.990  18.598  0.00  0.00    -0.192 C 
BRANCH   8   9
ATOM      9  S   UNL     1      43.889  20.964  19.414  0.00  0.00    +1.258 S 
ATOM     13  O   UNL     1      43.885  20.674  20.805  0.00  0.00    -0.831 OA
BRANCH   9  10
ATOM     10  C   UNL     1      42.351  20.363  18.666  0.00  0.00    -0.207 C 
BRANCH  10  11
ATOM     11  C   UNL     1      41.301  21.441  18.741  0.00  0.00    -0.033 C 
ATOM     12  C   UNL     1      40.035  21.133  18.594  0.00  0.00    +0.035 C 
ENDBRANCH  10  11
ENDBRANCH   9  10
ENDBRANCH   8   9
ENDBRANCH   7   8
TORSDOF 8
ENDMDL
MODEL 2
REMARK VINA RESULT:      -3.8      2.230      8.215
REMARK  Name = ZINC05193911
REMARK  8 active torsions:
REMARK  status: ('A' for Active; 'I' for Inactive)
REMARK    1  A    between atoms: C2_2  and  C3_3
REMARK    2  A    between atoms: C3_3  and  S1_4
REMARK    3  A    between atoms: S1_4  and  S2_5
REMARK    4  A    between atoms: S2_5  and  C4_6
REMARK    5  A    between atoms: C5_7  and  C6_8
REMARK    6  A    between atoms: C6_8  and  S3_9
REMARK    7  A    between atoms: S3_9  and  C7_11
REMARK    8  A    between atoms: C7_11  and  C8_12
REMARK                            x       y       z     vdW  Elec       q    Type
REMARK                         _______ _______ _______ _____ _____    ______ ____
ROOT
ATOM      6  C   UNL     1      46.331  20.509  18.644  0.00  0.00    -0.047 C 
ATOM      7  C   UNL     1      47.456  20.020  19.133  0.00  0.00    +0.038 C 
ENDROOT
BRANCH   6   5
ATOM      5  S   UNL     1      44.842  19.572  18.753  0.00  0.00    -0.026 S 
BRANCH   5   4
ATOM      4  S   UNL     1      43.470  20.904  19.490  0.00  0.00    -0.141 S 
BRANCH   4   3
ATOM      3  C   UNL     1      41.946  20.510  18.589  0.00  0.00    +0.145 C 
BRANCH   3   2
ATOM      1  C   UNL     1      39.691  21.446  18.553  0.00  0.00    +0.043 C 
ATOM      2  C   UNL     1      40.974  21.654  18.722  0.00  0.00    -0.044 C 
ENDBRANCH   3   2
ENDBRANCH   4   3
ENDBRANCH   5   4
ENDBRANCH   6   5
BRANCH   7   8
ATOM      8  C   UNL     1      48.729  20.822  19.039  0.00  0.00    -0.192 C 
BRANCH   8   9
ATOM      9  S   UNL     1      50.147  19.749  19.401  0.00  0.00    +1.258 S 
ATOM     13  O   UNL     1      51.089  20.461  20.191  0.00  0.00    -0.831 OA
BRANCH   9  10
ATOM     10  C   UNL     1      50.863  19.403  17.771  0.00  0.00    -0.207 C 
BRANCH  10  11
ATOM     11  C   UNL     1      51.747  20.550  17.357  0.00  0.00    -0.033 C 
ATOM     12  C   UNL     1      51.398  21.317  16.354  0.00  0.00    +0.035 C 
ENDBRANCH  10  11
ENDBRANCH   9  10
ENDBRANCH   8   9
ENDBRANCH   7   8
TORSDOF 8
ENDMDL
MODEL 3
REMARK VINA RESULT:      -3.7      1.625      1.991
REMARK  Name = ZINC05193911
REMARK  8 active torsions:
REMARK  status: ('A' for Active; 'I' for Inactive)
REMARK    1  A    between atoms: C2_2  and  C3_3
REMARK    2  A    between atoms: C3_3  and  S1_4
REMARK    3  A    between atoms: S1_4  and  S2_5
REMARK    4  A    between atoms: S2_5  and  C4_6
REMARK    5  A    between atoms: C5_7  and  C6_8
REMARK    6  A    between atoms: C6_8  and  S3_9
REMARK    7  A    between atoms: S3_9  and  C7_11
REMARK    8  A    between atoms: C7_11  and  C8_12
REMARK                            x       y       z     vdW  Elec       q    Type
REMARK                         _______ _______ _______ _____ _____    ______ ____
ROOT
ATOM      6  C   UNL     1      45.968  20.564  20.141  0.00  0.00    -0.047 C 
ATOM      7  C   UNL     1      45.734  20.170  18.902  0.00  0.00    +0.038 C 
ENDROOT
BRANCH   6   5
ATOM      5  S   UNL     1      47.582  21.101  20.603  0.00  0.00    -0.026 S 
BRANCH   5   4
ATOM      4  S   UNL     1      48.712  19.391  20.534  0.00  0.00    -0.141 S 
BRANCH   4   3
ATOM      3  C   UNL     1      49.506  19.455  18.904  0.00  0.00    +0.145 C 
BRANCH   3   2
ATOM      1  C   UNL     1      51.000  21.120  17.926  0.00  0.00    +0.043 C 
ATOM      2  C   UNL     1      49.897  20.876  18.591  0.00  0.00    -0.044 C 
ENDBRANCH   3   2
ENDBRANCH   4   3
ENDBRANCH   5   4
ENDBRANCH   6   5
BRANCH   7   8
ATOM      8  C   UNL     1      44.354  19.710  18.507  0.00  0.00    -0.192 C 
BRANCH   8   9
ATOM      9  S   UNL     1      43.176  20.133  19.821  0.00  0.00    +1.258 S 
ATOM     13  O   UNL     1      42.451  18.970  20.198  0.00  0.00    -0.831 OA
BRANCH   9  10
ATOM     10  C   UNL     1      42.051  21.320  19.037  0.00  0.00    -0.207 C 
BRANCH  10  11
ATOM     11  C   UNL     1      40.633  20.823  19.157  0.00  0.00    -0.033 C 
ATOM     12  C   UNL     1      39.673  21.417  18.493  0.00  0.00    +0.035 C 
ENDBRANCH  10  11
ENDBRANCH   9  10
ENDBRANCH   8   9
ENDBRANCH   7   8
TORSDOF 8
ENDMDL
MODEL 4
REMARK VINA RESULT:      -3.6      2.822      3.571
REMARK  Name = ZINC05193911
REMARK  8 active torsions:
REMARK  status: ('A' for Active; 'I' for Inactive)
REMARK    1  A    between atoms: C2_2  and  C3_3
REMARK    2  A    between atoms: C3_3  and  S1_4
REMARK    3  A    between atoms: S1_4  and  S2_5
REMARK    4  A    between atoms: S2_5  and  C4_6
REMARK    5  A    between atoms: C5_7  and  C6_8
REMARK    6  A    between atoms: C6_8  and  S3_9
REMARK    7  A    between atoms: S3_9  and  C7_11
REMARK    8  A    between atoms: C7_11  and  C8_12
REMARK                            x       y       z     vdW  Elec       q    Type
REMARK                         _______ _______ _______ _____ _____    ______ ____
ROOT
ATOM      6  C   UNL     1      44.571  18.020  19.702  0.00  0.00    -0.047 C 
ATOM      7  C   UNL     1      43.709  18.181  20.690  0.00  0.00    +0.038 C 
ENDROOT
BRANCH   6   5
ATOM      5  S   UNL     1      45.640  16.619  19.687  0.00  0.00    -0.026 S 
BRANCH   5   4
ATOM      4  S   UNL     1      47.498  17.410  20.039  0.00  0.00    -0.141 S 
BRANCH   4   3
ATOM      3  C   UNL     1      47.778  18.519  18.631  0.00  0.00    +0.145 C 
BRANCH   3   2
ATOM      1  C   UNL     1      46.890  20.762  19.006  0.00  0.00    +0.043 C 
ATOM      2  C   UNL     1      47.901  19.937  19.126  0.00  0.00    -0.044 C 
ENDBRANCH   3   2
ENDBRANCH   4   3
ENDBRANCH   5   4
ENDBRANCH   6   5
BRANCH   7   8
ATOM      8  C   UNL     1      42.794  19.380  20.703  0.00  0.00    -0.192 C 
BRANCH   8   9
ATOM      9  S   UNL     1      43.064  20.362  19.201  0.00  0.00    +1.258 S 
ATOM     13  O   UNL     1      43.343  21.708  19.561  0.00  0.00    -0.831 OA
BRANCH   9  10
ATOM     10  C   UNL     1      41.473  20.285  18.334  0.00  0.00    -0.207 C 
BRANCH  10  11
ATOM     11  C   UNL     1      40.632  21.475  18.720  0.00  0.00    -0.033 C 
ATOM     12  C   UNL     1      39.336  21.449  18.532  0.00  0.00    +0.035 C 
ENDBRANCH  10  11
ENDBRANCH   9  10
ENDBRANCH   8   9
ENDBRANCH   7   8
TORSDOF 8
ENDMDL
MODEL 5
REMARK VINA RESULT:      -3.5      3.192      7.957
REMARK  Name = ZINC05193911
REMARK  8 active torsions:
REMARK  status: ('A' for Active; 'I' for Inactive)
REMARK    1  A    between atoms: C2_2  and  C3_3
REMARK    2  A    between atoms: C3_3  and  S1_4
REMARK    3  A    between atoms: S1_4  and  S2_5
REMARK    4  A    between atoms: S2_5  and  C4_6
REMARK    5  A    between atoms: C5_7  and  C6_8
REMARK    6  A    between atoms: C6_8  and  S3_9
REMARK    7  A    between atoms: S3_9  and  C7_11
REMARK    8  A    between atoms: C7_11  and  C8_12
REMARK                            x       y       z     vdW  Elec       q    Type
REMARK                         _______ _______ _______ _____ _____    ______ ____
ROOT
ATOM      6  C   UNL     1      44.109  17.843  20.325  0.00  0.00    -0.047 C 
ATOM      7  C   UNL     1      45.038  17.973  19.395  0.00  0.00    +0.038 C 
ENDROOT
BRANCH   6   5
ATOM      5  S   UNL     1      43.237  19.261  20.903  0.00  0.00    -0.026 S 
BRANCH   5   4
ATOM      4  S   UNL     1      43.360  20.588  19.345  0.00  0.00    -0.141 S 
BRANCH   4   3
ATOM      3  C   UNL     1      41.813  20.338  18.431  0.00  0.00    +0.145 C 
BRANCH   3   2
ATOM      1  C   UNL     1      39.637  21.430  18.618  0.00  0.00    +0.043 C 
ATOM      2  C   UNL     1      40.940  21.558  18.579  0.00  0.00    -0.044 C 
ENDBRANCH   3   2
ENDBRANCH   4   3
ENDBRANCH   5   4
ENDBRANCH   6   5
BRANCH   7   8
ATOM      8  C   UNL     1      45.784  16.760  18.901  0.00  0.00    -0.192 C 
BRANCH   8   9
ATOM      9  S   UNL     1      46.821  17.223  17.485  0.00  0.00    +1.258 S 
ATOM     13  O   UNL     1      46.415  16.486  16.341  0.00  0.00    -0.831 OA
BRANCH   9  10
ATOM     10  C   UNL     1      48.489  16.708  17.977  0.00  0.00    -0.207 C 
BRANCH  10  11
ATOM     11  C   UNL     1      49.415  17.896  17.931  0.00  0.00    -0.033 C 
ATOM     12  C   UNL     1      50.280  18.014  16.954  0.00  0.00    +0.035 C 
ENDBRANCH  10  11
ENDBRANCH   9  10
ENDBRANCH   8   9
ENDBRANCH   7   8
TORSDOF 8
ENDMDL
MODEL 6
REMARK VINA RESULT:      -3.5      4.703      5.308
REMARK  Name = ZINC05193911
REMARK  8 active torsions:
REMARK  status: ('A' for Active; 'I' for Inactive)
REMARK    1  A    between atoms: C2_2  and  C3_3
REMARK    2  A    between atoms: C3_3  and  S1_4
REMARK    3  A    between atoms: S1_4  and  S2_5
REMARK    4  A    between atoms: S2_5  and  C4_6
REMARK    5  A    between atoms: C5_7  and  C6_8
REMARK    6  A    between atoms: C6_8  and  S3_9
REMARK    7  A    between atoms: S3_9  and  C7_11
REMARK    8  A    between atoms: C7_11  and  C8_12
REMARK                            x       y       z     vdW  Elec       q    Type
REMARK                         _______ _______ _______ _____ _____    ______ ____
ROOT
ATOM      6  C   UNL     1      44.747  17.847  20.796  0.00  0.00    -0.047 C 
ATOM      7  C   UNL     1      43.519  18.264  20.545  0.00  0.00    +0.038 C 
ENDROOT
BRANCH   6   5
ATOM      5  S   UNL     1      45.202  16.183  20.437  0.00  0.00    -0.026 S 
BRANCH   5   4
ATOM      4  S   UNL     1      46.073  16.295  18.585  0.00  0.00    -0.141 S 
BRANCH   4   3
ATOM      3  C   UNL     1      46.785  14.646  18.333  0.00  0.00    +0.145 C 
BRANCH   3   2
ATOM      1  C   UNL     1      45.100  12.880  18.404  0.00  0.00    +0.043 C 
ATOM      2  C   UNL     1      45.954  13.623  19.064  0.00  0.00    -0.044 C 
ENDBRANCH   3   2
ENDBRANCH   4   3
ENDBRANCH   5   4
ENDBRANCH   6   5
BRANCH   7   8
ATOM      8  C   UNL     1      43.130  19.688  20.852  0.00  0.00    -0.192 C 
BRANCH   8   9
ATOM      9  S   UNL     1      43.276  20.692  19.347  0.00  0.00    +1.258 S 
ATOM     13  O   UNL     1      43.302  22.068  19.699  0.00  0.00    -0.831 OA
BRANCH   9  10
ATOM     10  C   UNL     1      41.753  20.331  18.430  0.00  0.00    -0.207 C 
BRANCH  10  11
ATOM     11  C   UNL     1      40.872  21.553  18.419  0.00  0.00    -0.033 C 
ATOM     12  C   UNL     1      39.613  21.455  18.769  0.00  0.00    +0.035 C 
ENDBRANCH  10  11
ENDBRANCH   9  10
ENDBRANCH   8   9
ENDBRANCH   7   8
TORSDOF 8
ENDMDL
MODEL 7
REMARK VINA RESULT:      -3.4      1.469      1.648
REMARK  Name = ZINC05193911
REMARK  8 active torsions:
REMARK  status: ('A' for Active; 'I' for Inactive)
REMARK    1  A    between atoms: C2_2  and  C3_3
REMARK    2  A    between atoms: C3_3  and  S1_4
REMARK    3  A    between atoms: S1_4  and  S2_5
REMARK    4  A    between atoms: S2_5  and  C4_6
REMARK    5  A    between atoms: C5_7  and  C6_8
REMARK    6  A    between atoms: C6_8  and  S3_9
REMARK    7  A    between atoms: S3_9  and  C7_11
REMARK    8  A    between atoms: C7_11  and  C8_12
REMARK                            x       y       z     vdW  Elec       q    Type
REMARK                         _______ _______ _______ _____ _____    ______ ____
ROOT
ATOM      6  C   UNL     1      47.863  20.155  19.100  0.00  0.00    -0.047 C 
ATOM      7  C   UNL     1      46.769  20.829  19.402  0.00  0.00    +0.038 C 
ENDROOT
BRANCH   6   5
ATOM      5  S   UNL     1      49.390  20.558  19.882  0.00  0.00    -0.026 S 
BRANCH   5   4
ATOM      4  S   UNL     1      50.661  20.942  18.320  0.00  0.00    -0.141 S 
BRANCH   4   3
ATOM      3  C   UNL     1      51.650  19.428  18.176  0.00  0.00    +0.145 C 
BRANCH   3   2
ATOM      1  C   UNL     1      52.169  19.903  15.838  0.00  0.00    +0.043 C 
ATOM      2  C   UNL     1      51.755  19.032  16.726  0.00  0.00    -0.044 C 
ENDBRANCH   3   2
ENDBRANCH   4   3
ENDBRANCH   5   4
ENDBRANCH   6   5
BRANCH   7   8
ATOM      8  C   UNL     1      45.463  20.485  18.733  0.00  0.00    -0.192 C 
BRANCH   8   9
ATOM      9  S   UNL     1      44.088  20.888  19.847  0.00  0.00    +1.258 S 
ATOM     13  O   UNL     1      44.600  21.465  21.040  0.00  0.00    -0.831 OA
BRANCH   9  10
ATOM     10  C   UNL     1      43.342  19.279  20.224  0.00  0.00    -0.207 C 
BRANCH  10  11
ATOM     11  C   UNL     1      41.842  19.385  20.126  0.00  0.00    -0.033 C 
ATOM     12  C   UNL     1      41.088  18.920  21.091  0.00  0.00    +0.035 C 
ENDBRANCH  10  11
ENDBRANCH   9  10
ENDBRANCH   8   9
ENDBRANCH   7   8
TORSDOF 8
ENDMDL
MODEL 8
REMARK VINA RESULT:      -3.4      3.930      4.346
REMARK  Name = ZINC05193911
REMARK  8 active torsions:
REMARK  status: ('A' for Active; 'I' for Inactive)
REMARK    1  A    between atoms: C2_2  and  C3_3
REMARK    2  A    between atoms: C3_3  and  S1_4
REMARK    3  A    between atoms: S1_4  and  S2_5
REMARK    4  A    between atoms: S2_5  and  C4_6
REMARK    5  A    between atoms: C5_7  and  C6_8
REMARK    6  A    between atoms: C6_8  and  S3_9
REMARK    7  A    between atoms: S3_9  and  C7_11
REMARK    8  A    between atoms: C7_11  and  C8_12
REMARK                            x       y       z     vdW  Elec       q    Type
REMARK                         _______ _______ _______ _____ _____    ______ ____
ROOT
ATOM      6  C   UNL     1      49.084  18.922  19.215  0.00  0.00    -0.047 C 
ATOM      7  C   UNL     1      48.607  18.221  18.203  0.00  0.00    +0.038 C 
ENDROOT
BRANCH   6   5
ATOM      5  S   UNL     1      49.279  20.668  19.062  0.00  0.00    -0.026 S 
BRANCH   5   4
ATOM      4  S   UNL     1      51.271  20.909  18.642  0.00  0.00    -0.141 S 
BRANCH   4   3
ATOM      3  C   UNL     1      51.321  21.083  16.837  0.00  0.00    +0.145 C 
BRANCH   3   2
ATOM      1  C   UNL     1      51.597  18.804  16.007  0.00  0.00    +0.043 C 
ATOM      2  C   UNL     1      52.147  19.969  16.248  0.00  0.00    -0.044 C 
ENDBRANCH   3   2
ENDBRANCH   4   3
ENDBRANCH   5   4
ENDBRANCH   6   5
BRANCH   7   8
ATOM      8  C   UNL     1      48.440  16.728  18.333  0.00  0.00    -0.192 C 
BRANCH   8   9
ATOM      9  S   UNL     1      46.759  16.262  17.834  0.00  0.00    +1.258 S 
ATOM     13  O   UNL     1      46.543  16.646  16.483  0.00  0.00    -0.831 OA
BRANCH   9  10
ATOM     10  C   UNL     1      45.690  17.244  18.921  0.00  0.00    -0.207 C 
BRANCH  10  11
ATOM     11  C   UNL     1      45.093  16.351  19.978  0.00  0.00    -0.033 C 
ATOM     12  C   UNL     1      45.331  15.063  19.958  0.00  0.00    +0.035 C 
ENDBRANCH  10  11
ENDBRANCH   9  10
ENDBRANCH   8   9
ENDBRANCH   7   8
TORSDOF 8
ENDMDL
MODEL 9
REMARK VINA RESULT:      -3.4      3.012      7.879
REMARK  Name = ZINC05193911
REMARK  8 active torsions:
REMARK  status: ('A' for Active; 'I' for Inactive)
REMARK    1  A    between atoms: C2_2  and  C3_3
REMARK    2  A    between atoms: C3_3  and  S1_4
REMARK    3  A    between atoms: S1_4  and  S2_5
REMARK    4  A    between atoms: S2_5  and  C4_6
REMARK    5  A    between atoms: C5_7  and  C6_8
REMARK    6  A    between atoms: C6_8  and  S3_9
REMARK    7  A    between atoms: S3_9  and  C7_11
REMARK    8  A    between atoms: C7_11  and  C8_12
REMARK                            x       y       z     vdW  Elec       q    Type
REMARK                         _______ _______ _______ _____ _____    ______ ____
ROOT
ATOM      6  C   UNL     1      48.937  19.336  19.178  0.00  0.00    -0.047 C 
ATOM      7  C   UNL     1      49.106  20.626  18.949  0.00  0.00    +0.038 C 
ENDROOT
BRANCH   6   5
ATOM      5  S   UNL     1      47.420  18.754  19.860  0.00  0.00    -0.026 S 
BRANCH   5   4
ATOM      4  S   UNL     1      46.051  19.072  18.367  0.00  0.00    -0.141 S 
BRANCH   4   3
ATOM      3  C   UNL     1      44.958  20.355  19.039  0.00  0.00    +0.145 C 
BRANCH   3   2
ATOM      1  C   UNL     1      42.558  20.373  19.487  0.00  0.00    +0.043 C 
ATOM      2  C   UNL     1      43.531  20.039  18.675  0.00  0.00    -0.044 C 
ENDBRANCH   3   2
ENDBRANCH   4   3
ENDBRANCH   5   4
ENDBRANCH   6   5
BRANCH   7   8
ATOM      8  C   UNL     1      50.404  21.125  18.367  0.00  0.00    -0.192 C 
BRANCH   8   9
ATOM      9  S   UNL     1      51.795  20.404  19.283  0.00  0.00    +1.258 S 
ATOM     13  O   UNL     1      52.692  21.436  19.668  0.00  0.00    -0.831 OA
BRANCH   9  10
ATOM     10  C   UNL     1      52.602  19.320  18.074  0.00  0.00    -0.207 C 
BRANCH  10  11
ATOM     11  C   UNL     1      52.106  19.654  16.690  0.00  0.00    -0.033 C 
ATOM     12  C   UNL     1      51.761  18.693  15.869  0.00  0.00    +0.035 C 
ENDBRANCH  10  11
ENDBRANCH   9  10
ENDBRANCH   8   9
ENDBRANCH   7   8
TORSDOF 8
ENDMDL
