MODEL 1
REMARK VINA RESULT:      -8.4      0.000      0.000
REMARK  Name = ZINC28462577
REMARK  9 active torsions:
REMARK  status: ('A' for Active; 'I' for Inactive)
REMARK    1  A    between atoms: C3_3  and  O5_20
REMARK    2  A    between atoms: C6_6  and  C7_7
REMARK    3  A    between atoms: C11_12  and  O4_19
REMARK    4  A    between atoms: C13_14  and  O3_18
REMARK    5  A    between atoms: O5_20  and  C16_21
REMARK    6  A    between atoms: C18_23  and  C22_28
REMARK    7  A    between atoms: C21_26  and  O6_27
REMARK    8  A    between atoms: C26_33  and  O10_40
REMARK    9  A    between atoms: C28_35  and  O9_39
REMARK                            x       y       z     vdW  Elec       q    Type
REMARK                         _______ _______ _______ _____ _____    ______ ____
ROOT
ATOM      5  C   UNL     1      51.110  19.239  18.006  0.00  0.00    +0.029 A 
ATOM      6  C   UNL     1      51.073  17.860  17.947  0.00  0.00    +0.110 A 
ATOM      7  C   UNL     1      51.578  17.196  16.826  0.00  0.00    -0.102 A 
ATOM     23  C   UNL     1      52.129  17.933  15.773  0.00  0.00    +0.116 A 
ATOM     24  C   UNL     1      52.169  19.308  15.840  0.00  0.00    -0.057 A 
ATOM     25  C   UNL     1      51.662  19.967  16.953  0.00  0.00    +0.184 A 
ENDROOT
BRANCH   7   8
ATOM      8  C   UNL     1      51.535  15.724  16.755  0.00  0.00    +0.204 A 
ATOM      9  C   UNL     1      51.469  15.015  17.915  0.00  0.00    -0.144 A 
ATOM     10  C   UNL     1      51.427  13.601  17.867  0.00  0.00    +0.426 A 
ATOM     11  C   UNL     1      51.457  12.967  16.537  0.00  0.00    -0.308 A 
ATOM     12  C   UNL     1      51.418  11.575  16.396  0.00  0.00    +0.286 A 
ATOM     15  C   UNL     1      51.447  11.019  15.130  0.00  0.00    -0.149 A 
ATOM     16  C   UNL     1      51.516  11.837  14.009  0.00  0.00    +0.262 A 
ATOM     19  C   UNL     1      51.554  13.216  14.142  0.00  0.00    -0.138 A 
ATOM     20  C   UNL     1      51.525  13.793  15.402  0.00  0.00    +0.228 A 
ATOM     21  O   UNL     1      51.368  12.934  18.886  0.00  0.00    -0.457 OA
ATOM     22  O   UNL     1      51.557  15.134  15.550  0.00  0.00    -0.220 OA
BRANCH  12  13
ATOM     13  O   UNL     1      51.351  10.778  17.492  0.00  0.00    -0.467 OA
ATOM     14  H   UNL     1      51.766   9.759  17.456  0.00  0.00    +0.440 HD
ENDBRANCH  12  13
BRANCH  16  17
ATOM     17  O   UNL     1      51.544  11.281  12.770  0.00  0.00    -0.495 OA
ATOM     18  H   UNL     1      52.403  11.460  12.106  0.00  0.00    +0.445 HD
ENDBRANCH  16  17
ENDBRANCH   7   8
BRANCH  25  26
ATOM     26  O   UNL     1      51.704  21.323  17.014  0.00  0.00    -0.489 OA
ATOM     27  H   UNL     1      52.315  21.888  16.295  0.00  0.00    +0.444 HD
ENDBRANCH  25  26
BRANCH   5   4
ATOM      4  O   UNL     1      50.616  19.888  19.094  0.00  0.00    -0.236 OA
BRANCH   4   3
ATOM      1  C   UNL     1      47.415  18.725  20.363  0.00  0.00    +0.101 A 
ATOM      2  C   UNL     1      48.768  18.798  20.121  0.00  0.00    -0.061 A 
ATOM      3  C   UNL     1      49.280  19.816  19.326  0.00  0.00    +0.153 A 
ATOM     28  C   UNL     1      48.429  20.762  18.767  0.00  0.00    -0.005 A 
ATOM     29  C   UNL     1      47.073  20.693  18.998  0.00  0.00    +0.104 A 
ATOM     30  C   UNL     1      46.554  19.670  19.798  0.00  0.00    -0.107 A 
BRANCH  30  31
ATOM     31  C   UNL     1      45.102  19.592  20.050  0.00  0.00    +0.206 A 
ATOM     32  C   UNL     1      44.646  18.706  20.974  0.00  0.00    -0.152 A 
ATOM     33  C   UNL     1      43.256  18.617  21.229  0.00  0.00    +0.426 A 
ATOM     34  C   UNL     1      42.369  19.507  20.462  0.00  0.00    -0.308 A 
ATOM     35  C   UNL     1      40.981  19.488  20.649  0.00  0.00    +0.286 A 
ATOM     38  C   UNL     1      40.182  20.339  19.909  0.00  0.00    -0.150 A 
ATOM     39  C   UNL     1      40.754  21.209  18.987  0.00  0.00    +0.261 A 
ATOM     42  C   UNL     1      42.127  21.234  18.796  0.00  0.00    -0.139 A 
ATOM     43  C   UNL     1      42.944  20.386  19.529  0.00  0.00    +0.228 A 
ATOM     44  O   UNL     1      42.812  17.832  22.051  0.00  0.00    -0.459 OA
ATOM     45  O   UNL     1      44.283  20.399  19.357  0.00  0.00    -0.220 OA
BRANCH  35  36
ATOM     36  O   UNL     1      40.425  18.639  21.550  0.00  0.00    -0.467 OA
ATOM     37  H   UNL     1      41.057  18.143  22.302  0.00  0.00    +0.440 HD
ENDBRANCH  35  36
BRANCH  39  40
ATOM     40  O   UNL     1      39.961  22.042  18.267  0.00  0.00    -0.496 OA
ATOM     41  H   UNL     1      38.886  21.828  18.169  0.00  0.00    +0.445 HD
ENDBRANCH  39  40
ENDBRANCH  30  31
ENDBRANCH   4   3
ENDBRANCH   5   4
TORSDOF 9
ENDMDL
MODEL 2
REMARK VINA RESULT:      -7.8      2.484      5.538
REMARK  Name = ZINC28462577
REMARK  9 active torsions:
REMARK  status: ('A' for Active; 'I' for Inactive)
REMARK    1  A    between atoms: C3_3  and  O5_20
REMARK    2  A    between atoms: C6_6  and  C7_7
REMARK    3  A    between atoms: C11_12  and  O4_19
REMARK    4  A    between atoms: C13_14  and  O3_18
REMARK    5  A    between atoms: O5_20  and  C16_21
REMARK    6  A    between atoms: C18_23  and  C22_28
REMARK    7  A    between atoms: C21_26  and  O6_27
REMARK    8  A    between atoms: C26_33  and  O10_40
REMARK    9  A    between atoms: C28_35  and  O9_39
REMARK                            x       y       z     vdW  Elec       q    Type
REMARK                         _______ _______ _______ _____ _____    ______ ____
ROOT
ATOM      5  C   UNL     1      47.698  13.977  21.333  0.00  0.00    +0.029 A 
ATOM      6  C   UNL     1      48.304  14.795  20.399  0.00  0.00    +0.110 A 
ATOM      7  C   UNL     1      49.445  14.354  19.723  0.00  0.00    -0.102 A 
ATOM     23  C   UNL     1      49.961  13.082  19.989  0.00  0.00    +0.116 A 
ATOM     24  C   UNL     1      49.349  12.269  20.916  0.00  0.00    -0.057 A 
ATOM     25  C   UNL     1      48.218  12.710  21.592  0.00  0.00    +0.184 A 
ENDROOT
BRANCH   7   8
ATOM      8  C   UNL     1      50.099  15.226  18.729  0.00  0.00    +0.204 A 
ATOM      9  C   UNL     1      50.721  14.651  17.665  0.00  0.00    -0.144 A 
ATOM     10  C   UNL     1      51.355  15.472  16.701  0.00  0.00    +0.426 A 
ATOM     11  C   UNL     1      51.301  16.929  16.911  0.00  0.00    -0.308 A 
ATOM     12  C   UNL     1      51.899  17.815  16.007  0.00  0.00    +0.286 A 
ATOM     15  C   UNL     1      51.827  19.176  16.241  0.00  0.00    -0.149 A 
ATOM     16  C   UNL     1      51.164  19.659  17.364  0.00  0.00    +0.262 A 
ATOM     19  C   UNL     1      50.569  18.786  18.262  0.00  0.00    -0.138 A 
ATOM     20  C   UNL     1      50.631  17.418  18.045  0.00  0.00    +0.228 A 
ATOM     21  O   UNL     1      51.922  14.991  15.734  0.00  0.00    -0.457 OA
ATOM     22  O   UNL     1      50.053  16.555  18.907  0.00  0.00    -0.220 OA
BRANCH  12  13
ATOM     13  O   UNL     1      52.546  17.343  14.912  0.00  0.00    -0.467 OA
ATOM     14  H   UNL     1      53.646  17.360  14.873  0.00  0.00    +0.440 HD
ENDBRANCH  12  13
BRANCH  16  17
ATOM     17  O   UNL     1      51.098  20.997  17.583  0.00  0.00    -0.495 OA
ATOM     18  H   UNL     1      51.830  21.669  17.112  0.00  0.00    +0.445 HD
ENDBRANCH  16  17
ENDBRANCH   7   8
BRANCH  25  26
ATOM     26  O   UNL     1      47.618  11.904  22.505  0.00  0.00    -0.489 OA
ATOM     27  H   UNL     1      47.363  12.295  23.502  0.00  0.00    +0.444 HD
ENDBRANCH  25  26
BRANCH   5   4
ATOM      4  O   UNL     1      46.589  14.404  21.995  0.00  0.00    -0.236 OA
BRANCH   4   3
ATOM      1  C   UNL     1      44.840  16.780  19.873  0.00  0.00    +0.101 A 
ATOM      2  C   UNL     1      45.444  15.620  20.302  0.00  0.00    -0.061 A 
ATOM      3  C   UNL     1      45.999  15.552  21.574  0.00  0.00    +0.153 A 
ATOM     28  C   UNL     1      45.952  16.656  22.418  0.00  0.00    -0.005 A 
ATOM     29  C   UNL     1      45.355  17.823  21.995  0.00  0.00    +0.104 A 
ATOM     30  C   UNL     1      44.795  17.895  20.716  0.00  0.00    -0.107 A 
BRANCH  30  31
ATOM     31  C   UNL     1      44.154  19.143  20.258  0.00  0.00    +0.206 A 
ATOM     32  C   UNL     1      44.846  20.309  20.358  0.00  0.00    -0.152 A 
ATOM     33  C   UNL     1      44.246  21.515  19.924  0.00  0.00    +0.426 A 
ATOM     34  C   UNL     1      42.880  21.435  19.379  0.00  0.00    -0.308 A 
ATOM     35  C   UNL     1      42.210  22.578  18.926  0.00  0.00    +0.286 A 
ATOM     38  C   UNL     1      40.928  22.461  18.421  0.00  0.00    -0.150 A 
ATOM     39  C   UNL     1      40.311  21.215  18.364  0.00  0.00    +0.261 A 
ATOM     42  C   UNL     1      40.968  20.080  18.811  0.00  0.00    -0.139 A 
ATOM     43  C   UNL     1      42.254  20.179  19.321  0.00  0.00    +0.228 A 
ATOM     44  O   UNL     1      44.838  22.580  20.000  0.00  0.00    -0.459 OA
ATOM     45  O   UNL     1      42.909  19.082  19.759  0.00  0.00    -0.220 OA
BRANCH  35  36
ATOM     36  O   UNL     1      42.814  23.792  18.982  0.00  0.00    -0.467 OA
ATOM     37  H   UNL     1      42.406  24.636  18.407  0.00  0.00    +0.440 HD
ENDBRANCH  35  36
BRANCH  39  40
ATOM     40  O   UNL     1      39.053  21.112  17.866  0.00  0.00    -0.496 OA
ATOM     41  H   UNL     1      38.588  20.121  17.748  0.00  0.00    +0.445 HD
ENDBRANCH  39  40
ENDBRANCH  30  31
ENDBRANCH   4   3
ENDBRANCH   5   4
TORSDOF 9
ENDMDL
MODEL 3
REMARK VINA RESULT:      -7.6      1.883      2.520
REMARK  Name = ZINC28462577
REMARK  9 active torsions:
REMARK  status: ('A' for Active; 'I' for Inactive)
REMARK    1  A    between atoms: C3_3  and  O5_20
REMARK    2  A    between atoms: C6_6  and  C7_7
REMARK    3  A    between atoms: C11_12  and  O4_19
REMARK    4  A    between atoms: C13_14  and  O3_18
REMARK    5  A    between atoms: O5_20  and  C16_21
REMARK    6  A    between atoms: C18_23  and  C22_28
REMARK    7  A    between atoms: C21_26  and  O6_27
REMARK    8  A    between atoms: C26_33  and  O10_40
REMARK    9  A    between atoms: C28_35  and  O9_39
REMARK                            x       y       z     vdW  Elec       q    Type
REMARK                         _______ _______ _______ _____ _____    ______ ____
ROOT
ATOM      5  C   UNL     1      50.993  18.374  18.360  0.00  0.00    +0.029 A 
ATOM      6  C   UNL     1      50.524  17.317  17.605  0.00  0.00    +0.110 A 
ATOM      7  C   UNL     1      51.210  16.100  17.608  0.00  0.00    -0.102 A 
ATOM     23  C   UNL     1      52.365  15.955  18.383  0.00  0.00    +0.116 A 
ATOM     24  C   UNL     1      52.825  17.012  19.139  0.00  0.00    -0.057 A 
ATOM     25  C   UNL     1      52.145  18.222  19.132  0.00  0.00    +0.184 A 
ENDROOT
BRANCH   7   8
ATOM      8  C   UNL     1      50.716  14.970  16.799  0.00  0.00    +0.204 A 
ATOM      9  C   UNL     1      51.575  14.355  15.942  0.00  0.00    -0.144 A 
ATOM     10  C   UNL     1      51.118  13.268  15.158  0.00  0.00    +0.426 A 
ATOM     11  C   UNL     1      49.713  12.859  15.320  0.00  0.00    -0.308 A 
ATOM     12  C   UNL     1      49.177  11.793  14.586  0.00  0.00    +0.286 A 
ATOM     15  C   UNL     1      47.853  11.440  14.767  0.00  0.00    -0.149 A 
ATOM     16  C   UNL     1      47.061  12.138  15.673  0.00  0.00    +0.262 A 
ATOM     19  C   UNL     1      47.586  13.192  16.403  0.00  0.00    -0.138 A 
ATOM     20  C   UNL     1      48.911  13.562  16.235  0.00  0.00    +0.228 A 
ATOM     21  O   UNL     1      51.860  12.694  14.378  0.00  0.00    -0.457 OA
ATOM     22  O   UNL     1      49.439  14.584  16.942  0.00  0.00    -0.220 OA
BRANCH  12  13
ATOM     13  O   UNL     1      49.951  11.114  13.702  0.00  0.00    -0.467 OA
ATOM     14  H   UNL     1      49.488  10.416  12.989  0.00  0.00    +0.440 HD
ENDBRANCH  12  13
BRANCH  16  17
ATOM     17  O   UNL     1      45.762  11.782  15.844  0.00  0.00    -0.495 OA
ATOM     18  H   UNL     1      45.015  12.040  15.079  0.00  0.00    +0.445 HD
ENDBRANCH  16  17
ENDBRANCH   7   8
BRANCH  25  26
ATOM     26  O   UNL     1      52.603  19.261  19.878  0.00  0.00    -0.489 OA
ATOM     27  H   UNL     1      52.863  20.214  19.395  0.00  0.00    +0.444 HD
ENDBRANCH  25  26
BRANCH   5   4
ATOM      4  O   UNL     1      50.330  19.561  18.357  0.00  0.00    -0.236 OA
BRANCH   4   3
ATOM      1  C   UNL     1      47.046  20.739  19.379  0.00  0.00    +0.101 A 
ATOM      2  C   UNL     1      48.383  20.740  19.048  0.00  0.00    -0.061 A 
ATOM      3  C   UNL     1      49.013  19.555  18.688  0.00  0.00    +0.153 A 
ATOM     28  C   UNL     1      48.299  18.362  18.665  0.00  0.00    -0.005 A 
ATOM     29  C   UNL     1      46.964  18.351  19.001  0.00  0.00    +0.104 A 
ATOM     30  C   UNL     1      46.326  19.541  19.363  0.00  0.00    -0.107 A 
BRANCH  30  31
ATOM     31  C   UNL     1      44.895  19.534  19.723  0.00  0.00    +0.206 A 
ATOM     32  C   UNL     1      44.489  18.778  20.778  0.00  0.00    -0.152 A 
ATOM     33  C   UNL     1      43.120  18.760  21.137  0.00  0.00    +0.426 A 
ATOM     34  C   UNL     1      42.197  19.576  20.331  0.00  0.00    -0.308 A 
ATOM     35  C   UNL     1      40.826  19.618  20.614  0.00  0.00    +0.286 A 
ATOM     38  C   UNL     1      39.992  20.396  19.833  0.00  0.00    -0.150 A 
ATOM     39  C   UNL     1      40.514  21.133  18.775  0.00  0.00    +0.261 A 
ATOM     42  C   UNL     1      41.869  21.096  18.488  0.00  0.00    -0.139 A 
ATOM     43  C   UNL     1      42.720  20.320  19.260  0.00  0.00    +0.228 A 
ATOM     44  O   UNL     1      42.721  18.092  22.077  0.00  0.00    -0.459 OA
ATOM     45  O   UNL     1      44.044  20.275  18.996  0.00  0.00    -0.220 OA
BRANCH  35  36
ATOM     36  O   UNL     1      40.320  18.899  21.648  0.00  0.00    -0.467 OA
ATOM     37  H   UNL     1      40.967  18.620  22.493  0.00  0.00    +0.440 HD
ENDBRANCH  35  36
BRANCH  39  40
ATOM     40  O   UNL     1      39.686  21.895  18.015  0.00  0.00    -0.496 OA
ATOM     41  H   UNL     1      39.600  22.974  18.210  0.00  0.00    +0.445 HD
ENDBRANCH  39  40
ENDBRANCH  30  31
ENDBRANCH   4   3
ENDBRANCH   5   4
TORSDOF 9
ENDMDL
MODEL 4
REMARK VINA RESULT:      -7.5      2.271     10.294
REMARK  Name = ZINC28462577
REMARK  9 active torsions:
REMARK  status: ('A' for Active; 'I' for Inactive)
REMARK    1  A    between atoms: C3_3  and  O5_20
REMARK    2  A    between atoms: C6_6  and  C7_7
REMARK    3  A    between atoms: C11_12  and  O4_19
REMARK    4  A    between atoms: C13_14  and  O3_18
REMARK    5  A    between atoms: O5_20  and  C16_21
REMARK    6  A    between atoms: C18_23  and  C22_28
REMARK    7  A    between atoms: C21_26  and  O6_27
REMARK    8  A    between atoms: C26_33  and  O10_40
REMARK    9  A    between atoms: C28_35  and  O9_39
REMARK                            x       y       z     vdW  Elec       q    Type
REMARK                         _______ _______ _______ _____ _____    ______ ____
ROOT
ATOM      5  C   UNL     1      49.818  20.512  20.287  0.00  0.00    +0.029 A 
ATOM      6  C   UNL     1      48.532  20.770  19.855  0.00  0.00    +0.110 A 
ATOM      7  C   UNL     1      47.582  21.265  20.752  0.00  0.00    -0.102 A 
ATOM     23  C   UNL     1      47.941  21.506  22.082  0.00  0.00    +0.116 A 
ATOM     24  C   UNL     1      49.227  21.253  22.505  0.00  0.00    -0.057 A 
ATOM     25  C   UNL     1      50.170  20.757  21.614  0.00  0.00    +0.184 A 
ENDROOT
BRANCH   7   8
ATOM      8  C   UNL     1      46.205  21.535  20.297  0.00  0.00    +0.204 A 
ATOM      9  C   UNL     1      45.892  22.788  19.870  0.00  0.00    -0.144 A 
ATOM     10  C   UNL     1      44.576  23.067  19.430  0.00  0.00    +0.426 A 
ATOM     11  C   UNL     1      43.604  21.961  19.459  0.00  0.00    -0.308 A 
ATOM     12  C   UNL     1      42.280  22.147  19.041  0.00  0.00    +0.286 A 
ATOM     15  C   UNL     1      41.398  21.083  19.084  0.00  0.00    -0.149 A 
ATOM     16  C   UNL     1      41.823  19.840  19.541  0.00  0.00    +0.262 A 
ATOM     19  C   UNL     1      43.132  19.650  19.955  0.00  0.00    -0.138 A 
ATOM     20  C   UNL     1      44.031  20.704  19.919  0.00  0.00    +0.228 A 
ATOM     21  O   UNL     1      44.260  24.179  19.040  0.00  0.00    -0.457 OA
ATOM     22  O   UNL     1      45.311  20.535  20.315  0.00  0.00    -0.220 OA
BRANCH  12  13
ATOM     13  O   UNL     1      41.867  23.360  18.597  0.00  0.00    -0.467 OA
ATOM     14  H   UNL     1      41.843  23.571  17.517  0.00  0.00    +0.440 HD
ENDBRANCH  12  13
BRANCH  16  17
ATOM     17  O   UNL     1      40.949  18.802  19.579  0.00  0.00    -0.495 OA
ATOM     18  H   UNL     1      41.086  17.993  20.312  0.00  0.00    +0.445 HD
ENDBRANCH  16  17
ENDBRANCH   7   8
BRANCH  25  26
ATOM     26  O   UNL     1      51.437  20.509  22.037  0.00  0.00    -0.489 OA
ATOM     27  H   UNL     1      51.962  19.603  21.702  0.00  0.00    +0.444 HD
ENDBRANCH  25  26
BRANCH   5   4
ATOM      4  O   UNL     1      50.745  20.028  19.418  0.00  0.00    -0.236 OA
BRANCH   4   3
ATOM      1  C   UNL     1      50.296  17.560  16.787  0.00  0.00    +0.101 A 
ATOM      2  C   UNL     1      50.557  18.757  17.417  0.00  0.00    -0.061 A 
ATOM      3  C   UNL     1      50.483  18.847  18.801  0.00  0.00    +0.153 A 
ATOM     28  C   UNL     1      50.142  17.732  19.558  0.00  0.00    -0.005 A 
ATOM     29  C   UNL     1      49.874  16.532  18.936  0.00  0.00    +0.104 A 
ATOM     30  C   UNL     1      49.946  16.437  17.543  0.00  0.00    -0.107 A 
BRANCH  30  31
ATOM     31  C   UNL     1      49.661  15.154  16.873  0.00  0.00    +0.206 A 
ATOM     32  C   UNL     1      48.382  14.692  16.861  0.00  0.00    -0.152 A 
ATOM     33  C   UNL     1      48.090  13.463  16.223  0.00  0.00    +0.426 A 
ATOM     34  C   UNL     1      49.211  12.742  15.596  0.00  0.00    -0.308 A 
ATOM     35  C   UNL     1      49.014  11.519  14.943  0.00  0.00    +0.286 A 
ATOM     38  C   UNL     1      50.093  10.873  14.367  0.00  0.00    -0.150 A 
ATOM     39  C   UNL     1      51.363  11.437  14.437  0.00  0.00    +0.261 A 
ATOM     42  C   UNL     1      51.565  12.646  15.083  0.00  0.00    -0.139 A 
ATOM     43  C   UNL     1      50.495  13.308  15.667  0.00  0.00    +0.228 A 
ATOM     44  O   UNL     1      46.954  13.019  16.195  0.00  0.00    -0.459 OA
ATOM     45  O   UNL     1      50.675  14.488  16.297  0.00  0.00    -0.220 OA
BRANCH  35  36
ATOM     36  O   UNL     1      47.774  10.972  14.875  0.00  0.00    -0.467 OA
ATOM     37  H   UNL     1      47.046  11.350  14.141  0.00  0.00    +0.440 HD
ENDBRANCH  35  36
BRANCH  39  40
ATOM     40  O   UNL     1      52.414  10.794  13.868  0.00  0.00    -0.496 OA
ATOM     41  H   UNL     1      52.476  10.705  12.773  0.00  0.00    +0.445 HD
ENDBRANCH  39  40
ENDBRANCH  30  31
ENDBRANCH   4   3
ENDBRANCH   5   4
TORSDOF 9
ENDMDL
MODEL 5
REMARK VINA RESULT:      -7.4      2.445     10.030
REMARK  Name = ZINC28462577
REMARK  9 active torsions:
REMARK  status: ('A' for Active; 'I' for Inactive)
REMARK    1  A    between atoms: C3_3  and  O5_20
REMARK    2  A    between atoms: C6_6  and  C7_7
REMARK    3  A    between atoms: C11_12  and  O4_19
REMARK    4  A    between atoms: C13_14  and  O3_18
REMARK    5  A    between atoms: O5_20  and  C16_21
REMARK    6  A    between atoms: C18_23  and  C22_28
REMARK    7  A    between atoms: C21_26  and  O6_27
REMARK    8  A    between atoms: C26_33  and  O10_40
REMARK    9  A    between atoms: C28_35  and  O9_39
REMARK                            x       y       z     vdW  Elec       q    Type
REMARK                         _______ _______ _______ _____ _____    ______ ____
ROOT
ATOM      5  C   UNL     1      49.808  20.573  20.266  0.00  0.00    +0.029 A 
ATOM      6  C   UNL     1      48.515  20.802  19.837  0.00  0.00    +0.110 A 
ATOM      7  C   UNL     1      47.545  21.233  20.747  0.00  0.00    -0.102 A 
ATOM     23  C   UNL     1      47.892  21.440  22.086  0.00  0.00    +0.116 A 
ATOM     24  C   UNL     1      49.185  21.215  22.505  0.00  0.00    -0.057 A 
ATOM     25  C   UNL     1      50.147  20.782  21.602  0.00  0.00    +0.184 A 
ENDROOT
BRANCH   7   8
ATOM      8  C   UNL     1      46.162  21.473  20.296  0.00  0.00    +0.204 A 
ATOM      9  C   UNL     1      45.823  22.715  19.858  0.00  0.00    -0.144 A 
ATOM     10  C   UNL     1      44.500  22.964  19.421  0.00  0.00    +0.426 A 
ATOM     11  C   UNL     1      43.549  21.840  19.465  0.00  0.00    -0.308 A 
ATOM     12  C   UNL     1      42.221  21.997  19.051  0.00  0.00    +0.286 A 
ATOM     15  C   UNL     1      41.359  20.917  19.109  0.00  0.00    -0.149 A 
ATOM     16  C   UNL     1      41.810  19.687  19.575  0.00  0.00    +0.262 A 
ATOM     19  C   UNL     1      43.124  19.526  19.986  0.00  0.00    -0.138 A 
ATOM     20  C   UNL     1      44.003  20.596  19.935  0.00  0.00    +0.228 A 
ATOM     21  O   UNL     1      44.161  24.066  19.022  0.00  0.00    -0.457 OA
ATOM     22  O   UNL     1      45.287  20.455  20.327  0.00  0.00    -0.220 OA
BRANCH  12  13
ATOM     13  O   UNL     1      41.782  23.198  18.597  0.00  0.00    -0.467 OA
ATOM     14  H   UNL     1      40.719  23.337  18.350  0.00  0.00    +0.440 HD
ENDBRANCH  12  13
BRANCH  16  17
ATOM     17  O   UNL     1      40.955  18.632  19.627  0.00  0.00    -0.495 OA
ATOM     18  H   UNL     1      39.982  18.737  20.130  0.00  0.00    +0.445 HD
ENDBRANCH  16  17
ENDBRANCH   7   8
BRANCH  25  26
ATOM     26  O   UNL     1      51.420  20.563  22.022  0.00  0.00    -0.489 OA
ATOM     27  H   UNL     1      51.603  20.060  22.983  0.00  0.00    +0.444 HD
ENDBRANCH  25  26
BRANCH   5   4
ATOM      4  O   UNL     1      50.753  20.150  19.384  0.00  0.00    -0.236 OA
BRANCH   4   3
ATOM      1  C   UNL     1      50.434  17.616  16.798  0.00  0.00    +0.101 A 
ATOM      2  C   UNL     1      50.610  18.840  17.404  0.00  0.00    -0.061 A 
ATOM      3  C   UNL     1      50.574  18.942  18.790  0.00  0.00    +0.153 A 
ATOM     28  C   UNL     1      50.357  17.812  19.569  0.00  0.00    -0.005 A 
ATOM     29  C   UNL     1      50.174  16.586  18.971  0.00  0.00    +0.104 A 
ATOM     30  C   UNL     1      50.208  16.478  17.577  0.00  0.00    -0.107 A 
BRANCH  30  31
ATOM     31  C   UNL     1      50.014  15.166  16.931  0.00  0.00    +0.206 A 
ATOM     32  C   UNL     1      51.102  14.502  16.459  0.00  0.00    -0.152 A 
ATOM     33  C   UNL     1      50.935  13.242  15.836  0.00  0.00    +0.426 A 
ATOM     34  C   UNL     1      49.564  12.714  15.733  0.00  0.00    -0.308 A 
ATOM     35  C   UNL     1      49.305  11.475  15.133  0.00  0.00    +0.286 A 
ATOM     38  C   UNL     1      48.004  11.014  15.056  0.00  0.00    -0.150 A 
ATOM     39  C   UNL     1      46.961  11.776  15.574  0.00  0.00    +0.261 A 
ATOM     42  C   UNL     1      47.210  13.003  16.169  0.00  0.00    -0.139 A 
ATOM     43  C   UNL     1      48.509  13.482  16.254  0.00  0.00    +0.228 A 
ATOM     44  O   UNL     1      51.889  12.620  15.399  0.00  0.00    -0.459 OA
ATOM     45  O   UNL     1      48.769  14.674  16.833  0.00  0.00    -0.220 OA
BRANCH  35  36
ATOM     36  O   UNL     1      50.323  10.734  14.630  0.00  0.00    -0.467 OA
ATOM     37  H   UNL     1      51.032  11.184  13.919  0.00  0.00    +0.440 HD
ENDBRANCH  35  36
BRANCH  39  40
ATOM     40  O   UNL     1      45.688  11.314  15.495  0.00  0.00    -0.496 OA
ATOM     41  H   UNL     1      44.992  11.744  14.759  0.00  0.00    +0.445 HD
ENDBRANCH  39  40
ENDBRANCH  30  31
ENDBRANCH   4   3
ENDBRANCH   5   4
TORSDOF 9
ENDMDL
MODEL 6
REMARK VINA RESULT:      -7.4      3.332      5.395
REMARK  Name = ZINC28462577
REMARK  9 active torsions:
REMARK  status: ('A' for Active; 'I' for Inactive)
REMARK    1  A    between atoms: C3_3  and  O5_20
REMARK    2  A    between atoms: C6_6  and  C7_7
REMARK    3  A    between atoms: C11_12  and  O4_19
REMARK    4  A    between atoms: C13_14  and  O3_18
REMARK    5  A    between atoms: O5_20  and  C16_21
REMARK    6  A    between atoms: C18_23  and  C22_28
REMARK    7  A    between atoms: C21_26  and  O6_27
REMARK    8  A    between atoms: C26_33  and  O10_40
REMARK    9  A    between atoms: C28_35  and  O9_39
REMARK                            x       y       z     vdW  Elec       q    Type
REMARK                         _______ _______ _______ _____ _____    ______ ____
ROOT
ATOM      5  C   UNL     1      47.996  13.620  17.089  0.00  0.00    +0.029 A 
ATOM      6  C   UNL     1      49.132  13.885  17.828  0.00  0.00    +0.110 A 
ATOM      7  C   UNL     1      50.393  13.708  17.254  0.00  0.00    -0.102 A 
ATOM     23  C   UNL     1      50.499  13.272  15.930  0.00  0.00    +0.116 A 
ATOM     24  C   UNL     1      49.362  13.014  15.196  0.00  0.00    -0.057 A 
ATOM     25  C   UNL     1      48.109  13.186  15.769  0.00  0.00    +0.184 A 
ENDROOT
BRANCH   7   8
ATOM      8  C   UNL     1      51.610  13.985  18.042  0.00  0.00    +0.204 A 
ATOM      9  C   UNL     1      51.898  15.273  18.368  0.00  0.00    -0.144 A 
ATOM     10  C   UNL     1      53.061  15.558  19.123  0.00  0.00    +0.426 A 
ATOM     11  C   UNL     1      53.907  14.419  19.520  0.00  0.00    -0.308 A 
ATOM     12  C   UNL     1      55.075  14.609  20.268  0.00  0.00    +0.286 A 
ATOM     15  C   UNL     1      55.842  13.513  20.621  0.00  0.00    -0.149 A 
ATOM     16  C   UNL     1      55.455  12.235  20.233  0.00  0.00    +0.262 A 
ATOM     19  C   UNL     1      54.299  12.041  19.493  0.00  0.00    -0.138 A 
ATOM     20  C   UNL     1      53.517  13.126  19.130  0.00  0.00    +0.228 A 
ATOM     21  O   UNL     1      53.351  16.702  19.434  0.00  0.00    -0.457 OA
ATOM     22  O   UNL     1      52.386  12.955  18.413  0.00  0.00    -0.220 OA
BRANCH  12  13
ATOM     13  O   UNL     1      55.452  15.856  20.645  0.00  0.00    -0.467 OA
ATOM     14  H   UNL     1      56.441  16.018  21.098  0.00  0.00    +0.440 HD
ENDBRANCH  12  13
BRANCH  16  17
ATOM     17  O   UNL     1      56.215  11.166  20.585  0.00  0.00    -0.495 OA
ATOM     18  H   UNL     1      56.923  11.246  21.423  0.00  0.00    +0.445 HD
ENDBRANCH  16  17
ENDBRANCH   7   8
BRANCH  25  26
ATOM     26  O   UNL     1      46.991  12.931  15.040  0.00  0.00    -0.489 OA
ATOM     27  H   UNL     1      46.149  12.389  15.496  0.00  0.00    +0.444 HD
ENDBRANCH  25  26
BRANCH   5   4
ATOM      4  O   UNL     1      46.766  13.787  17.645  0.00  0.00    -0.236 OA
BRANCH   4   3
ATOM      1  C   UNL     1      45.477  16.516  19.672  0.00  0.00    +0.101 A 
ATOM      2  C   UNL     1      45.839  15.247  19.279  0.00  0.00    -0.061 A 
ATOM      3  C   UNL     1      46.406  15.040  18.027  0.00  0.00    +0.153 A 
ATOM     28  C   UNL     1      46.605  16.111  17.164  0.00  0.00    -0.005 A 
ATOM     29  C   UNL     1      46.241  17.382  17.546  0.00  0.00    +0.104 A 
ATOM     30  C   UNL     1      45.670  17.595  18.805  0.00  0.00    -0.107 A 
BRANCH  30  31
ATOM     31  C   UNL     1      45.278  18.956  19.220  0.00  0.00    +0.206 A 
ATOM     32  C   UNL     1      44.059  19.428  18.847  0.00  0.00    -0.152 A 
ATOM     33  C   UNL     1      43.667  20.731  19.235  0.00  0.00    +0.426 A 
ATOM     34  C   UNL     1      44.621  21.515  20.038  0.00  0.00    -0.308 A 
ATOM     35  C   UNL     1      44.316  22.813  20.467  0.00  0.00    +0.286 A 
ATOM     38  C   UNL     1      45.240  23.516  21.218  0.00  0.00    -0.150 A 
ATOM     39  C   UNL     1      46.461  22.936  21.546  0.00  0.00    +0.261 A 
ATOM     42  C   UNL     1      46.769  21.652  21.124  0.00  0.00    -0.139 A 
ATOM     43  C   UNL     1      45.856  20.932  20.369  0.00  0.00    +0.228 A 
ATOM     44  O   UNL     1      42.581  21.187  18.917  0.00  0.00    -0.459 OA
ATOM     45  O   UNL     1      46.140  19.680  19.952  0.00  0.00    -0.220 OA
BRANCH  35  36
ATOM     36  O   UNL     1      43.124  23.376  20.147  0.00  0.00    -0.467 OA
ATOM     37  H   UNL     1      43.084  24.205  19.424  0.00  0.00    +0.440 HD
ENDBRANCH  35  36
BRANCH  39  40
ATOM     40  O   UNL     1      47.359  23.635  22.285  0.00  0.00    -0.496 OA
ATOM     41  H   UNL     1      47.512  23.384  23.345  0.00  0.00    +0.445 HD
ENDBRANCH  39  40
ENDBRANCH  30  31
ENDBRANCH   4   3
ENDBRANCH   5   4
TORSDOF 9
ENDMDL
MODEL 7
REMARK VINA RESULT:      -7.3      2.161     10.161
REMARK  Name = ZINC28462577
REMARK  9 active torsions:
REMARK  status: ('A' for Active; 'I' for Inactive)
REMARK    1  A    between atoms: C3_3  and  O5_20
REMARK    2  A    between atoms: C6_6  and  C7_7
REMARK    3  A    between atoms: C11_12  and  O4_19
REMARK    4  A    between atoms: C13_14  and  O3_18
REMARK    5  A    between atoms: O5_20  and  C16_21
REMARK    6  A    between atoms: C18_23  and  C22_28
REMARK    7  A    between atoms: C21_26  and  O6_27
REMARK    8  A    between atoms: C26_33  and  O10_40
REMARK    9  A    between atoms: C28_35  and  O9_39
REMARK                            x       y       z     vdW  Elec       q    Type
REMARK                         _______ _______ _______ _____ _____    ______ ____
ROOT
ATOM      5  C   UNL     1      50.699  20.181  20.409  0.00  0.00    +0.029 A 
ATOM      6  C   UNL     1      49.361  20.100  20.076  0.00  0.00    +0.110 A 
ATOM      7  C   UNL     1      48.399  20.670  20.914  0.00  0.00    -0.102 A 
ATOM     23  C   UNL     1      48.797  21.329  22.081  0.00  0.00    +0.116 A 
ATOM     24  C   UNL     1      50.133  21.411  22.404  0.00  0.00    -0.057 A 
ATOM     25  C   UNL     1      51.089  20.841  21.574  0.00  0.00    +0.184 A 
ENDROOT
BRANCH   7   8
ATOM      8  C   UNL     1      46.968  20.582  20.566  0.00  0.00    +0.204 A 
ATOM      9  C   UNL     1      46.362  19.364  20.596  0.00  0.00    -0.144 A 
ATOM     10  C   UNL     1      44.990  19.260  20.265  0.00  0.00    +0.426 A 
ATOM     11  C   UNL     1      44.284  20.501  19.901  0.00  0.00    -0.308 A 
ATOM     12  C   UNL     1      42.926  20.490  19.561  0.00  0.00    +0.286 A 
ATOM     15  C   UNL     1      42.300  21.677  19.225  0.00  0.00    -0.149 A 
ATOM     16  C   UNL     1      43.016  22.869  19.225  0.00  0.00    +0.262 A 
ATOM     19  C   UNL     1      44.360  22.886  19.562  0.00  0.00    -0.138 A 
ATOM     20  C   UNL     1      45.005  21.707  19.902  0.00  0.00    +0.228 A 
ATOM     21  O   UNL     1      44.414  18.184  20.281  0.00  0.00    -0.457 OA
ATOM     22  O   UNL     1      46.313  21.706  20.237  0.00  0.00    -0.220 OA
BRANCH  12  13
ATOM     13  O   UNL     1      42.230  19.326  19.560  0.00  0.00    -0.467 OA
ATOM     14  H   UNL     1      41.159  19.326  19.306  0.00  0.00    +0.440 HD
ENDBRANCH  12  13
BRANCH  16  17
ATOM     17  O   UNL     1      42.391  24.029  18.895  0.00  0.00    -0.495 OA
ATOM     18  H   UNL     1      41.409  24.004  18.401  0.00  0.00    +0.445 HD
ENDBRANCH  16  17
ENDBRANCH   7   8
BRANCH  25  26
ATOM     26  O   UNL     1      52.405  20.925  21.898  0.00  0.00    -0.489 OA
ATOM     27  H   UNL     1      52.851  21.901  22.137  0.00  0.00    +0.444 HD
ENDBRANCH  25  26
BRANCH   5   4
ATOM      4  O   UNL     1      51.638  19.624  19.597  0.00  0.00    -0.236 OA
BRANCH   4   3
ATOM      1  C   UNL     1      50.835  17.376  16.856  0.00  0.00    +0.101 A 
ATOM      2  C   UNL     1      51.165  18.523  17.543  0.00  0.00    -0.061 A 
ATOM      3  C   UNL     1      51.307  18.492  18.925  0.00  0.00    +0.153 A 
ATOM     28  C   UNL     1      51.113  17.305  19.621  0.00  0.00    -0.005 A 
ATOM     29  C   UNL     1      50.776  16.154  18.944  0.00  0.00    +0.104 A 
ATOM     30  C   UNL     1      50.632  16.181  17.553  0.00  0.00    -0.107 A 
BRANCH  30  31
ATOM     31  C   UNL     1      50.273  14.951  16.823  0.00  0.00    +0.206 A 
ATOM     32  C   UNL     1      48.959  14.621  16.703  0.00  0.00    -0.152 A 
ATOM     33  C   UNL     1      48.596  13.444  16.006  0.00  0.00    +0.426 A 
ATOM     34  C   UNL     1      49.684  12.630  15.439  0.00  0.00    -0.308 A 
ATOM     35  C   UNL     1      49.417  11.450  14.733  0.00  0.00    +0.286 A 
ATOM     38  C   UNL     1      50.467  10.713  14.216  0.00  0.00    -0.150 A 
ATOM     39  C   UNL     1      51.778  11.143  14.396  0.00  0.00    +0.261 A 
ATOM     42  C   UNL     1      52.049  12.309  15.095  0.00  0.00    -0.139 A 
ATOM     43  C   UNL     1      51.009  13.061  15.620  0.00  0.00    +0.228 A 
ATOM     44  O   UNL     1      47.427  13.117  15.881  0.00  0.00    -0.459 OA
ATOM     45  O   UNL     1      51.256  14.201  16.301  0.00  0.00    -0.220 OA
BRANCH  35  36
ATOM     36  O   UNL     1      48.138  11.033  14.558  0.00  0.00    -0.467 OA
ATOM     37  H   UNL     1      47.539  11.431  13.725  0.00  0.00    +0.440 HD
ENDBRANCH  35  36
BRANCH  39  40
ATOM     40  O   UNL     1      52.800  10.413  13.884  0.00  0.00    -0.496 OA
ATOM     41  H   UNL     1      52.731   9.315  13.854  0.00  0.00    +0.445 HD
ENDBRANCH  39  40
ENDBRANCH  30  31
ENDBRANCH   4   3
ENDBRANCH   5   4
TORSDOF 9
ENDMDL
MODEL 8
REMARK VINA RESULT:      -7.3      3.093      5.296
REMARK  Name = ZINC28462577
REMARK  9 active torsions:
REMARK  status: ('A' for Active; 'I' for Inactive)
REMARK    1  A    between atoms: C3_3  and  O5_20
REMARK    2  A    between atoms: C6_6  and  C7_7
REMARK    3  A    between atoms: C11_12  and  O4_19
REMARK    4  A    between atoms: C13_14  and  O3_18
REMARK    5  A    between atoms: O5_20  and  C16_21
REMARK    6  A    between atoms: C18_23  and  C22_28
REMARK    7  A    between atoms: C21_26  and  O6_27
REMARK    8  A    between atoms: C26_33  and  O10_40
REMARK    9  A    between atoms: C28_35  and  O9_39
REMARK                            x       y       z     vdW  Elec       q    Type
REMARK                         _______ _______ _______ _____ _____    ______ ____
ROOT
ATOM      5  C   UNL     1      47.371  13.069  18.674  0.00  0.00    +0.029 A 
ATOM      6  C   UNL     1      48.629  13.535  19.003  0.00  0.00    +0.110 A 
ATOM      7  C   UNL     1      49.731  13.172  18.225  0.00  0.00    -0.102 A 
ATOM     23  C   UNL     1      49.554  12.345  17.112  0.00  0.00    +0.116 A 
ATOM     24  C   UNL     1      48.296  11.888  16.786  0.00  0.00    -0.057 A 
ATOM     25  C   UNL     1      47.201  12.245  17.562  0.00  0.00    +0.184 A 
ENDROOT
BRANCH   7   8
ATOM      8  C   UNL     1      51.078  13.662  18.575  0.00  0.00    +0.204 A 
ATOM      9  C   UNL     1      51.316  15.001  18.537  0.00  0.00    -0.144 A 
ATOM     10  C   UNL     1      52.602  15.491  18.870  0.00  0.00    +0.426 A 
ATOM     11  C   UNL     1      53.627  14.501  19.245  0.00  0.00    -0.308 A 
ATOM     12  C   UNL     1      54.925  14.897  19.590  0.00  0.00    +0.286 A 
ATOM     15  C   UNL     1      55.858  13.937  19.937  0.00  0.00    -0.149 A 
ATOM     16  C   UNL     1      55.508  12.591  19.942  0.00  0.00    +0.262 A 
ATOM     19  C   UNL     1      54.225  12.194  19.602  0.00  0.00    -0.138 A 
ATOM     20  C   UNL     1      53.275  13.141  19.252  0.00  0.00    +0.228 A 
ATOM     21  O   UNL     1      52.851  16.685  18.847  0.00  0.00    -0.457 OA
ATOM     22  O   UNL     1      52.019  12.771  18.923  0.00  0.00    -0.220 OA
BRANCH  12  13
ATOM     13  O   UNL     1      55.265  16.210  19.584  0.00  0.00    -0.467 OA
ATOM     14  H   UNL     1      54.513  16.973  19.834  0.00  0.00    +0.440 HD
ENDBRANCH  12  13
BRANCH  16  17
ATOM     17  O   UNL     1      56.433  11.657  20.285  0.00  0.00    -0.495 OA
ATOM     18  H   UNL     1      57.136  11.854  21.107  0.00  0.00    +0.445 HD
ENDBRANCH  16  17
ENDBRANCH   7   8
BRANCH  25  26
ATOM     26  O   UNL     1      45.963  11.792  17.236  0.00  0.00    -0.489 OA
ATOM     27  H   UNL     1      45.844  10.799  16.777  0.00  0.00    +0.444 HD
ENDBRANCH  25  26
BRANCH   5   4
ATOM      4  O   UNL     1      46.296  13.418  19.431  0.00  0.00    -0.236 OA
BRANCH   4   3
ATOM      1  C   UNL     1      44.861  16.559  20.565  0.00  0.00    +0.101 A 
ATOM      2  C   UNL     1      45.232  15.233  20.540  0.00  0.00    -0.061 A 
ATOM      3  C   UNL     1      45.928  14.725  19.450  0.00  0.00    +0.153 A 
ATOM     28  C   UNL     1      46.251  15.550  18.379  0.00  0.00    -0.005 A 
ATOM     29  C   UNL     1      45.879  16.876  18.394  0.00  0.00    +0.104 A 
ATOM     30  C   UNL     1      45.178  17.392  19.488  0.00  0.00    -0.107 A 
BRANCH  30  31
ATOM     31  C   UNL     1      44.779  18.812  19.509  0.00  0.00    +0.206 A 
ATOM     32  C   UNL     1      45.682  19.739  19.925  0.00  0.00    -0.152 A 
ATOM     33  C   UNL     1      45.316  21.106  19.952  0.00  0.00    +0.426 A 
ATOM     34  C   UNL     1      43.952  21.451  19.519  0.00  0.00    -0.308 A 
ATOM     35  C   UNL     1      43.504  22.778  19.512  0.00  0.00    +0.286 A 
ATOM     38  C   UNL     1      42.216  23.061  19.099  0.00  0.00    -0.150 A 
ATOM     39  C   UNL     1      41.372  22.032  18.691  0.00  0.00    +0.261 A 
ATOM     42  C   UNL     1      41.807  20.717  18.695  0.00  0.00    -0.139 A 
ATOM     43  C   UNL     1      43.097  20.415  19.107  0.00  0.00    +0.228 A 
ATOM     44  O   UNL     1      46.101  21.964  20.321  0.00  0.00    -0.459 OA
ATOM     45  O   UNL     1      43.538  19.139  19.115  0.00  0.00    -0.220 OA
BRANCH  35  36
ATOM     36  O   UNL     1      44.329  23.779  19.910  0.00  0.00    -0.467 OA
ATOM     37  H   UNL     1      44.039  24.431  20.748  0.00  0.00    +0.440 HD
ENDBRANCH  35  36
BRANCH  39  40
ATOM     40  O   UNL     1      40.109  22.321  18.285  0.00  0.00    -0.496 OA
ATOM     41  H   UNL     1      39.585  21.644  17.594  0.00  0.00    +0.445 HD
ENDBRANCH  39  40
ENDBRANCH  30  31
ENDBRANCH   4   3
ENDBRANCH   5   4
TORSDOF 9
ENDMDL
MODEL 9
REMARK VINA RESULT:      -7.1      3.292      5.622
REMARK  Name = ZINC28462577
REMARK  9 active torsions:
REMARK  status: ('A' for Active; 'I' for Inactive)
REMARK    1  A    between atoms: C3_3  and  O5_20
REMARK    2  A    between atoms: C6_6  and  C7_7
REMARK    3  A    between atoms: C11_12  and  O4_19
REMARK    4  A    between atoms: C13_14  and  O3_18
REMARK    5  A    between atoms: O5_20  and  C16_21
REMARK    6  A    between atoms: C18_23  and  C22_28
REMARK    7  A    between atoms: C21_26  and  O6_27
REMARK    8  A    between atoms: C26_33  and  O10_40
REMARK    9  A    between atoms: C28_35  and  O9_39
REMARK                            x       y       z     vdW  Elec       q    Type
REMARK                         _______ _______ _______ _____ _____    ______ ____
ROOT
ATOM      5  C   UNL     1      48.175  13.592  16.886  0.00  0.00    +0.029 A 
ATOM      6  C   UNL     1      49.245  13.671  17.755  0.00  0.00    +0.110 A 
ATOM      7  C   UNL     1      50.547  13.504  17.275  0.00  0.00    -0.102 A 
ATOM     23  C   UNL     1      50.760  13.267  15.913  0.00  0.00    +0.116 A 
ATOM     24  C   UNL     1      49.688  13.195  15.050  0.00  0.00    -0.057 A 
ATOM     25  C   UNL     1      48.395  13.357  15.529  0.00  0.00    +0.184 A 
ENDROOT
BRANCH   7   8
ATOM      8  C   UNL     1      51.693  13.581  18.200  0.00  0.00    +0.204 A 
ATOM      9  C   UNL     1      52.569  12.541  18.245  0.00  0.00    -0.144 A 
ATOM     10  C   UNL     1      53.675  12.598  19.126  0.00  0.00    +0.426 A 
ATOM     11  C   UNL     1      53.815  13.805  19.960  0.00  0.00    -0.308 A 
ATOM     12  C   UNL     1      54.879  13.946  20.860  0.00  0.00    +0.286 A 
ATOM     15  C   UNL     1      54.975  15.094  21.624  0.00  0.00    -0.149 A 
ATOM     16  C   UNL     1      54.022  16.098  21.500  0.00  0.00    +0.262 A 
ATOM     19  C   UNL     1      52.967  15.965  20.611  0.00  0.00    -0.138 A 
ATOM     20  C   UNL     1      52.853  14.822  19.836  0.00  0.00    +0.228 A 
ATOM     21  O   UNL     1      54.480  11.684  19.193  0.00  0.00    -0.457 OA
ATOM     22  O   UNL     1      51.834  14.677  18.962  0.00  0.00    -0.220 OA
BRANCH  12  13
ATOM     13  O   UNL     1      55.808  12.964  20.980  0.00  0.00    -0.467 OA
ATOM     14  H   UNL     1      56.877  13.221  21.016  0.00  0.00    +0.440 HD
ENDBRANCH  12  13
BRANCH  16  17
ATOM     17  O   UNL     1      54.126  17.222  22.255  0.00  0.00    -0.495 OA
ATOM     18  H   UNL     1      53.276  17.552  22.871  0.00  0.00    +0.445 HD
ENDBRANCH  16  17
ENDBRANCH   7   8
BRANCH  25  26
ATOM     26  O   UNL     1      47.342  13.285  14.674  0.00  0.00    -0.489 OA
ATOM     27  H   UNL     1      46.977  14.194  14.173  0.00  0.00    +0.444 HD
ENDBRANCH  25  26
BRANCH   5   4
ATOM      4  O   UNL     1      46.907  13.751  17.350  0.00  0.00    -0.236 OA
BRANCH   4   3
ATOM      1  C   UNL     1      46.380  17.347  17.390  0.00  0.00    +0.101 A 
ATOM      2  C   UNL     1      46.761  16.093  16.966  0.00  0.00    -0.061 A 
ATOM      3  C   UNL     1      46.534  14.986  17.774  0.00  0.00    +0.153 A 
ATOM     28  C   UNL     1      45.926  15.137  19.014  0.00  0.00    -0.005 A 
ATOM     29  C   UNL     1      45.547  16.388  19.449  0.00  0.00    +0.104 A 
ATOM     30  C   UNL     1      45.774  17.506  18.640  0.00  0.00    -0.107 A 
BRANCH  30  31
ATOM     31  C   UNL     1      45.369  18.847  19.100  0.00  0.00    +0.206 A 
ATOM     32  C   UNL     1      44.148  19.323  18.736  0.00  0.00    -0.152 A 
ATOM     33  C   UNL     1      43.743  20.608  19.168  0.00  0.00    +0.426 A 
ATOM     34  C   UNL     1      44.686  21.371  20.004  0.00  0.00    -0.308 A 
ATOM     35  C   UNL     1      44.369  22.650  20.476  0.00  0.00    +0.286 A 
ATOM     38  C   UNL     1      45.282  23.334  21.258  0.00  0.00    -0.150 A 
ATOM     39  C   UNL     1      46.506  22.752  21.573  0.00  0.00    +0.261 A 
ATOM     42  C   UNL     1      46.827  21.486  21.108  0.00  0.00    -0.139 A 
ATOM     43  C   UNL     1      45.924  20.786  20.322  0.00  0.00    +0.228 A 
ATOM     44  O   UNL     1      42.655  21.067  18.859  0.00  0.00    -0.459 OA
ATOM     45  O   UNL     1      46.220  19.552  19.863  0.00  0.00    -0.220 OA
BRANCH  35  36
ATOM     36  O   UNL     1      43.174  23.215  20.169  0.00  0.00    -0.467 OA
ATOM     37  H   UNL     1      42.412  22.631  19.632  0.00  0.00    +0.440 HD
ENDBRANCH  35  36
BRANCH  39  40
ATOM     40  O   UNL     1      47.394  23.431  22.341  0.00  0.00    -0.496 OA
ATOM     41  H   UNL     1      47.119  24.408  22.766  0.00  0.00    +0.445 HD
ENDBRANCH  39  40
ENDBRANCH  30  31
ENDBRANCH   4   3
ENDBRANCH   5   4
TORSDOF 9
ENDMDL
