MODEL 1
REMARK VINA RESULT:      -6.3      0.000      0.000
REMARK  Name = ZINC95486127
REMARK  15 active torsions:
REMARK  status: ('A' for Active; 'I' for Inactive)
REMARK    1  A    between atoms: C1_1  and  O1_2
REMARK    2  A    between atoms: O1_2  and  C2_3
REMARK    3  A    between atoms: C5_6  and  C8_9
REMARK    4  A    between atoms: C12_15  and  O10_37
REMARK    5  A    between atoms: C14_17  and  O4_21
REMARK    6  A    between atoms: O4_21  and  C17_22
REMARK    7  A    between atoms: C17_22  and  C18_23
REMARK    8  A    between atoms: C18_23  and  C19_25
REMARK    9  A    between atoms: C18_23  and  O9_36
REMARK   10  A    between atoms: C19_25  and  C20_27
REMARK   11  A    between atoms: C19_25  and  O8_35
REMARK   12  A    between atoms: C20_27  and  C21_29
REMARK   13  A    between atoms: C20_27  and  O7_34
REMARK   14  A    between atoms: C21_29  and  C22_31
REMARK   15  A    between atoms: C21_29  and  O6_33
REMARK                            x       y       z     vdW  Elec       q    Type
REMARK                         _______ _______ _______ _____ _____    ______ ____
ROOT
ATOM      7  C   UNL     1      47.364  18.235  18.028  0.00  0.00    +0.240 C 
ATOM      8  C   UNL     1      48.444  19.032  18.773  0.00  0.00    +0.036 C 
ATOM      9  C   UNL     1      49.769  18.741  18.091  0.00  0.00    +0.401 C 
ATOM     10  C   UNL     1      49.998  17.355  17.669  0.00  0.00    -0.318 A 
ATOM     11  C   UNL     1      51.275  16.930  17.266  0.00  0.00    +0.245 A 
ATOM     14  C   UNL     1      51.461  15.620  16.861  0.00  0.00    -0.141 A 
ATOM     15  C   UNL     1      50.390  14.734  16.856  0.00  0.00    +0.217 A 
ATOM     32  C   UNL     1      49.127  15.147  17.258  0.00  0.00    -0.056 A 
ATOM     33  C   UNL     1      48.919  16.452  17.670  0.00  0.00    +0.236 A 
ATOM     34  O   UNL     1      50.597  19.609  17.906  0.00  0.00    -0.431 OA
ATOM     35  O   UNL     1      47.687  16.845  18.072  0.00  0.00    -0.296 OA
ENDROOT
BRANCH   7   6
ATOM      3  C   UNL     1      43.574  18.878  19.895  0.00  0.00    +0.139 A 
ATOM      4  C   UNL     1      44.068  19.803  18.986  0.00  0.00    -0.075 A 
ATOM      5  C   UNL     1      45.293  19.594  18.385  0.00  0.00    +0.071 A 
ATOM      6  C   UNL     1      46.028  18.462  18.686  0.00  0.00    -0.132 A 
ATOM     36  C   UNL     1      45.538  17.538  19.591  0.00  0.00    +0.086 A 
ATOM     37  C   UNL     1      44.316  17.746  20.201  0.00  0.00    -0.017 A 
BRANCH   3   2
ATOM      1  C   UNL     1      41.324  19.613  19.671  0.00  0.00    +0.243 C 
ATOM      2  O   UNL     1      42.369  19.083  20.489  0.00  0.00    -0.316 OA
ENDBRANCH   3   2
ENDBRANCH   7   6
BRANCH  11  12
ATOM     12  O   UNL     1      52.317  17.797  17.275  0.00  0.00    -0.478 OA
ATOM     13  H   UNL     1      52.067  18.712  17.459  0.00  0.00    +0.401 HD
ENDBRANCH  11  12
BRANCH  15  16
ATOM     16  O   UNL     1      50.581  13.452  16.454  0.00  0.00    -0.292 OA
BRANCH  16  17
ATOM     17  C   UNL     1      49.588  12.887  15.598  0.00  0.00    +0.183 C 
BRANCH  17  18
ATOM     18  C   UNL     1      50.259  11.966  14.576  0.00  0.00    +0.205 C 
BRANCH  18  19
ATOM     19  O   UNL     1      49.267  11.157  13.939  0.00  0.00    -0.539 OA
ATOM     20  H   UNL     1      48.556  10.872  14.528  0.00  0.00    +0.376 HD
ENDBRANCH  18  19
BRANCH  18  21
ATOM     21  C   UNL     1      50.980  12.812  13.523  0.00  0.00    +0.171 C 
BRANCH  21  22
ATOM     22  O   UNL     1      52.364  12.915  13.863  0.00  0.00    -0.528 OA
ATOM     23  H   UNL     1      52.527  13.121  14.794  0.00  0.00    +0.371 HD
ENDBRANCH  21  22
BRANCH  21  24
ATOM     24  C   UNL     1      50.839  12.148  12.153  0.00  0.00    +0.186 C 
BRANCH  24  25
ATOM     25  O   UNL     1      51.792  11.091  12.034  0.00  0.00    -0.544 OA
ATOM     26  H   UNL     1      52.311  10.938  12.836  0.00  0.00    +0.371 HD
ENDBRANCH  24  25
BRANCH  24  27
ATOM     27  C   UNL     1      51.089  13.186  11.056  0.00  0.00    +0.150 C 
BRANCH  27  28
ATOM     28  O   UNL     1      52.246  13.956  11.385  0.00  0.00    -0.521 OA
ATOM     29  H   UNL     1      52.557  14.527  10.668  0.00  0.00    +0.372 HD
ENDBRANCH  27  28
BRANCH  27  30
ATOM     30  C   UNL     1      51.311  12.483   9.741  0.00  0.00    +0.425 C 
ATOM     31  O   UNL     1      50.649  11.515   9.454  0.00  0.00    -0.441 OA
ENDBRANCH  27  30
ENDBRANCH  24  27
ENDBRANCH  21  24
ENDBRANCH  18  21
ENDBRANCH  17  18
ENDBRANCH  16  17
ENDBRANCH  15  16
TORSDOF 14
ENDMDL
MODEL 2
REMARK VINA RESULT:      -6.1      3.214      9.758
REMARK  Name = ZINC95486127
REMARK  15 active torsions:
REMARK  status: ('A' for Active; 'I' for Inactive)
REMARK    1  A    between atoms: C1_1  and  O1_2
REMARK    2  A    between atoms: O1_2  and  C2_3
REMARK    3  A    between atoms: C5_6  and  C8_9
REMARK    4  A    between atoms: C12_15  and  O10_37
REMARK    5  A    between atoms: C14_17  and  O4_21
REMARK    6  A    between atoms: O4_21  and  C17_22
REMARK    7  A    between atoms: C17_22  and  C18_23
REMARK    8  A    between atoms: C18_23  and  C19_25
REMARK    9  A    between atoms: C18_23  and  O9_36
REMARK   10  A    between atoms: C19_25  and  C20_27
REMARK   11  A    between atoms: C19_25  and  O8_35
REMARK   12  A    between atoms: C20_27  and  C21_29
REMARK   13  A    between atoms: C20_27  and  O7_34
REMARK   14  A    between atoms: C21_29  and  C22_31
REMARK   15  A    between atoms: C21_29  and  O6_33
REMARK                            x       y       z     vdW  Elec       q    Type
REMARK                         _______ _______ _______ _____ _____    ______ ____
ROOT
ATOM      7  C   UNL     1      48.829  16.171  17.973  0.00  0.00    +0.240 C 
ATOM      8  C   UNL     1      49.758  16.985  17.061  0.00  0.00    +0.036 C 
ATOM      9  C   UNL     1      50.107  18.264  17.800  0.00  0.00    +0.401 C 
ATOM     10  C   UNL     1      49.022  18.905  18.551  0.00  0.00    -0.318 A 
ATOM     11  C   UNL     1      49.169  20.208  19.052  0.00  0.00    +0.245 A 
ATOM     14  C   UNL     1      48.134  20.784  19.767  0.00  0.00    -0.141 A 
ATOM     15  C   UNL     1      46.958  20.075  19.984  0.00  0.00    +0.217 A 
ATOM     32  C   UNL     1      46.805  18.788  19.486  0.00  0.00    -0.056 A 
ATOM     33  C   UNL     1      47.827  18.194  18.766  0.00  0.00    +0.236 A 
ATOM     34  O   UNL     1      51.226  18.734  17.771  0.00  0.00    -0.431 OA
ATOM     35  O   UNL     1      47.666  16.943  18.273  0.00  0.00    -0.296 OA
ENDROOT
BRANCH   7   6
ATOM      3  C   UNL     1      47.675  12.569  15.984  0.00  0.00    +0.139 A 
ATOM      4  C   UNL     1      46.750  13.271  16.743  0.00  0.00    -0.075 A 
ATOM      5  C   UNL     1      47.126  14.435  17.386  0.00  0.00    +0.071 A 
ATOM      6  C   UNL     1      48.423  14.901  17.272  0.00  0.00    -0.132 A 
ATOM     36  C   UNL     1      49.346  14.204  16.515  0.00  0.00    +0.086 A 
ATOM     37  C   UNL     1      48.978  13.036  15.876  0.00  0.00    -0.017 A 
BRANCH   3   2
ATOM      1  C   UNL     1      45.996  10.926  15.619  0.00  0.00    +0.243 C 
ATOM      2  O   UNL     1      47.309  11.424  15.351  0.00  0.00    -0.316 OA
ENDBRANCH   3   2
ENDBRANCH   7   6
BRANCH  11  12
ATOM     12  O   UNL     1      50.317  20.897  18.837  0.00  0.00    -0.478 OA
ATOM     13  H   UNL     1      50.322  21.405  18.015  0.00  0.00    +0.401 HD
ENDBRANCH  11  12
BRANCH  15  16
ATOM     16  O   UNL     1      45.950  20.647  20.690  0.00  0.00    -0.292 OA
BRANCH  16  17
ATOM     17  C   UNL     1      46.010  22.062  20.874  0.00  0.00    +0.183 C 
BRANCH  17  18
ATOM     18  C   UNL     1      44.598  22.606  21.106  0.00  0.00    +0.205 C 
BRANCH  18  19
ATOM     19  O   UNL     1      44.679  23.912  21.681  0.00  0.00    -0.539 OA
ATOM     20  H   UNL     1      44.900  24.607  21.047  0.00  0.00    +0.376 HD
ENDBRANCH  18  19
BRANCH  18  21
ATOM     21  C   UNL     1      43.855  22.682  19.770  0.00  0.00    +0.171 C 
BRANCH  21  22
ATOM     22  O   UNL     1      44.801  22.799  18.706  0.00  0.00    -0.528 OA
ATOM     23  H   UNL     1      45.474  23.479  18.849  0.00  0.00    +0.371 HD
ENDBRANCH  21  22
BRANCH  21  24
ATOM     24  C   UNL     1      43.023  21.414  19.576  0.00  0.00    +0.186 C 
BRANCH  24  25
ATOM     25  O   UNL     1      43.673  20.555  18.638  0.00  0.00    -0.544 OA
ATOM     26  H   UNL     1      43.837  20.965  17.777  0.00  0.00    +0.371 HD
ENDBRANCH  24  25
BRANCH  24  27
ATOM     27  C   UNL     1      41.636  21.789  19.049  0.00  0.00    +0.150 C 
BRANCH  27  28
ATOM     28  O   UNL     1      41.735  22.971  18.251  0.00  0.00    -0.521 OA
ATOM     29  H   UNL     1      41.632  23.793  18.751  0.00  0.00    +0.372 HD
ENDBRANCH  27  28
BRANCH  27  30
ATOM     30  C   UNL     1      41.096  20.660  18.209  0.00  0.00    +0.425 C 
ATOM     31  O   UNL     1      40.956  19.562  18.690  0.00  0.00    -0.441 OA
ENDBRANCH  27  30
ENDBRANCH  24  27
ENDBRANCH  21  24
ENDBRANCH  18  21
ENDBRANCH  17  18
ENDBRANCH  16  17
ENDBRANCH  15  16
TORSDOF 14
ENDMDL
MODEL 3
REMARK VINA RESULT:      -6.1      2.583      3.289
REMARK  Name = ZINC95486127
REMARK  15 active torsions:
REMARK  status: ('A' for Active; 'I' for Inactive)
REMARK    1  A    between atoms: C1_1  and  O1_2
REMARK    2  A    between atoms: O1_2  and  C2_3
REMARK    3  A    between atoms: C5_6  and  C8_9
REMARK    4  A    between atoms: C12_15  and  O10_37
REMARK    5  A    between atoms: C14_17  and  O4_21
REMARK    6  A    between atoms: O4_21  and  C17_22
REMARK    7  A    between atoms: C17_22  and  C18_23
REMARK    8  A    between atoms: C18_23  and  C19_25
REMARK    9  A    between atoms: C18_23  and  O9_36
REMARK   10  A    between atoms: C19_25  and  C20_27
REMARK   11  A    between atoms: C19_25  and  O8_35
REMARK   12  A    between atoms: C20_27  and  C21_29
REMARK   13  A    between atoms: C20_27  and  O7_34
REMARK   14  A    between atoms: C21_29  and  C22_31
REMARK   15  A    between atoms: C21_29  and  O6_33
REMARK                            x       y       z     vdW  Elec       q    Type
REMARK                         _______ _______ _______ _____ _____    ______ ____
ROOT
ATOM      7  C   UNL     1      45.900  17.148  19.447  0.00  0.00    +0.240 C 
ATOM      8  C   UNL     1      45.420  16.118  20.480  0.00  0.00    +0.036 C 
ATOM      9  C   UNL     1      46.373  14.938  20.414  0.00  0.00    +0.401 C 
ATOM     10  C   UNL     1      46.820  14.529  19.079  0.00  0.00    -0.318 A 
ATOM     11  C   UNL     1      47.488  13.308  18.889  0.00  0.00    +0.245 A 
ATOM     14  C   UNL     1      47.909  12.952  17.620  0.00  0.00    -0.141 A 
ATOM     15  C   UNL     1      47.669  13.797  16.544  0.00  0.00    +0.217 A 
ATOM     32  C   UNL     1      47.003  15.003  16.724  0.00  0.00    -0.056 A 
ATOM     33  C   UNL     1      46.571  15.377  17.985  0.00  0.00    +0.236 A 
ATOM     34  O   UNL     1      46.746  14.362  21.416  0.00  0.00    -0.431 OA
ATOM     35  O   UNL     1      45.912  16.549  18.152  0.00  0.00    -0.296 OA
ENDROOT
BRANCH   7   6
ATOM      3  C   UNL     1      43.251  20.502  19.442  0.00  0.00    +0.139 A 
ATOM      4  C   UNL     1      42.907  19.345  20.126  0.00  0.00    -0.075 A 
ATOM      5  C   UNL     1      43.764  18.261  20.125  0.00  0.00    +0.071 A 
ATOM      6  C   UNL     1      44.966  18.331  19.445  0.00  0.00    -0.132 A 
ATOM     36  C   UNL     1      45.313  19.483  18.764  0.00  0.00    +0.086 A 
ATOM     37  C   UNL     1      44.456  20.567  18.756  0.00  0.00    -0.017 A 
BRANCH   3   2
ATOM      1  C   UNL     1      41.220  21.455  18.656  0.00  0.00    +0.243 C 
ATOM      2  O   UNL     1      42.409  21.568  19.441  0.00  0.00    -0.316 OA
ENDBRANCH   3   2
ENDBRANCH   7   6
BRANCH  11  12
ATOM     12  O   UNL     1      47.719  12.486  19.942  0.00  0.00    -0.478 OA
ATOM     13  H   UNL     1      48.541  11.982  19.875  0.00  0.00    +0.401 HD
ENDBRANCH  11  12
BRANCH  15  16
ATOM     16  O   UNL     1      48.089  13.441  15.304  0.00  0.00    -0.292 OA
BRANCH  16  17
ATOM     17  C   UNL     1      49.039  12.377  15.222  0.00  0.00    +0.183 C 
BRANCH  17  18
ATOM     18  C   UNL     1      50.267  12.850  14.440  0.00  0.00    +0.205 C 
BRANCH  18  19
ATOM     19  O   UNL     1      51.432  12.187  14.936  0.00  0.00    -0.539 OA
ATOM     20  H   UNL     1      51.638  11.360  14.481  0.00  0.00    +0.376 HD
ENDBRANCH  18  19
BRANCH  18  21
ATOM     21  C   UNL     1      50.085  12.519  12.956  0.00  0.00    +0.171 C 
BRANCH  21  22
ATOM     22  O   UNL     1      49.019  13.305  12.421  0.00  0.00    -0.528 OA
ATOM     23  H   UNL     1      48.991  14.212  12.756  0.00  0.00    +0.371 HD
ENDBRANCH  21  22
BRANCH  21  24
ATOM     24  C   UNL     1      51.379  12.832  12.203  0.00  0.00    +0.186 C 
BRANCH  24  25
ATOM     25  O   UNL     1      52.080  13.880  12.873  0.00  0.00    -0.544 OA
ATOM     26  H   UNL     1      51.523  14.633  13.116  0.00  0.00    +0.371 HD
ENDBRANCH  24  25
BRANCH  24  27
ATOM     27  C   UNL     1      51.043  13.273  10.776  0.00  0.00    +0.150 C 
BRANCH  27  28
ATOM     28  O   UNL     1      51.864  14.386  10.417  0.00  0.00    -0.521 OA
ATOM     29  H   UNL     1      52.805  14.258  10.603  0.00  0.00    +0.372 HD
ENDBRANCH  27  28
BRANCH  27  30
ATOM     30  C   UNL     1      51.299  12.133   9.824  0.00  0.00    +0.425 C 
ATOM     31  O   UNL     1      51.679  11.067  10.246  0.00  0.00    -0.441 OA
ENDBRANCH  27  30
ENDBRANCH  24  27
ENDBRANCH  21  24
ENDBRANCH  18  21
ENDBRANCH  17  18
ENDBRANCH  16  17
ENDBRANCH  15  16
TORSDOF 14
ENDMDL
MODEL 4
REMARK VINA RESULT:      -6.0      2.230      9.927
REMARK  Name = ZINC95486127
REMARK  15 active torsions:
REMARK  status: ('A' for Active; 'I' for Inactive)
REMARK    1  A    between atoms: C1_1  and  O1_2
REMARK    2  A    between atoms: O1_2  and  C2_3
REMARK    3  A    between atoms: C5_6  and  C8_9
REMARK    4  A    between atoms: C12_15  and  O10_37
REMARK    5  A    between atoms: C14_17  and  O4_21
REMARK    6  A    between atoms: O4_21  and  C17_22
REMARK    7  A    between atoms: C17_22  and  C18_23
REMARK    8  A    between atoms: C18_23  and  C19_25
REMARK    9  A    between atoms: C18_23  and  O9_36
REMARK   10  A    between atoms: C19_25  and  C20_27
REMARK   11  A    between atoms: C19_25  and  O8_35
REMARK   12  A    between atoms: C20_27  and  C21_29
REMARK   13  A    between atoms: C20_27  and  O7_34
REMARK   14  A    between atoms: C21_29  and  C22_31
REMARK   15  A    between atoms: C21_29  and  O6_33
REMARK                            x       y       z     vdW  Elec       q    Type
REMARK                         _______ _______ _______ _____ _____    ______ ____
ROOT
ATOM      7  C   UNL     1      50.539  16.431  17.556  0.00  0.00    +0.240 C 
ATOM      8  C   UNL     1      51.381  17.380  16.693  0.00  0.00    +0.036 C 
ATOM      9  C   UNL     1      51.510  18.686  17.456  0.00  0.00    +0.401 C 
ATOM     10  C   UNL     1      50.313  19.156  18.160  0.00  0.00    -0.318 A 
ATOM     11  C   UNL     1      50.249  20.461  18.676  0.00  0.00    +0.245 A 
ATOM     14  C   UNL     1      49.112  20.874  19.346  0.00  0.00    -0.141 A 
ATOM     15  C   UNL     1      48.041  20.002  19.505  0.00  0.00    +0.217 A 
ATOM     32  C   UNL     1      48.096  18.712  18.992  0.00  0.00    -0.056 A 
ATOM     33  C   UNL     1      49.223  18.279  18.316  0.00  0.00    +0.236 A 
ATOM     34  O   UNL     1      52.551  19.311  17.481  0.00  0.00    -0.431 OA
ATOM     35  O   UNL     1      49.265  17.025  17.807  0.00  0.00    -0.296 OA
ENDROOT
BRANCH   7   6
ATOM      3  C   UNL     1      50.003  12.726  15.495  0.00  0.00    +0.139 A 
ATOM      4  C   UNL     1      51.244  13.347  15.498  0.00  0.00    -0.075 A 
ATOM      5  C   UNL     1      51.414  14.545  16.164  0.00  0.00    +0.071 A 
ATOM      6  C   UNL     1      50.350  15.125  16.829  0.00  0.00    -0.132 A 
ATOM     36  C   UNL     1      49.112  14.508  16.829  0.00  0.00    +0.086 A 
ATOM     37  C   UNL     1      48.934  13.313  16.158  0.00  0.00    -0.017 A 
BRANCH   3   2
ATOM      1  C   UNL     1      50.747  11.256  13.781  0.00  0.00    +0.243 C 
ATOM      2  O   UNL     1      49.832  11.548  14.839  0.00  0.00    -0.316 OA
ENDBRANCH   3   2
ENDBRANCH   7   6
BRANCH  11  12
ATOM     12  O   UNL     1      51.295  21.309  18.517  0.00  0.00    -0.478 OA
ATOM     13  H   UNL     1      52.110  21.013  18.945  0.00  0.00    +0.401 HD
ENDBRANCH  11  12
BRANCH  15  16
ATOM     16  O   UNL     1      46.931  20.415  20.167  0.00  0.00    -0.292 OA
BRANCH  16  17
ATOM     17  C   UNL     1      45.782  19.570  20.095  0.00  0.00    +0.183 C 
BRANCH  17  18
ATOM     18  C   UNL     1      44.755  20.186  19.143  0.00  0.00    +0.205 C 
BRANCH  18  19
ATOM     19  O   UNL     1      44.617  19.356  17.988  0.00  0.00    -0.539 OA
ATOM     20  H   UNL     1      44.747  19.822  17.151  0.00  0.00    +0.376 HD
ENDBRANCH  18  19
BRANCH  18  21
ATOM     21  C   UNL     1      43.403  20.299  19.853  0.00  0.00    +0.171 C 
BRANCH  21  22
ATOM     22  O   UNL     1      43.532  21.159  20.987  0.00  0.00    -0.528 OA
ATOM     23  H   UNL     1      43.146  22.037  20.862  0.00  0.00    +0.371 HD
ENDBRANCH  21  22
BRANCH  21  24
ATOM     24  C   UNL     1      42.368  20.879  18.888  0.00  0.00    +0.186 C 
BRANCH  24  25
ATOM     25  O   UNL     1      42.197  22.272  19.152  0.00  0.00    -0.544 OA
ATOM     26  H   UNL     1      42.344  22.518  20.076  0.00  0.00    +0.371 HD
ENDBRANCH  24  25
BRANCH  24  27
ATOM     27  C   UNL     1      41.032  20.156  19.079  0.00  0.00    +0.150 C 
BRANCH  27  28
ATOM     28  O   UNL     1      40.663  20.195  20.459  0.00  0.00    -0.521 OA
ATOM     29  H   UNL     1      40.880  19.389  20.948  0.00  0.00    +0.372 HD
ENDBRANCH  27  28
BRANCH  27  30
ATOM     30  C   UNL     1      39.970  20.837  18.256  0.00  0.00    +0.425 C 
ATOM     31  O   UNL     1      39.257  21.671  18.760  0.00  0.00    -0.441 OA
ENDBRANCH  27  30
ENDBRANCH  24  27
ENDBRANCH  21  24
ENDBRANCH  18  21
ENDBRANCH  17  18
ENDBRANCH  16  17
ENDBRANCH  15  16
TORSDOF 14
ENDMDL
MODEL 5
REMARK VINA RESULT:      -5.9      2.782      4.177
REMARK  Name = ZINC95486127
REMARK  15 active torsions:
REMARK  status: ('A' for Active; 'I' for Inactive)
REMARK    1  A    between atoms: C1_1  and  O1_2
REMARK    2  A    between atoms: O1_2  and  C2_3
REMARK    3  A    between atoms: C5_6  and  C8_9
REMARK    4  A    between atoms: C12_15  and  O10_37
REMARK    5  A    between atoms: C14_17  and  O4_21
REMARK    6  A    between atoms: O4_21  and  C17_22
REMARK    7  A    between atoms: C17_22  and  C18_23
REMARK    8  A    between atoms: C18_23  and  C19_25
REMARK    9  A    between atoms: C18_23  and  O9_36
REMARK   10  A    between atoms: C19_25  and  C20_27
REMARK   11  A    between atoms: C19_25  and  O8_35
REMARK   12  A    between atoms: C20_27  and  C21_29
REMARK   13  A    between atoms: C20_27  and  O7_34
REMARK   14  A    between atoms: C21_29  and  C22_31
REMARK   15  A    between atoms: C21_29  and  O6_33
REMARK                            x       y       z     vdW  Elec       q    Type
REMARK                         _______ _______ _______ _____ _____    ______ ____
ROOT
ATOM      7  C   UNL     1      45.719  18.281  20.154  0.00  0.00    +0.240 C 
ATOM      8  C   UNL     1      44.539  17.558  20.820  0.00  0.00    +0.036 C 
ATOM      9  C   UNL     1      44.844  16.071  20.782  0.00  0.00    +0.401 C 
ATOM     10  C   UNL     1      45.456  15.558  19.552  0.00  0.00    -0.318 A 
ATOM     11  C   UNL     1      45.542  14.177  19.316  0.00  0.00    +0.245 A 
ATOM     14  C   UNL     1      46.136  13.720  18.153  0.00  0.00    -0.141 A 
ATOM     15  C   UNL     1      46.642  14.625  17.227  0.00  0.00    +0.217 A 
ATOM     32  C   UNL     1      46.555  15.992  17.452  0.00  0.00    -0.056 A 
ATOM     33  C   UNL     1      45.962  16.471  18.608  0.00  0.00    +0.236 A 
ATOM     34  O   UNL     1      44.591  15.344  21.720  0.00  0.00    -0.431 OA
ATOM     35  O   UNL     1      45.870  17.806  18.816  0.00  0.00    -0.296 OA
ENDROOT
BRANCH   7   6
ATOM      3  C   UNL     1      44.965  22.487  20.095  0.00  0.00    +0.139 A 
ATOM      4  C   UNL     1      45.441  21.850  18.958  0.00  0.00    -0.075 A 
ATOM      5  C   UNL     1      45.685  20.490  18.979  0.00  0.00    +0.071 A 
ATOM      6  C   UNL     1      45.453  19.764  20.133  0.00  0.00    -0.132 A 
ATOM     36  C   UNL     1      44.978  20.396  21.267  0.00  0.00    +0.086 A 
ATOM     37  C   UNL     1      44.739  21.757  21.253  0.00  0.00    -0.017 A 
BRANCH   3   2
ATOM      1  C   UNL     1      44.570  24.438  18.795  0.00  0.00    +0.243 C 
ATOM      2  O   UNL     1      44.725  23.824  20.076  0.00  0.00    -0.316 OA
ENDBRANCH   3   2
ENDBRANCH   7   6
BRANCH  11  12
ATOM     12  O   UNL     1      45.046  13.298  20.221  0.00  0.00    -0.478 OA
ATOM     13  H   UNL     1      45.555  13.248  21.041  0.00  0.00    +0.401 HD
ENDBRANCH  11  12
BRANCH  15  16
ATOM     16  O   UNL     1      47.226  14.167  16.091  0.00  0.00    -0.292 OA
BRANCH  16  17
ATOM     17  C   UNL     1      48.423  13.402  16.241  0.00  0.00    +0.183 C 
BRANCH  17  18
ATOM     18  C   UNL     1      48.277  12.074  15.494  0.00  0.00    +0.205 C 
BRANCH  18  19
ATOM     19  O   UNL     1      47.114  12.120  14.664  0.00  0.00    -0.539 OA
ATOM     20  H   UNL     1      46.464  11.432  14.859  0.00  0.00    +0.376 HD
ENDBRANCH  18  19
BRANCH  18  21
ATOM     21  C   UNL     1      49.515  11.837  14.626  0.00  0.00    +0.171 C 
BRANCH  21  22
ATOM     22  O   UNL     1      49.361  10.614  13.903  0.00  0.00    -0.528 OA
ATOM     23  H   UNL     1      48.836  10.697  13.095  0.00  0.00    +0.371 HD
ENDBRANCH  21  22
BRANCH  21  24
ATOM     24  C   UNL     1      49.675  12.996  13.641  0.00  0.00    +0.186 C 
BRANCH  24  25
ATOM     25  O   UNL     1      48.772  12.820  12.547  0.00  0.00    -0.544 OA
ATOM     26  H   UNL     1      48.329  13.634  12.269  0.00  0.00    +0.371 HD
ENDBRANCH  24  25
BRANCH  24  27
ATOM     27  C   UNL     1      51.112  13.024  13.116  0.00  0.00    +0.150 C 
BRANCH  27  28
ATOM     28  O   UNL     1      51.823  11.890  13.615  0.00  0.00    -0.521 OA
ATOM     29  H   UNL     1      51.255  11.200  13.986  0.00  0.00    +0.372 HD
ENDBRANCH  27  28
BRANCH  27  30
ATOM     30  C   UNL     1      51.098  12.984  11.609  0.00  0.00    +0.425 C 
ATOM     31  O   UNL     1      51.193  11.929  11.032  0.00  0.00    -0.441 OA
ENDBRANCH  27  30
ENDBRANCH  24  27
ENDBRANCH  21  24
ENDBRANCH  18  21
ENDBRANCH  17  18
ENDBRANCH  16  17
ENDBRANCH  15  16
TORSDOF 14
ENDMDL
MODEL 6
REMARK VINA RESULT:      -5.9      4.277      6.419
REMARK  Name = ZINC95486127
REMARK  15 active torsions:
REMARK  status: ('A' for Active; 'I' for Inactive)
REMARK    1  A    between atoms: C1_1  and  O1_2
REMARK    2  A    between atoms: O1_2  and  C2_3
REMARK    3  A    between atoms: C5_6  and  C8_9
REMARK    4  A    between atoms: C12_15  and  O10_37
REMARK    5  A    between atoms: C14_17  and  O4_21
REMARK    6  A    between atoms: O4_21  and  C17_22
REMARK    7  A    between atoms: C17_22  and  C18_23
REMARK    8  A    between atoms: C18_23  and  C19_25
REMARK    9  A    between atoms: C18_23  and  O9_36
REMARK   10  A    between atoms: C19_25  and  C20_27
REMARK   11  A    between atoms: C19_25  and  O8_35
REMARK   12  A    between atoms: C20_27  and  C21_29
REMARK   13  A    between atoms: C20_27  and  O7_34
REMARK   14  A    between atoms: C21_29  and  C22_31
REMARK   15  A    between atoms: C21_29  and  O6_33
REMARK                            x       y       z     vdW  Elec       q    Type
REMARK                         _______ _______ _______ _____ _____    ______ ____
ROOT
ATOM      7  C   UNL     1      44.984  18.041  20.164  0.00  0.00    +0.240 C 
ATOM      8  C   UNL     1      44.699  16.583  20.550  0.00  0.00    +0.036 C 
ATOM      9  C   UNL     1      46.038  15.878  20.668  0.00  0.00    +0.401 C 
ATOM     10  C   UNL     1      47.048  16.217  19.659  0.00  0.00    -0.318 A 
ATOM     11  C   UNL     1      48.214  15.446  19.524  0.00  0.00    +0.245 A 
ATOM     14  C   UNL     1      49.156  15.795  18.573  0.00  0.00    -0.141 A 
ATOM     15  C   UNL     1      48.945  16.900  17.757  0.00  0.00    +0.217 A 
ATOM     32  C   UNL     1      47.792  17.663  17.882  0.00  0.00    -0.056 A 
ATOM     33  C   UNL     1      46.835  17.330  18.826  0.00  0.00    +0.236 A 
ATOM     34  O   UNL     1      46.263  15.075  21.550  0.00  0.00    -0.431 OA
ATOM     35  O   UNL     1      45.707  18.071  18.933  0.00  0.00    -0.296 OA
ENDROOT
BRANCH   7   6
ATOM      3  C   UNL     1      41.291  20.142  19.699  0.00  0.00    +0.139 A 
ATOM      4  C   UNL     1      42.353  20.405  18.846  0.00  0.00    -0.075 A 
ATOM      5  C   UNL     1      43.546  19.725  18.999  0.00  0.00    +0.071 A 
ATOM      6  C   UNL     1      43.682  18.782  20.000  0.00  0.00    -0.132 A 
ATOM     36  C   UNL     1      42.625  18.517  20.851  0.00  0.00    +0.086 A 
ATOM     37  C   UNL     1      41.432  19.198  20.707  0.00  0.00    -0.017 A 
BRANCH   3   2
ATOM      1  C   UNL     1      39.882  21.437  18.289  0.00  0.00    +0.243 C 
ATOM      2  O   UNL     1      40.117  20.809  19.551  0.00  0.00    -0.316 OA
ENDBRANCH   3   2
ENDBRANCH   7   6
BRANCH  11  12
ATOM     12  O   UNL     1      48.415  14.367  20.321  0.00  0.00    -0.478 OA
ATOM     13  H   UNL     1      48.551  14.586  21.253  0.00  0.00    +0.401 HD
ENDBRANCH  11  12
BRANCH  15  16
ATOM     16  O   UNL     1      49.876  17.236  16.829  0.00  0.00    -0.292 OA
BRANCH  16  17
ATOM     17  C   UNL     1      51.232  16.892  17.117  0.00  0.00    +0.183 C 
BRANCH  17  18
ATOM     18  C   UNL     1      51.899  18.040  17.878  0.00  0.00    +0.205 C 
BRANCH  18  19
ATOM     19  O   UNL     1      53.064  17.554  18.548  0.00  0.00    -0.539 OA
ATOM     20  H   UNL     1      53.434  16.750  18.160  0.00  0.00    +0.376 HD
ENDBRANCH  18  19
BRANCH  18  21
ATOM     21  C   UNL     1      52.299  19.141  16.893  0.00  0.00    +0.171 C 
BRANCH  21  22
ATOM     22  O   UNL     1      52.176  18.651  15.557  0.00  0.00    -0.528 OA
ATOM     23  H   UNL     1      53.005  18.331  15.175  0.00  0.00    +0.371 HD
ENDBRANCH  21  22
BRANCH  21  24
ATOM     24  C   UNL     1      51.382  20.350  17.080  0.00  0.00    +0.186 C 
BRANCH  24  25
ATOM     25  O   UNL     1      51.956  21.489  16.436  0.00  0.00    -0.544 OA
ATOM     26  H   UNL     1      51.871  21.480  15.472  0.00  0.00    +0.371 HD
ENDBRANCH  24  25
BRANCH  24  27
ATOM     27  C   UNL     1      51.217  20.639  18.574  0.00  0.00    +0.150 C 
BRANCH  27  28
ATOM     28  O   UNL     1      52.019  21.765  18.933  0.00  0.00    -0.521 OA
ATOM     29  H   UNL     1      51.648  22.302  19.647  0.00  0.00    +0.372 HD
ENDBRANCH  27  28
BRANCH  27  30
ATOM     30  C   UNL     1      49.770  20.937  18.872  0.00  0.00    +0.425 C 
ATOM     31  O   UNL     1      49.155  20.240  19.641  0.00  0.00    -0.441 OA
ENDBRANCH  27  30
ENDBRANCH  24  27
ENDBRANCH  21  24
ENDBRANCH  18  21
ENDBRANCH  17  18
ENDBRANCH  16  17
ENDBRANCH  15  16
TORSDOF 14
ENDMDL
MODEL 7
REMARK VINA RESULT:      -5.8      1.640      2.477
REMARK  Name = ZINC95486127
REMARK  15 active torsions:
REMARK  status: ('A' for Active; 'I' for Inactive)
REMARK    1  A    between atoms: C1_1  and  O1_2
REMARK    2  A    between atoms: O1_2  and  C2_3
REMARK    3  A    between atoms: C5_6  and  C8_9
REMARK    4  A    between atoms: C12_15  and  O10_37
REMARK    5  A    between atoms: C14_17  and  O4_21
REMARK    6  A    between atoms: O4_21  and  C17_22
REMARK    7  A    between atoms: C17_22  and  C18_23
REMARK    8  A    between atoms: C18_23  and  C19_25
REMARK    9  A    between atoms: C18_23  and  O9_36
REMARK   10  A    between atoms: C19_25  and  C20_27
REMARK   11  A    between atoms: C19_25  and  O8_35
REMARK   12  A    between atoms: C20_27  and  C21_29
REMARK   13  A    between atoms: C20_27  and  O7_34
REMARK   14  A    between atoms: C21_29  and  C22_31
REMARK   15  A    between atoms: C21_29  and  O6_33
REMARK                            x       y       z     vdW  Elec       q    Type
REMARK                         _______ _______ _______ _____ _____    ______ ____
ROOT
ATOM      7  C   UNL     1      46.809  20.108  18.464  0.00  0.00    +0.240 C 
ATOM      8  C   UNL     1      47.731  20.634  19.573  0.00  0.00    +0.036 C 
ATOM      9  C   UNL     1      49.137  20.162  19.250  0.00  0.00    +0.401 C 
ATOM     10  C   UNL     1      49.268  18.796  18.732  0.00  0.00    -0.318 A 
ATOM     11  C   UNL     1      50.527  18.180  18.644  0.00  0.00    +0.245 A 
ATOM     14  C   UNL     1      50.624  16.895  18.140  0.00  0.00    -0.141 A 
ATOM     15  C   UNL     1      49.480  16.222  17.726  0.00  0.00    +0.217 A 
ATOM     32  C   UNL     1      48.232  16.824  17.816  0.00  0.00    -0.056 A 
ATOM     33  C   UNL     1      48.113  18.108  18.319  0.00  0.00    +0.236 A 
ATOM     34  O   UNL     1      50.104  20.878  19.413  0.00  0.00    -0.431 OA
ATOM     35  O   UNL     1      46.891  18.684  18.415  0.00  0.00    -0.296 OA
ENDROOT
BRANCH   7   6
ATOM      3  C   UNL     1      42.780  21.275  19.285  0.00  0.00    +0.139 A 
ATOM      4  C   UNL     1      43.045  20.031  18.732  0.00  0.00    -0.075 A 
ATOM      5  C   UNL     1      44.347  19.656  18.466  0.00  0.00    +0.071 A 
ATOM      6  C   UNL     1      45.388  20.520  18.753  0.00  0.00    -0.132 A 
ATOM     36  C   UNL     1      45.128  21.760  19.306  0.00  0.00    +0.086 A 
ATOM     37  C   UNL     1      43.826  22.143  19.567  0.00  0.00    -0.017 A 
BRANCH   3   2
ATOM      1  C   UNL     1      40.607  21.727  18.433  0.00  0.00    +0.243 C 
ATOM      2  O   UNL     1      41.500  21.647  19.546  0.00  0.00    -0.316 OA
ENDBRANCH   3   2
ENDBRANCH   7   6
BRANCH  11  12
ATOM     12  O   UNL     1      51.640  18.840  19.051  0.00  0.00    -0.478 OA
ATOM     13  H   UNL     1      52.385  18.263  19.261  0.00  0.00    +0.401 HD
ENDBRANCH  11  12
BRANCH  15  16
ATOM     16  O   UNL     1      49.585  14.964  17.230  0.00  0.00    -0.292 OA
BRANCH  16  17
ATOM     17  C   UNL     1      48.393  14.178  17.198  0.00  0.00    +0.183 C 
BRANCH  17  18
ATOM     18  C   UNL     1      48.432  13.241  15.989  0.00  0.00    +0.205 C 
BRANCH  18  19
ATOM     19  O   UNL     1      47.488  13.684  15.011  0.00  0.00    -0.539 OA
ATOM     20  H   UNL     1      47.728  14.516  14.581  0.00  0.00    +0.376 HD
ENDBRANCH  18  19
BRANCH  18  21
ATOM     21  C   UNL     1      49.837  13.250  15.381  0.00  0.00    +0.171 C 
BRANCH  21  22
ATOM     22  O   UNL     1      50.672  12.340  16.100  0.00  0.00    -0.528 OA
ATOM     23  H   UNL     1      50.395  12.189  17.014  0.00  0.00    +0.371 HD
ENDBRANCH  21  22
BRANCH  21  24
ATOM     24  C   UNL     1      49.760  12.823  13.914  0.00  0.00    +0.186 C 
BRANCH  24  25
ATOM     25  O   UNL     1      49.199  11.512  13.828  0.00  0.00    -0.544 OA
ATOM     26  H   UNL     1      49.480  11.015  13.047  0.00  0.00    +0.371 HD
ENDBRANCH  24  25
BRANCH  24  27
ATOM     27  C   UNL     1      51.167  12.817  13.311  0.00  0.00    +0.150 C 
BRANCH  27  28
ATOM     28  O   UNL     1      51.733  11.511  13.436  0.00  0.00    -0.521 OA
ATOM     29  H   UNL     1      52.654  11.507  13.730  0.00  0.00    +0.372 HD
ENDBRANCH  27  28
BRANCH  27  30
ATOM     30  C   UNL     1      51.090  13.193  11.853  0.00  0.00    +0.425 C 
ATOM     31  O   UNL     1      50.026  13.187  11.283  0.00  0.00    -0.441 OA
ENDBRANCH  27  30
ENDBRANCH  24  27
ENDBRANCH  21  24
ENDBRANCH  18  21
ENDBRANCH  17  18
ENDBRANCH  16  17
ENDBRANCH  15  16
TORSDOF 14
ENDMDL
MODEL 8
REMARK VINA RESULT:      -5.7      1.908      3.416
REMARK  Name = ZINC95486127
REMARK  15 active torsions:
REMARK  status: ('A' for Active; 'I' for Inactive)
REMARK    1  A    between atoms: C1_1  and  O1_2
REMARK    2  A    between atoms: O1_2  and  C2_3
REMARK    3  A    between atoms: C5_6  and  C8_9
REMARK    4  A    between atoms: C12_15  and  O10_37
REMARK    5  A    between atoms: C14_17  and  O4_21
REMARK    6  A    between atoms: O4_21  and  C17_22
REMARK    7  A    between atoms: C17_22  and  C18_23
REMARK    8  A    between atoms: C18_23  and  C19_25
REMARK    9  A    between atoms: C18_23  and  O9_36
REMARK   10  A    between atoms: C19_25  and  C20_27
REMARK   11  A    between atoms: C19_25  and  O8_35
REMARK   12  A    between atoms: C20_27  and  C21_29
REMARK   13  A    between atoms: C20_27  and  O7_34
REMARK   14  A    between atoms: C21_29  and  C22_31
REMARK   15  A    between atoms: C21_29  and  O6_33
REMARK                            x       y       z     vdW  Elec       q    Type
REMARK                         _______ _______ _______ _____ _____    ______ ____
ROOT
ATOM      7  C   UNL     1      47.342  18.183  17.965  0.00  0.00    +0.240 C 
ATOM      8  C   UNL     1      48.489  18.842  18.743  0.00  0.00    +0.036 C 
ATOM      9  C   UNL     1      49.784  18.438  18.063  0.00  0.00    +0.401 C 
ATOM     10  C   UNL     1      49.877  17.050  17.598  0.00  0.00    -0.318 A 
ATOM     11  C   UNL     1      51.108  16.510  17.193  0.00  0.00    +0.245 A 
ATOM     14  C   UNL     1      51.164  15.201  16.748  0.00  0.00    -0.141 A 
ATOM     15  C   UNL     1      50.009  14.429  16.706  0.00  0.00    +0.217 A 
ATOM     32  C   UNL     1      48.790  14.956  17.111  0.00  0.00    -0.056 A 
ATOM     33  C   UNL     1      48.711  16.263  17.562  0.00  0.00    +0.236 A 
ATOM     34  O   UNL     1      50.698  19.223  17.912  0.00  0.00    -0.431 OA
ATOM     35  O   UNL     1      47.521  16.766  17.967  0.00  0.00    -0.296 OA
ENDROOT
BRANCH   7   6
ATOM      3  C   UNL     1      43.616  19.151  19.821  0.00  0.00    +0.139 A 
ATOM      4  C   UNL     1      44.222  20.057  18.963  0.00  0.00    -0.075 A 
ATOM      5  C   UNL     1      45.427  19.743  18.365  0.00  0.00    +0.071 A 
ATOM      6  C   UNL     1      46.028  18.524  18.619  0.00  0.00    -0.132 A 
ATOM     36  C   UNL     1      45.427  17.618  19.473  0.00  0.00    +0.086 A 
ATOM     37  C   UNL     1      44.225  17.930  20.080  0.00  0.00    -0.017 A 
BRANCH   3   2
ATOM      1  C   UNL     1      42.006  18.620  21.488  0.00  0.00    +0.243 C 
ATOM      2  O   UNL     1      42.432  19.458  20.412  0.00  0.00    -0.316 OA
ENDBRANCH   3   2
ENDBRANCH   7   6
BRANCH  11  12
ATOM     12  O   UNL     1      52.233  17.266  17.237  0.00  0.00    -0.478 OA
ATOM     13  H   UNL     1      52.116  18.165  16.902  0.00  0.00    +0.401 HD
ENDBRANCH  11  12
BRANCH  15  16
ATOM     16  O   UNL     1      50.074  13.148  16.264  0.00  0.00    -0.292 OA
BRANCH  16  17
ATOM     17  C   UNL     1      50.561  12.944  14.938  0.00  0.00    +0.183 C 
BRANCH  17  18
ATOM     18  C   UNL     1      49.462  12.309  14.082  0.00  0.00    +0.205 C 
BRANCH  18  19
ATOM     19  O   UNL     1      49.689  10.901  13.982  0.00  0.00    -0.539 OA
ATOM     20  H   UNL     1      49.243  10.382  14.665  0.00  0.00    +0.376 HD
ENDBRANCH  18  19
BRANCH  18  21
ATOM     21  C   UNL     1      48.100  12.561  14.733  0.00  0.00    +0.171 C 
BRANCH  21  22
ATOM     22  O   UNL     1      47.282  13.326  13.845  0.00  0.00    -0.528 OA
ATOM     23  H   UNL     1      47.674  14.168  13.576  0.00  0.00    +0.371 HD
ENDBRANCH  21  22
BRANCH  21  24
ATOM     24  C   UNL     1      47.421  11.222  15.027  0.00  0.00    +0.186 C 
BRANCH  24  25
ATOM     25  O   UNL     1      46.163  11.168  14.352  0.00  0.00    -0.544 OA
ATOM     26  H   UNL     1      45.404  11.053  14.942  0.00  0.00    +0.371 HD
ENDBRANCH  24  25
BRANCH  24  27
ATOM     27  C   UNL     1      47.197  11.084  16.535  0.00  0.00    +0.150 C 
BRANCH  27  28
ATOM     28  O   UNL     1      48.458  11.105  17.206  0.00  0.00    -0.521 OA
ATOM     29  H   UNL     1      49.036  10.362  16.984  0.00  0.00    +0.372 HD
ENDBRANCH  27  28
BRANCH  27  30
ATOM     30  C   UNL     1      46.349  12.230  17.024  0.00  0.00    +0.425 C 
ATOM     31  O   UNL     1      45.149  12.190  16.898  0.00  0.00    -0.441 OA
ENDBRANCH  27  30
ENDBRANCH  24  27
ENDBRANCH  21  24
ENDBRANCH  18  21
ENDBRANCH  17  18
ENDBRANCH  16  17
ENDBRANCH  15  16
TORSDOF 14
ENDMDL
MODEL 9
REMARK VINA RESULT:      -5.6      3.811      7.477
REMARK  Name = ZINC95486127
REMARK  15 active torsions:
REMARK  status: ('A' for Active; 'I' for Inactive)
REMARK    1  A    between atoms: C1_1  and  O1_2
REMARK    2  A    between atoms: O1_2  and  C2_3
REMARK    3  A    between atoms: C5_6  and  C8_9
REMARK    4  A    between atoms: C12_15  and  O10_37
REMARK    5  A    between atoms: C14_17  and  O4_21
REMARK    6  A    between atoms: O4_21  and  C17_22
REMARK    7  A    between atoms: C17_22  and  C18_23
REMARK    8  A    between atoms: C18_23  and  C19_25
REMARK    9  A    between atoms: C18_23  and  O9_36
REMARK   10  A    between atoms: C19_25  and  C20_27
REMARK   11  A    between atoms: C19_25  and  O8_35
REMARK   12  A    between atoms: C20_27  and  C21_29
REMARK   13  A    between atoms: C20_27  and  O7_34
REMARK   14  A    between atoms: C21_29  and  C22_31
REMARK   15  A    between atoms: C21_29  and  O6_33
REMARK                            x       y       z     vdW  Elec       q    Type
REMARK                         _______ _______ _______ _____ _____    ______ ____
ROOT
ATOM      7  C   UNL     1      46.123  16.801  18.524  0.00  0.00    +0.240 C 
ATOM      8  C   UNL     1      45.043  16.839  19.615  0.00  0.00    +0.036 C 
ATOM      9  C   UNL     1      44.925  18.279  20.080  0.00  0.00    +0.401 C 
ATOM     10  C   UNL     1      46.178  19.028  20.221  0.00  0.00    -0.318 A 
ATOM     11  C   UNL     1      46.202  20.268  20.881  0.00  0.00    +0.245 A 
ATOM     14  C   UNL     1      47.395  20.959  20.989  0.00  0.00    -0.141 A 
ATOM     15  C   UNL     1      48.560  20.426  20.449  0.00  0.00    +0.217 A 
ATOM     32  C   UNL     1      48.543  19.199  19.800  0.00  0.00    -0.056 A 
ATOM     33  C   UNL     1      47.361  18.489  19.683  0.00  0.00    +0.236 A 
ATOM     34  O   UNL     1      43.849  18.784  20.325  0.00  0.00    -0.431 OA
ATOM     35  O   UNL     1      47.354  17.286  19.060  0.00  0.00    -0.296 OA
ENDROOT
BRANCH   7   6
ATOM      3  C   UNL     1      46.646  12.780  17.172  0.00  0.00    +0.139 A 
ATOM      4  C   UNL     1      47.217  13.831  16.468  0.00  0.00    -0.075 A 
ATOM      5  C   UNL     1      47.046  15.130  16.906  0.00  0.00    +0.071 A 
ATOM      6  C   UNL     1      46.307  15.383  18.048  0.00  0.00    -0.132 A 
ATOM     36  C   UNL     1      45.738  14.339  18.752  0.00  0.00    +0.086 A 
ATOM     37  C   UNL     1      45.900  13.038  18.314  0.00  0.00    -0.017 A 
BRANCH   3   2
ATOM      1  C   UNL     1      45.742  10.927  15.990  0.00  0.00    +0.243 C 
ATOM      2  O   UNL     1      46.812  11.502  16.743  0.00  0.00    -0.316 OA
ENDBRANCH   3   2
ENDBRANCH   7   6
BRANCH  11  12
ATOM     12  O   UNL     1      45.064  20.783  21.408  0.00  0.00    -0.478 OA
ATOM     13  H   UNL     1      44.846  21.667  21.085  0.00  0.00    +0.401 HD
ENDBRANCH  11  12
BRANCH  15  16
ATOM     16  O   UNL     1      49.725  21.114  20.556  0.00  0.00    -0.292 OA
BRANCH  16  17
ATOM     17  C   UNL     1      50.904  20.470  20.071  0.00  0.00    +0.183 C 
BRANCH  17  18
ATOM     18  C   UNL     1      51.528  21.319  18.960  0.00  0.00    +0.205 C 
BRANCH  18  19
ATOM     19  O   UNL     1      52.923  21.493  19.220  0.00  0.00    -0.539 OA
ATOM     20  H   UNL     1      53.482  20.800  18.843  0.00  0.00    +0.376 HD
ENDBRANCH  18  19
BRANCH  18  21
ATOM     21  C   UNL     1      51.344  20.613  17.614  0.00  0.00    +0.171 C 
BRANCH  21  22
ATOM     22  O   UNL     1      52.304  21.111  16.681  0.00  0.00    -0.528 OA
ATOM     23  H   UNL     1      52.307  20.647  15.833  0.00  0.00    +0.371 HD
ENDBRANCH  21  22
BRANCH  21  24
ATOM     24  C   UNL     1      51.543  19.108  17.797  0.00  0.00    +0.186 C 
BRANCH  24  25
ATOM     25  O   UNL     1      52.936  18.824  17.937  0.00  0.00    -0.544 OA
ATOM     26  H   UNL     1      53.500  19.306  17.316  0.00  0.00    +0.371 HD
ENDBRANCH  24  25
BRANCH  24  27
ATOM     27  C   UNL     1      50.992  18.369  16.575  0.00  0.00    +0.150 C 
BRANCH  27  28
ATOM     28  O   UNL     1      52.051  18.129  15.647  0.00  0.00    -0.521 OA
ATOM     29  H   UNL     1      51.970  17.295  15.163  0.00  0.00    +0.372 HD
ENDBRANCH  27  28
BRANCH  27  30
ATOM     30  C   UNL     1      50.397  17.054  17.009  0.00  0.00    +0.425 C 
ATOM     31  O   UNL     1      50.625  16.623  18.113  0.00  0.00    -0.441 OA
ENDBRANCH  27  30
ENDBRANCH  24  27
ENDBRANCH  21  24
ENDBRANCH  18  21
ENDBRANCH  17  18
ENDBRANCH  16  17
ENDBRANCH  15  16
TORSDOF 14
ENDMDL
