MODEL 1
REMARK VINA RESULT:      -5.2      0.000      0.000
REMARK  Name = ZINC95486026
REMARK  3 active torsions:
REMARK  status: ('A' for Active; 'I' for Inactive)
REMARK    1  A    between atoms: C1_1  and  C2_2
REMARK    2  A    between atoms: C2_2  and  C4_4
REMARK    3  A    between atoms: C5_5  and  C6_6
REMARK                            x       y       z     vdW  Elec       q    Type
REMARK                         _______ _______ _______ _____ _____    ______ ____
ROOT
ATOM      5  C   UNL     1      48.334  20.728  19.509  0.00  0.00    -0.038 A 
ATOM      6  C   UNL     1      48.333  21.170  20.842  0.00  0.00    -0.012 A 
ATOM      7  C   UNL     1      47.183  21.617  21.418  0.00  0.00    +0.054 A 
ATOM      8  C   UNL     1      45.993  21.635  20.682  0.00  0.00    -0.108 A 
ATOM      9  C   UNL     1      44.620  22.039  20.987  0.00  0.00    -0.059 A 
ATOM     10  C   UNL     1      43.892  21.831  19.877  0.00  0.00    +0.224 A 
ATOM     11  N   UNL     1      44.688  21.325  18.885  0.00  0.00    -0.597 N 
ATOM     12  H   UNL     1      44.387  21.095  17.992  0.00  0.00    +0.416 HD
ATOM     13  C   UNL     1      45.980  21.193  19.344  0.00  0.00    +0.094 A 
ATOM     14  C   UNL     1      47.157  20.746  18.762  0.00  0.00    +0.004 A 
ENDROOT
BRANCH   5   4
ATOM      3  C   UNL     1      50.392  21.110  18.252  0.00  0.00    +0.007 C 
ATOM      4  C   UNL     1      49.583  20.247  18.897  0.00  0.00    +0.015 C 
BRANCH   3   2
ATOM      1  C   UNL     1      51.877  20.829  16.168  0.00  0.00    +0.077 C 
ATOM      2  C   UNL     1      51.636  20.631  17.642  0.00  0.00    -0.103 C 
ATOM     15  C   UNL     1      52.553  20.020  18.391  0.00  0.00    +0.025 C 
ENDBRANCH   3   2
ENDBRANCH   5   4
TORSDOF 2
ENDMDL
MODEL 2
REMARK VINA RESULT:      -5.2      1.574      2.746
REMARK  Name = ZINC95486026
REMARK  3 active torsions:
REMARK  status: ('A' for Active; 'I' for Inactive)
REMARK    1  A    between atoms: C1_1  and  C2_2
REMARK    2  A    between atoms: C2_2  and  C4_4
REMARK    3  A    between atoms: C5_5  and  C6_6
REMARK                            x       y       z     vdW  Elec       q    Type
REMARK                         _______ _______ _______ _____ _____    ______ ____
ROOT
ATOM      5  C   UNL     1      46.606  20.743  19.285  0.00  0.00    -0.038 A 
ATOM      6  C   UNL     1      46.263  19.518  18.690  0.00  0.00    -0.012 A 
ATOM      7  C   UNL     1      44.960  19.221  18.428  0.00  0.00    +0.054 A 
ATOM      8  C   UNL     1      43.955  20.139  18.750  0.00  0.00    -0.108 A 
ATOM      9  C   UNL     1      42.498  20.138  18.606  0.00  0.00    -0.059 A 
ATOM     10  C   UNL     1      42.053  21.307  19.098  0.00  0.00    +0.224 A 
ATOM     11  N   UNL     1      43.106  22.057  19.543  0.00  0.00    -0.597 N 
ATOM     12  H   UNL     1      43.034  22.940  19.940  0.00  0.00    +0.416 HD
ATOM     13  C   UNL     1      44.285  21.372  19.346  0.00  0.00    +0.094 A 
ATOM     14  C   UNL     1      45.614  21.665  19.616  0.00  0.00    +0.004 A 
ENDROOT
BRANCH   5   4
ATOM      3  C   UNL     1      48.989  20.494  18.816  0.00  0.00    +0.007 C 
ATOM      4  C   UNL     1      48.017  21.053  19.563  0.00  0.00    +0.015 C 
BRANCH   3   2
ATOM      1  C   UNL     1      50.906  20.775  20.511  0.00  0.00    +0.077 C 
ATOM      2  C   UNL     1      50.394  20.802  19.093  0.00  0.00    -0.103 C 
ATOM     15  C   UNL     1      51.220  21.105  18.093  0.00  0.00    +0.025 C 
ENDBRANCH   3   2
ENDBRANCH   5   4
TORSDOF 2
ENDMDL
MODEL 3
REMARK VINA RESULT:      -5.1      5.800      7.782
REMARK  Name = ZINC95486026
REMARK  3 active torsions:
REMARK  status: ('A' for Active; 'I' for Inactive)
REMARK    1  A    between atoms: C1_1  and  C2_2
REMARK    2  A    between atoms: C2_2  and  C4_4
REMARK    3  A    between atoms: C5_5  and  C6_6
REMARK                            x       y       z     vdW  Elec       q    Type
REMARK                         _______ _______ _______ _____ _____    ______ ____
ROOT
ATOM      5  C   UNL     1      43.227  18.679  20.545  0.00  0.00    -0.038 A 
ATOM      6  C   UNL     1      42.653  18.207  21.737  0.00  0.00    -0.012 A 
ATOM      7  C   UNL     1      43.130  17.077  22.329  0.00  0.00    +0.054 A 
ATOM      8  C   UNL     1      44.197  16.381  21.752  0.00  0.00    -0.108 A 
ATOM      9  C   UNL     1      44.933  15.169  22.117  0.00  0.00    -0.059 A 
ATOM     10  C   UNL     1      45.870  14.978  21.173  0.00  0.00    +0.224 A 
ATOM     11  N   UNL     1      45.795  15.969  20.233  0.00  0.00    -0.597 N 
ATOM     12  H   UNL     1      46.369  16.044  19.455  0.00  0.00    +0.416 HD
ATOM     13  C   UNL     1      44.782  16.844  20.556  0.00  0.00    +0.094 A 
ATOM     14  C   UNL     1      44.287  17.993  19.955  0.00  0.00    +0.004 A 
ENDROOT
BRANCH   5   4
ATOM      3  C   UNL     1      41.405  19.973  19.560  0.00  0.00    +0.007 C 
ATOM      4  C   UNL     1      42.703  19.901  19.915  0.00  0.00    +0.015 C 
BRANCH   3   2
ATOM      1  C   UNL     1      39.456  21.239  18.454  0.00  0.00    +0.077 C 
ATOM      2  C   UNL     1      40.884  21.190  18.931  0.00  0.00    -0.103 C 
ATOM     15  C   UNL     1      41.674  22.252  18.781  0.00  0.00    +0.025 C 
ENDBRANCH   3   2
ENDBRANCH   5   4
TORSDOF 2
ENDMDL
MODEL 4
REMARK VINA RESULT:      -5.0      2.262      4.340
REMARK  Name = ZINC95486026
REMARK  3 active torsions:
REMARK  status: ('A' for Active; 'I' for Inactive)
REMARK    1  A    between atoms: C1_1  and  C2_2
REMARK    2  A    between atoms: C2_2  and  C4_4
REMARK    3  A    between atoms: C5_5  and  C6_6
REMARK                            x       y       z     vdW  Elec       q    Type
REMARK                         _______ _______ _______ _____ _____    ______ ____
ROOT
ATOM      5  C   UNL     1      44.375  20.595  20.155  0.00  0.00    -0.038 A 
ATOM      6  C   UNL     1      43.701  19.378  20.342  0.00  0.00    -0.012 A 
ATOM      7  C   UNL     1      42.401  19.244  19.960  0.00  0.00    +0.054 A 
ATOM      8  C   UNL     1      41.729  20.323  19.376  0.00  0.00    -0.108 A 
ATOM      9  C   UNL     1      40.372  20.514  18.864  0.00  0.00    -0.059 A 
ATOM     10  C   UNL     1      40.294  21.778  18.414  0.00  0.00    +0.224 A 
ATOM     11  N   UNL     1      41.493  22.412  18.595  0.00  0.00    -0.597 N 
ATOM     12  H   UNL     1      41.680  23.331  18.348  0.00  0.00    +0.416 HD
ATOM     13  C   UNL     1      42.393  21.551  19.182  0.00  0.00    +0.094 A 
ATOM     14  C   UNL     1      43.716  21.681  19.580  0.00  0.00    +0.004 A 
ENDROOT
BRANCH   5   4
ATOM      3  C   UNL     1      46.756  20.771  19.643  0.00  0.00    +0.007 C 
ATOM      4  C   UNL     1      45.780  20.727  20.571  0.00  0.00    +0.015 C 
BRANCH   3   2
ATOM      1  C   UNL     1      49.258  20.768  19.040  0.00  0.00    +0.077 C 
ATOM      2  C   UNL     1      48.155  20.902  20.058  0.00  0.00    -0.103 C 
ATOM     15  C   UNL     1      48.452  21.138  21.335  0.00  0.00    +0.025 C 
ENDBRANCH   3   2
ENDBRANCH   5   4
TORSDOF 2
ENDMDL
MODEL 5
REMARK VINA RESULT:      -4.7      2.411      6.222
REMARK  Name = ZINC95486026
REMARK  3 active torsions:
REMARK  status: ('A' for Active; 'I' for Inactive)
REMARK    1  A    between atoms: C1_1  and  C2_2
REMARK    2  A    between atoms: C2_2  and  C4_4
REMARK    3  A    between atoms: C5_5  and  C6_6
REMARK                            x       y       z     vdW  Elec       q    Type
REMARK                         _______ _______ _______ _____ _____    ______ ____
ROOT
ATOM      5  C   UNL     1      49.403  20.310  19.287  0.00  0.00    -0.038 A 
ATOM      6  C   UNL     1      49.349  18.933  19.018  0.00  0.00    -0.012 A 
ATOM      7  C   UNL     1      50.087  18.399  18.006  0.00  0.00    +0.054 A 
ATOM      8  C   UNL     1      50.907  19.224  17.228  0.00  0.00    -0.108 A 
ATOM      9  C   UNL     1      51.806  18.983  16.099  0.00  0.00    -0.059 A 
ATOM     10  C   UNL     1      52.334  20.170  15.756  0.00  0.00    +0.224 A 
ATOM     11  N   UNL     1      51.847  21.152  16.575  0.00  0.00    -0.597 N 
ATOM     12  H   UNL     1      52.084  22.091  16.521  0.00  0.00    +0.416 HD
ATOM     13  C   UNL     1      50.971  20.607  17.487  0.00  0.00    +0.094 A 
ATOM     14  C   UNL     1      50.211  21.145  18.516  0.00  0.00    +0.004 A 
ENDROOT
BRANCH   5   4
ATOM      3  C   UNL     1      47.296  21.149  20.191  0.00  0.00    +0.007 C 
ATOM      4  C   UNL     1      48.601  20.875  20.383  0.00  0.00    +0.015 C 
BRANCH   3   2
ATOM      1  C   UNL     1      45.854  20.800  22.295  0.00  0.00    +0.077 C 
ATOM      2  C   UNL     1      46.497  21.713  21.282  0.00  0.00    -0.103 C 
ATOM     15  C   UNL     1      46.339  23.032  21.380  0.00  0.00    +0.025 C 
ENDBRANCH   3   2
ENDBRANCH   5   4
TORSDOF 2
ENDMDL
MODEL 6
REMARK VINA RESULT:      -4.7      4.217      6.971
REMARK  Name = ZINC95486026
REMARK  3 active torsions:
REMARK  status: ('A' for Active; 'I' for Inactive)
REMARK    1  A    between atoms: C1_1  and  C2_2
REMARK    2  A    between atoms: C2_2  and  C4_4
REMARK    3  A    between atoms: C5_5  and  C6_6
REMARK                            x       y       z     vdW  Elec       q    Type
REMARK                         _______ _______ _______ _____ _____    ______ ____
ROOT
ATOM      5  C   UNL     1      43.790  21.392  19.817  0.00  0.00    -0.038 A 
ATOM      6  C   UNL     1      44.765  20.531  20.345  0.00  0.00    -0.012 A 
ATOM      7  C   UNL     1      45.848  21.036  20.999  0.00  0.00    +0.054 A 
ATOM      8  C   UNL     1      45.992  22.419  21.149  0.00  0.00    -0.108 A 
ATOM      9  C   UNL     1      47.002  23.270  21.779  0.00  0.00    -0.059 A 
ATOM     10  C   UNL     1      46.607  24.544  21.610  0.00  0.00    +0.224 A 
ATOM     11  N   UNL     1      45.425  24.577  20.923  0.00  0.00    -0.597 N 
ATOM     12  H   UNL     1      44.943  25.384  20.681  0.00  0.00    +0.416 HD
ATOM     13  C   UNL     1      45.020  23.295  20.625  0.00  0.00    +0.094 A 
ATOM     14  C   UNL     1      43.923  22.773  19.954  0.00  0.00    +0.004 A 
ENDROOT
BRANCH   5   4
ATOM      3  C   UNL     1      41.433  21.461  19.182  0.00  0.00    +0.007 C 
ATOM      4  C   UNL     1      42.624  20.835  19.113  0.00  0.00    +0.015 C 
BRANCH   3   2
ATOM      1  C   UNL     1      40.400  19.610  17.721  0.00  0.00    +0.077 C 
ATOM      2  C   UNL     1      40.272  20.906  18.481  0.00  0.00    -0.103 C 
ATOM     15  C   UNL     1      39.104  21.545  18.516  0.00  0.00    +0.025 C 
ENDBRANCH   3   2
ENDBRANCH   5   4
TORSDOF 2
ENDMDL
MODEL 7
REMARK VINA RESULT:      -4.7     18.746     20.890
REMARK  Name = ZINC95486026
REMARK  3 active torsions:
REMARK  status: ('A' for Active; 'I' for Inactive)
REMARK    1  A    between atoms: C1_1  and  C2_2
REMARK    2  A    between atoms: C2_2  and  C4_4
REMARK    3  A    between atoms: C5_5  and  C6_6
REMARK                            x       y       z     vdW  Elec       q    Type
REMARK                         _______ _______ _______ _____ _____    ______ ____
ROOT
ATOM      5  C   UNL     1      55.467  32.906   4.609  0.00  0.00    -0.038 A 
ATOM      6  C   UNL     1      56.659  33.221   5.279  0.00  0.00    -0.012 A 
ATOM      7  C   UNL     1      57.830  32.628   4.916  0.00  0.00    +0.054 A 
ATOM      8  C   UNL     1      57.849  31.699   3.870  0.00  0.00    -0.108 A 
ATOM      9  C   UNL     1      58.904  30.901   3.242  0.00  0.00    -0.059 A 
ATOM     10  C   UNL     1      58.324  30.177   2.270  0.00  0.00    +0.224 A 
ATOM     11  N   UNL     1      56.984  30.447   2.223  0.00  0.00    -0.597 N 
ATOM     12  H   UNL     1      56.356  30.045   1.603  0.00  0.00    +0.416 HD
ATOM     13  C   UNL     1      56.659  31.374   3.189  0.00  0.00    +0.094 A 
ATOM     14  C   UNL     1      55.469  31.978   3.568  0.00  0.00    +0.004 A 
ENDROOT
BRANCH   5   4
ATOM      3  C   UNL     1      53.562  33.142   6.118  0.00  0.00    +0.007 C 
ATOM      4  C   UNL     1      54.208  33.553   5.010  0.00  0.00    +0.015 C 
BRANCH   3   2
ATOM      1  C   UNL     1      52.338  35.047   7.342  0.00  0.00    +0.077 C 
ATOM      2  C   UNL     1      52.308  33.787   6.517  0.00  0.00    -0.103 C 
ATOM     15  C   UNL     1      51.141  33.258   6.151  0.00  0.00    +0.025 C 
ENDBRANCH   3   2
ENDBRANCH   5   4
TORSDOF 2
ENDMDL
MODEL 8
REMARK VINA RESULT:      -4.7      2.370      3.697
REMARK  Name = ZINC95486026
REMARK  3 active torsions:
REMARK  status: ('A' for Active; 'I' for Inactive)
REMARK    1  A    between atoms: C1_1  and  C2_2
REMARK    2  A    between atoms: C2_2  and  C4_4
REMARK    3  A    between atoms: C5_5  and  C6_6
REMARK                            x       y       z     vdW  Elec       q    Type
REMARK                         _______ _______ _______ _____ _____    ______ ____
ROOT
ATOM      5  C   UNL     1      45.500  20.292  20.151  0.00  0.00    -0.038 A 
ATOM      6  C   UNL     1      44.953  20.336  18.859  0.00  0.00    -0.012 A 
ATOM      7  C   UNL     1      43.641  20.033  18.657  0.00  0.00    +0.054 A 
ATOM      8  C   UNL     1      42.830  19.676  19.740  0.00  0.00    -0.108 A 
ATOM      9  C   UNL     1      41.421  19.303  19.871  0.00  0.00    -0.059 A 
ATOM     10  C   UNL     1      41.196  19.063  21.175  0.00  0.00    +0.224 A 
ATOM     11  N   UNL     1      42.348  19.253  21.889  0.00  0.00    -0.597 N 
ATOM     12  H   UNL     1      42.433  19.140  22.849  0.00  0.00    +0.416 HD
ATOM     13  C   UNL     1      43.367  19.629  21.042  0.00  0.00    +0.094 A 
ATOM     14  C   UNL     1      44.706  19.933  21.239  0.00  0.00    +0.004 A 
ENDROOT
BRANCH   5   4
ATOM      3  C   UNL     1      47.816  20.375  19.383  0.00  0.00    +0.007 C 
ATOM      4  C   UNL     1      46.919  20.623  20.357  0.00  0.00    +0.015 C 
BRANCH   3   2
ATOM      1  C   UNL     1      50.115  20.996  18.404  0.00  0.00    +0.077 C 
ATOM      2  C   UNL     1      49.230  20.703  19.589  0.00  0.00    -0.103 C 
ATOM     15  C   UNL     1      49.732  20.742  20.822  0.00  0.00    +0.025 C 
ENDBRANCH   3   2
ENDBRANCH   5   4
TORSDOF 2
ENDMDL
MODEL 9
REMARK VINA RESULT:      -4.7     18.923     19.997
REMARK  Name = ZINC95486026
REMARK  3 active torsions:
REMARK  status: ('A' for Active; 'I' for Inactive)
REMARK    1  A    between atoms: C1_1  and  C2_2
REMARK    2  A    between atoms: C2_2  and  C4_4
REMARK    3  A    between atoms: C5_5  and  C6_6
REMARK                            x       y       z     vdW  Elec       q    Type
REMARK                         _______ _______ _______ _____ _____    ______ ____
ROOT
ATOM      5  C   UNL     1      55.582  33.133   5.224  0.00  0.00    -0.038 A 
ATOM      6  C   UNL     1      54.489  32.399   4.736  0.00  0.00    -0.012 A 
ATOM      7  C   UNL     1      53.225  32.687   5.152  0.00  0.00    +0.054 A 
ATOM      8  C   UNL     1      53.009  33.720   6.071  0.00  0.00    -0.108 A 
ATOM      9  C   UNL     1      51.815  34.277   6.708  0.00  0.00    -0.059 A 
ATOM     10  C   UNL     1      52.225  35.273   7.511  0.00  0.00    +0.224 A 
ATOM     11  N   UNL     1      53.585  35.400   7.440  0.00  0.00    -0.597 N 
ATOM     12  H   UNL     1      54.110  36.051   7.931  0.00  0.00    +0.416 HD
ATOM     13  C   UNL     1      54.097  34.465   6.568  0.00  0.00    +0.094 A 
ATOM     14  C   UNL     1      55.383  34.162   6.144  0.00  0.00    +0.004 A 
ENDROOT
BRANCH   5   4
ATOM      3  C   UNL     1      57.127  31.919   3.775  0.00  0.00    +0.007 C 
ATOM      4  C   UNL     1      56.943  32.813   4.766  0.00  0.00    +0.015 C 
BRANCH   3   2
ATOM      1  C   UNL     1      59.186  32.512   2.348  0.00  0.00    +0.077 C 
ATOM      2  C   UNL     1      58.483  31.599   3.319  0.00  0.00    -0.103 C 
ATOM     15  C   UNL     1      59.093  30.501   3.763  0.00  0.00    +0.025 C 
ENDBRANCH   3   2
ENDBRANCH   5   4
TORSDOF 2
ENDMDL
