MODEL 1
REMARK VINA RESULT:      -5.0      0.000      0.000
REMARK  Name = ZINC14725153
REMARK  8 active torsions:
REMARK  status: ('A' for Active; 'I' for Inactive)
REMARK    1  A    between atoms: C1_1  and  N1_2
REMARK    2  A    between atoms: C11_13  and  O5_22
REMARK    3  A    between atoms: C12_14  and  O4_20
REMARK    4  A    between atoms: C13_15  and  O3_18
REMARK    5  A    between atoms: C14_16  and  O2_17
REMARK    6  A    between atoms: O3_18  and  C15_19
REMARK    7  A    between atoms: O4_20  and  C16_21
REMARK    8  A    between atoms: O5_22  and  C17_23
REMARK                            x       y       z     vdW  Elec       q    Type
REMARK                         _______ _______ _______ _____ _____    ______ ____
ROOT
ATOM      1  C   UNL     1      49.550  16.373  17.271  0.00  0.00    +0.317 C 
ATOM      2  N   UNL     1      49.262  17.635  17.957  0.00  0.00    -0.511 N 
ATOM      3  C   UNL     1      50.165  18.671  17.846  0.00  0.00    +0.217 A 
ATOM      4  C   UNL     1      51.326  18.508  17.094  0.00  0.00    -0.048 A 
ATOM      5  C   UNL     1      52.229  19.541  16.985  0.00  0.00    +0.087 A 
ATOM      6  C   UNL     1      51.996  20.754  17.617  0.00  0.00    -0.033 A 
ATOM      7  C   UNL     1      50.855  20.939  18.366  0.00  0.00    +0.119 A 
ATOM      8  C   UNL     1      49.931  19.900  18.486  0.00  0.00    -0.211 A 
ATOM      9  C   UNL     1      48.703  20.075  19.283  0.00  0.00    +0.439 A 
ATOM     10  C   UNL     1      47.777  18.936  19.366  0.00  0.00    -0.229 A 
ATOM     11  C   UNL     1      46.590  19.033  20.107  0.00  0.00    +0.199 A 
ATOM     14  C   UNL     1      45.732  17.949  20.172  0.00  0.00    +0.013 A 
ATOM     17  C   UNL     1      46.050  16.765  19.508  0.00  0.00    +0.143 A 
ATOM     20  C   UNL     1      47.219  16.663  18.766  0.00  0.00    +0.012 A 
ATOM     23  O   UNL     1      48.464  21.124  19.853  0.00  0.00    -0.448 OA
ATOM     24  C   UNL     1      48.095  17.743  18.691  0.00  0.00    +0.239 A 
ENDROOT
BRANCH  11  12
ATOM     12  O   UNL     1      46.283  20.186  20.758  0.00  0.00    -0.460 OA
ATOM     13  H   UNL     1      45.353  20.441  20.686  0.00  0.00    +0.397 HD
ENDBRANCH  11  12
BRANCH  14  15
ATOM     15  O   UNL     1      44.578  18.036  20.890  0.00  0.00    -0.311 OA
ATOM     16  C   UNL     1      43.439  18.582  20.223  0.00  0.00    +0.225 C 
ENDBRANCH  14  15
BRANCH  17  18
ATOM     18  O   UNL     1      45.205  15.703  19.580  0.00  0.00    -0.326 OA
ATOM     19  C   UNL     1      45.404  14.786  20.658  0.00  0.00    +0.250 C 
ENDBRANCH  17  18
BRANCH  20  21
ATOM     21  O   UNL     1      47.513  15.502  18.119  0.00  0.00    -0.315 OA
ATOM     22  C   UNL     1      46.685  15.149  17.009  0.00  0.00    +0.233 C 
ENDBRANCH  20  21
TORSDOF 4
ENDMDL
MODEL 2
REMARK VINA RESULT:      -5.0      1.307      3.477
REMARK  Name = ZINC14725153
REMARK  8 active torsions:
REMARK  status: ('A' for Active; 'I' for Inactive)
REMARK    1  A    between atoms: C1_1  and  N1_2
REMARK    2  A    between atoms: C11_13  and  O5_22
REMARK    3  A    between atoms: C12_14  and  O4_20
REMARK    4  A    between atoms: C13_15  and  O3_18
REMARK    5  A    between atoms: C14_16  and  O2_17
REMARK    6  A    between atoms: O3_18  and  C15_19
REMARK    7  A    between atoms: O4_20  and  C16_21
REMARK    8  A    between atoms: O5_22  and  C17_23
REMARK                            x       y       z     vdW  Elec       q    Type
REMARK                         _______ _______ _______ _____ _____    ______ ____
ROOT
ATOM      1  C   UNL     1      47.822  20.586  19.716  0.00  0.00    +0.317 C 
ATOM      2  N   UNL     1      48.437  19.467  18.998  0.00  0.00    -0.511 N 
ATOM      3  C   UNL     1      49.683  19.645  18.436  0.00  0.00    +0.217 A 
ATOM      4  C   UNL     1      50.334  20.871  18.555  0.00  0.00    -0.048 A 
ATOM      5  C   UNL     1      51.578  21.050  17.991  0.00  0.00    +0.087 A 
ATOM      6  C   UNL     1      52.198  20.017  17.303  0.00  0.00    -0.033 A 
ATOM      7  C   UNL     1      51.575  18.796  17.174  0.00  0.00    +0.119 A 
ATOM      8  C   UNL     1      50.313  18.600  17.739  0.00  0.00    -0.211 A 
ATOM      9  C   UNL     1      49.626  17.301  17.613  0.00  0.00    +0.439 A 
ATOM     10  C   UNL     1      48.299  17.170  18.232  0.00  0.00    -0.229 A 
ATOM     11  C   UNL     1      47.589  15.963  18.149  0.00  0.00    +0.199 A 
ATOM     14  C   UNL     1      46.341  15.861  18.740  0.00  0.00    +0.013 A 
ATOM     17  C   UNL     1      45.792  16.954  19.407  0.00  0.00    +0.143 A 
ATOM     20  C   UNL     1      46.491  18.150  19.499  0.00  0.00    +0.012 A 
ATOM     23  O   UNL     1      50.138  16.371  17.016  0.00  0.00    -0.448 OA
ATOM     24  C   UNL     1      47.747  18.272  18.910  0.00  0.00    +0.239 A 
ENDROOT
BRANCH  11  12
ATOM     12  O   UNL     1      48.124  14.899  17.495  0.00  0.00    -0.460 OA
ATOM     13  H   UNL     1      47.473  14.363  17.020  0.00  0.00    +0.397 HD
ENDBRANCH  11  12
BRANCH  14  15
ATOM     15  O   UNL     1      45.647  14.692  18.663  0.00  0.00    -0.311 OA
ATOM     16  C   UNL     1      45.966  13.684  19.623  0.00  0.00    +0.225 C 
ENDBRANCH  14  15
BRANCH  17  18
ATOM     18  O   UNL     1      44.564  16.847  19.979  0.00  0.00    -0.326 OA
ATOM     19  C   UNL     1      44.522  16.513  21.368  0.00  0.00    +0.250 C 
ENDBRANCH  17  18
BRANCH  20  21
ATOM     21  O   UNL     1      45.943  19.208  20.159  0.00  0.00    -0.315 OA
ATOM     22  C   UNL     1      44.787  19.809  19.574  0.00  0.00    +0.233 C 
ENDBRANCH  20  21
TORSDOF 4
ENDMDL
MODEL 3
REMARK VINA RESULT:      -4.9      1.859      4.182
REMARK  Name = ZINC14725153
REMARK  8 active torsions:
REMARK  status: ('A' for Active; 'I' for Inactive)
REMARK    1  A    between atoms: C1_1  and  N1_2
REMARK    2  A    between atoms: C11_13  and  O5_22
REMARK    3  A    between atoms: C12_14  and  O4_20
REMARK    4  A    between atoms: C13_15  and  O3_18
REMARK    5  A    between atoms: C14_16  and  O2_17
REMARK    6  A    between atoms: O3_18  and  C15_19
REMARK    7  A    between atoms: O4_20  and  C16_21
REMARK    8  A    between atoms: O5_22  and  C17_23
REMARK                            x       y       z     vdW  Elec       q    Type
REMARK                         _______ _______ _______ _____ _____    ______ ____
ROOT
ATOM      1  C   UNL     1      47.951  18.919  19.532  0.00  0.00    +0.317 C 
ATOM      2  N   UNL     1      48.964  18.313  18.665  0.00  0.00    -0.511 N 
ATOM      3  C   UNL     1      50.010  19.093  18.221  0.00  0.00    +0.217 A 
ATOM      4  C   UNL     1      50.090  20.433  18.597  0.00  0.00    -0.048 A 
ATOM      5  C   UNL     1      51.133  21.213  18.152  0.00  0.00    +0.087 A 
ATOM      6  C   UNL     1      52.115  20.680  17.329  0.00  0.00    -0.033 A 
ATOM      7  C   UNL     1      52.058  19.359  16.946  0.00  0.00    +0.119 A 
ATOM      8  C   UNL     1      51.006  18.556  17.388  0.00  0.00    -0.211 A 
ATOM      9  C   UNL     1      50.923  17.138  16.990  0.00  0.00    +0.439 A 
ATOM     10  C   UNL     1      49.785  16.355  17.493  0.00  0.00    -0.229 A 
ATOM     11  C   UNL     1      49.644  15.001  17.152  0.00  0.00    +0.199 A 
ATOM     14  C   UNL     1      48.566  14.282  17.637  0.00  0.00    +0.013 A 
ATOM     17  C   UNL     1      47.622  14.902  18.455  0.00  0.00    +0.143 A 
ATOM     20  C   UNL     1      47.758  16.239  18.802  0.00  0.00    +0.012 A 
ATOM     23  O   UNL     1      51.766  16.635  16.269  0.00  0.00    -0.448 OA
ATOM     24  C   UNL     1      48.836  16.979  18.323  0.00  0.00    +0.239 A 
ENDROOT
BRANCH  11  12
ATOM     12  O   UNL     1      50.562  14.399  16.352  0.00  0.00    -0.460 OA
ATOM     13  H   UNL     1      51.314  14.963  16.124  0.00  0.00    +0.397 HD
ENDBRANCH  11  12
BRANCH  14  15
ATOM     15  O   UNL     1      48.423  12.968  17.310  0.00  0.00    -0.311 OA
ATOM     16  C   UNL     1      47.659  12.670  16.140  0.00  0.00    +0.225 C 
ENDBRANCH  14  15
BRANCH  17  18
ATOM     18  O   UNL     1      46.564  14.190  18.923  0.00  0.00    -0.326 OA
ATOM     19  C   UNL     1      46.746  13.487  20.153  0.00  0.00    +0.250 C 
ENDBRANCH  17  18
BRANCH  20  21
ATOM     21  O   UNL     1      46.831  16.829  19.606  0.00  0.00    -0.315 OA
ATOM     22  C   UNL     1      45.515  16.988  19.072  0.00  0.00    +0.233 C 
ENDBRANCH  20  21
TORSDOF 4
ENDMDL
MODEL 4
REMARK VINA RESULT:      -4.9      1.763      3.047
REMARK  Name = ZINC14725153
REMARK  8 active torsions:
REMARK  status: ('A' for Active; 'I' for Inactive)
REMARK    1  A    between atoms: C1_1  and  N1_2
REMARK    2  A    between atoms: C11_13  and  O5_22
REMARK    3  A    between atoms: C12_14  and  O4_20
REMARK    4  A    between atoms: C13_15  and  O3_18
REMARK    5  A    between atoms: C14_16  and  O2_17
REMARK    6  A    between atoms: O3_18  and  C15_19
REMARK    7  A    between atoms: O4_20  and  C16_21
REMARK    8  A    between atoms: O5_22  and  C17_23
REMARK                            x       y       z     vdW  Elec       q    Type
REMARK                         _______ _______ _______ _____ _____    ______ ____
ROOT
ATOM      1  C   UNL     1      51.684  16.474  16.708  0.00  0.00    +0.317 C 
ATOM      2  N   UNL     1      50.597  17.214  17.354  0.00  0.00    -0.511 N 
ATOM      3  C   UNL     1      50.804  18.532  17.698  0.00  0.00    +0.217 A 
ATOM      4  C   UNL     1      52.031  19.138  17.432  0.00  0.00    -0.048 A 
ATOM      5  C   UNL     1      52.240  20.454  17.778  0.00  0.00    +0.087 A 
ATOM      6  C   UNL     1      51.238  21.193  18.390  0.00  0.00    -0.033 A 
ATOM      7  C   UNL     1      50.018  20.616  18.663  0.00  0.00    +0.119 A 
ATOM      8  C   UNL     1      49.792  19.282  18.319  0.00  0.00    -0.211 A 
ATOM      9  C   UNL     1      48.493  18.642  18.601  0.00  0.00    +0.439 A 
ATOM     10  C   UNL     1      48.329  17.234  18.213  0.00  0.00    -0.229 A 
ATOM     11  C   UNL     1      47.120  16.564  18.453  0.00  0.00    +0.199 A 
ATOM     14  C   UNL     1      46.986  15.238  18.078  0.00  0.00    +0.013 A 
ATOM     17  C   UNL     1      48.050  14.572  17.472  0.00  0.00    +0.143 A 
ATOM     20  C   UNL     1      49.247  15.230  17.225  0.00  0.00    +0.012 A 
ATOM     23  O   UNL     1      47.590  19.258  19.138  0.00  0.00    -0.448 OA
ATOM     24  C   UNL     1      49.400  16.563  17.595  0.00  0.00    +0.239 A 
ENDROOT
BRANCH  11  12
ATOM     12  O   UNL     1      46.085  17.213  19.048  0.00  0.00    -0.460 OA
ATOM     13  H   UNL     1      45.220  16.819  18.869  0.00  0.00    +0.397 HD
ENDBRANCH  11  12
BRANCH  14  15
ATOM     15  O   UNL     1      45.815  14.581  18.308  0.00  0.00    -0.311 OA
ATOM     16  C   UNL     1      45.683  13.913  19.564  0.00  0.00    +0.225 C 
ENDBRANCH  14  15
BRANCH  17  18
ATOM     18  O   UNL     1      47.912  13.269  17.112  0.00  0.00    -0.326 OA
ATOM     19  C   UNL     1      47.437  13.006  15.790  0.00  0.00    +0.250 C 
ENDBRANCH  17  18
BRANCH  20  21
ATOM     21  O   UNL     1      50.275  14.567  16.627  0.00  0.00    -0.315 OA
ATOM     22  C   UNL     1      50.879  13.504  17.366  0.00  0.00    +0.233 C 
ENDBRANCH  20  21
TORSDOF 4
ENDMDL
MODEL 5
REMARK VINA RESULT:      -4.6      2.730      5.197
REMARK  Name = ZINC14725153
REMARK  8 active torsions:
REMARK  status: ('A' for Active; 'I' for Inactive)
REMARK    1  A    between atoms: C1_1  and  N1_2
REMARK    2  A    between atoms: C11_13  and  O5_22
REMARK    3  A    between atoms: C12_14  and  O4_20
REMARK    4  A    between atoms: C13_15  and  O3_18
REMARK    5  A    between atoms: C14_16  and  O2_17
REMARK    6  A    between atoms: O3_18  and  C15_19
REMARK    7  A    between atoms: O4_20  and  C16_21
REMARK    8  A    between atoms: O5_22  and  C17_23
REMARK                            x       y       z     vdW  Elec       q    Type
REMARK                         _______ _______ _______ _____ _____    ______ ____
ROOT
ATOM      1  C   UNL     1      46.080  16.809  17.830  0.00  0.00    +0.317 C 
ATOM      2  N   UNL     1      47.508  17.132  17.878  0.00  0.00    -0.511 N 
ATOM      3  C   UNL     1      47.893  18.365  18.360  0.00  0.00    +0.217 A 
ATOM      4  C   UNL     1      46.931  19.278  18.788  0.00  0.00    -0.048 A 
ATOM      5  C   UNL     1      47.314  20.511  19.266  0.00  0.00    +0.087 A 
ATOM      6  C   UNL     1      48.656  20.859  19.331  0.00  0.00    -0.033 A 
ATOM      7  C   UNL     1      49.624  19.972  18.915  0.00  0.00    +0.119 A 
ATOM      8  C   UNL     1      49.250  18.720  18.426  0.00  0.00    -0.211 A 
ATOM      9  C   UNL     1      50.270  17.754  17.974  0.00  0.00    +0.439 A 
ATOM     10  C   UNL     1      49.801  16.455  17.470  0.00  0.00    -0.229 A 
ATOM     11  C   UNL     1      50.716  15.491  17.023  0.00  0.00    +0.199 A 
ATOM     14  C   UNL     1      50.254  14.274  16.553  0.00  0.00    +0.013 A 
ATOM     17  C   UNL     1      48.885  14.012  16.518  0.00  0.00    +0.143 A 
ATOM     20  C   UNL     1      47.973  14.958  16.965  0.00  0.00    +0.012 A 
ATOM     23  O   UNL     1      51.457  18.024  18.015  0.00  0.00    -0.448 OA
ATOM     24  C   UNL     1      48.420  16.188  17.440  0.00  0.00    +0.239 A 
ENDROOT
BRANCH  11  12
ATOM     12  O   UNL     1      52.050  15.749  17.053  0.00  0.00    -0.460 OA
ATOM     13  H   UNL     1      52.485  15.667  16.193  0.00  0.00    +0.397 HD
ENDBRANCH  11  12
BRANCH  14  15
ATOM     15  O   UNL     1      51.137  13.333  16.117  0.00  0.00    -0.311 OA
ATOM     16  C   UNL     1      51.596  13.450  14.769  0.00  0.00    +0.225 C 
ENDBRANCH  14  15
BRANCH  17  18
ATOM     18  O   UNL     1      48.439  12.817  16.050  0.00  0.00    -0.326 OA
ATOM     19  C   UNL     1      48.045  12.762  14.678  0.00  0.00    +0.250 C 
ENDBRANCH  17  18
BRANCH  20  21
ATOM     21  O   UNL     1      46.640  14.686  16.930  0.00  0.00    -0.315 OA
ATOM     22  C   UNL     1      46.161  13.672  17.815  0.00  0.00    +0.233 C 
ENDBRANCH  20  21
TORSDOF 4
ENDMDL
MODEL 6
REMARK VINA RESULT:      -4.5     21.213     22.360
REMARK  Name = ZINC14725153
REMARK  8 active torsions:
REMARK  status: ('A' for Active; 'I' for Inactive)
REMARK    1  A    between atoms: C1_1  and  N1_2
REMARK    2  A    between atoms: C11_13  and  O5_22
REMARK    3  A    between atoms: C12_14  and  O4_20
REMARK    4  A    between atoms: C13_15  and  O3_18
REMARK    5  A    between atoms: C14_16  and  O2_17
REMARK    6  A    between atoms: O3_18  and  C15_19
REMARK    7  A    between atoms: O4_20  and  C16_21
REMARK    8  A    between atoms: O5_22  and  C17_23
REMARK                            x       y       z     vdW  Elec       q    Type
REMARK                         _______ _______ _______ _____ _____    ______ ____
ROOT
ATOM      1  C   UNL     1      54.571  31.708   1.399  0.00  0.00    +0.317 C 
ATOM      2  N   UNL     1      55.305  32.104   2.604  0.00  0.00    -0.511 N 
ATOM      3  C   UNL     1      56.592  31.642   2.777  0.00  0.00    +0.217 A 
ATOM      4  C   UNL     1      57.173  30.815   1.818  0.00  0.00    -0.048 A 
ATOM      5  C   UNL     1      58.457  30.351   1.992  0.00  0.00    +0.087 A 
ATOM      6  C   UNL     1      59.189  30.701   3.118  0.00  0.00    -0.033 A 
ATOM      7  C   UNL     1      58.637  31.519   4.079  0.00  0.00    +0.119 A 
ATOM      8  C   UNL     1      57.335  31.995   3.916  0.00  0.00    -0.211 A 
ATOM      9  C   UNL     1      56.723  32.872   4.932  0.00  0.00    +0.439 A 
ATOM     10  C   UNL     1      55.347  33.333   4.694  0.00  0.00    -0.229 A 
ATOM     11  C   UNL     1      54.704  34.167   5.620  0.00  0.00    +0.199 A 
ATOM     14  C   UNL     1      53.409  34.591   5.376  0.00  0.00    +0.013 A 
ATOM     17  C   UNL     1      52.747  34.184   4.219  0.00  0.00    +0.143 A 
ATOM     20  C   UNL     1      53.379  33.364   3.294  0.00  0.00    +0.012 A 
ATOM     23  O   UNL     1      57.334  33.200   5.933  0.00  0.00    -0.448 OA
ATOM     24  C   UNL     1      54.681  32.927   3.523  0.00  0.00    +0.239 A 
ENDROOT
BRANCH  11  12
ATOM     12  O   UNL     1      55.349  34.560   6.750  0.00  0.00    -0.460 OA
ATOM     13  H   UNL     1      55.580  33.831   7.342  0.00  0.00    +0.397 HD
ENDBRANCH  11  12
BRANCH  14  15
ATOM     15  O   UNL     1      52.778  35.401   6.271  0.00  0.00    -0.311 OA
ATOM     16  C   UNL     1      52.177  34.771   7.403  0.00  0.00    +0.225 C 
ENDBRANCH  14  15
BRANCH  17  18
ATOM     18  O   UNL     1      51.473  34.600   3.989  0.00  0.00    -0.326 OA
ATOM     19  C   UNL     1      50.423  33.686   4.313  0.00  0.00    +0.250 C 
ENDBRANCH  17  18
BRANCH  20  21
ATOM     21  O   UNL     1      52.721  32.979   2.166  0.00  0.00    -0.315 OA
ATOM     22  C   UNL     1      52.460  33.990   1.190  0.00  0.00    +0.233 C 
ENDBRANCH  20  21
TORSDOF 4
ENDMDL
MODEL 7
REMARK VINA RESULT:      -4.5      1.402      2.288
REMARK  Name = ZINC14725153
REMARK  8 active torsions:
REMARK  status: ('A' for Active; 'I' for Inactive)
REMARK    1  A    between atoms: C1_1  and  N1_2
REMARK    2  A    between atoms: C11_13  and  O5_22
REMARK    3  A    between atoms: C12_14  and  O4_20
REMARK    4  A    between atoms: C13_15  and  O3_18
REMARK    5  A    between atoms: C14_16  and  O2_17
REMARK    6  A    between atoms: O3_18  and  C15_19
REMARK    7  A    between atoms: O4_20  and  C16_21
REMARK    8  A    between atoms: O5_22  and  C17_23
REMARK                            x       y       z     vdW  Elec       q    Type
REMARK                         _______ _______ _______ _____ _____    ______ ____
ROOT
ATOM      1  C   UNL     1      47.685  16.995  17.452  0.00  0.00    +0.317 C 
ATOM      2  N   UNL     1      48.304  18.122  18.153  0.00  0.00    -0.511 N 
ATOM      3  C   UNL     1      49.593  18.482  17.821  0.00  0.00    +0.217 A 
ATOM      4  C   UNL     1      50.283  17.777  16.837  0.00  0.00    -0.048 A 
ATOM      5  C   UNL     1      51.571  18.134  16.507  0.00  0.00    +0.087 A 
ATOM      6  C   UNL     1      52.196  19.196  17.143  0.00  0.00    -0.033 A 
ATOM      7  C   UNL     1      51.534  19.909  18.118  0.00  0.00    +0.119 A 
ATOM      8  C   UNL     1      50.228  19.557  18.464  0.00  0.00    -0.211 A 
ATOM      9  C   UNL     1      49.499  20.305  19.505  0.00  0.00    +0.439 A 
ATOM     10  C   UNL     1      48.128  19.877  19.818  0.00  0.00    -0.229 A 
ATOM     11  C   UNL     1      47.378  20.543  20.798  0.00  0.00    +0.199 A 
ATOM     14  C   UNL     1      46.088  20.124  21.077  0.00  0.00    +0.013 A 
ATOM     17  C   UNL     1      45.542  19.041  20.390  0.00  0.00    +0.143 A 
ATOM     20  C   UNL     1      46.275  18.381  19.414  0.00  0.00    +0.012 A 
ATOM     23  O   UNL     1      50.015  21.243  20.087  0.00  0.00    -0.448 OA
ATOM     24  C   UNL     1      47.574  18.787  19.121  0.00  0.00    +0.239 A 
ENDROOT
BRANCH  11  12
ATOM     12  O   UNL     1      47.913  21.596  21.470  0.00  0.00    -0.460 OA
ATOM     13  H   UNL     1      48.860  21.717  21.319  0.00  0.00    +0.397 HD
ENDBRANCH  11  12
BRANCH  14  15
ATOM     15  O   UNL     1      45.355  20.766  22.028  0.00  0.00    -0.311 OA
ATOM     16  C   UNL     1      44.713  21.982  21.640  0.00  0.00    +0.225 C 
ENDBRANCH  14  15
BRANCH  17  18
ATOM     18  O   UNL     1      44.277  18.632  20.673  0.00  0.00    -0.326 OA
ATOM     19  C   UNL     1      43.223  19.184  19.880  0.00  0.00    +0.250 C 
ENDBRANCH  17  18
BRANCH  20  21
ATOM     21  O   UNL     1      45.725  17.328  18.748  0.00  0.00    -0.315 OA
ATOM     22  C   UNL     1      45.464  16.145  19.505  0.00  0.00    +0.233 C 
ENDBRANCH  20  21
TORSDOF 4
ENDMDL
MODEL 8
REMARK VINA RESULT:      -4.5     20.443     22.431
REMARK  Name = ZINC14725153
REMARK  8 active torsions:
REMARK  status: ('A' for Active; 'I' for Inactive)
REMARK    1  A    between atoms: C1_1  and  N1_2
REMARK    2  A    between atoms: C11_13  and  O5_22
REMARK    3  A    between atoms: C12_14  and  O4_20
REMARK    4  A    between atoms: C13_15  and  O3_18
REMARK    5  A    between atoms: C14_16  and  O2_17
REMARK    6  A    between atoms: O3_18  and  C15_19
REMARK    7  A    between atoms: O4_20  and  C16_21
REMARK    8  A    between atoms: O5_22  and  C17_23
REMARK                            x       y       z     vdW  Elec       q    Type
REMARK                         _______ _______ _______ _____ _____    ______ ____
ROOT
ATOM      1  C   UNL     1      54.037  34.170   6.232  0.00  0.00    +0.317 C 
ATOM      2  N   UNL     1      54.499  33.550   4.988  0.00  0.00    -0.511 N 
ATOM      3  C   UNL     1      55.851  33.344   4.812  0.00  0.00    +0.217 A 
ATOM      4  C   UNL     1      56.750  33.725   5.807  0.00  0.00    -0.048 A 
ATOM      5  C   UNL     1      58.100  33.523   5.630  0.00  0.00    +0.087 A 
ATOM      6  C   UNL     1      58.582  32.937   4.469  0.00  0.00    -0.033 A 
ATOM      7  C   UNL     1      57.713  32.551   3.473  0.00  0.00    +0.119 A 
ATOM      8  C   UNL     1      56.341  32.751   3.637  0.00  0.00    -0.211 A 
ATOM      9  C   UNL     1      55.391  32.347   2.584  0.00  0.00    +0.439 A 
ATOM     10  C   UNL     1      53.962  32.591   2.826  0.00  0.00    -0.229 A 
ATOM     11  C   UNL     1      53.004  32.232   1.867  0.00  0.00    +0.199 A 
ATOM     14  C   UNL     1      51.663  32.469   2.115  0.00  0.00    +0.013 A 
ATOM     17  C   UNL     1      51.269  33.069   3.310  0.00  0.00    +0.143 A 
ATOM     20  C   UNL     1      52.210  33.421   4.268  0.00  0.00    +0.012 A 
ATOM     23  O   UNL     1      55.777  31.830   1.550  0.00  0.00    -0.448 OA
ATOM     24  C   UNL     1      53.563  33.191   4.035  0.00  0.00    +0.239 A 
ENDROOT
BRANCH  11  12
ATOM     12  O   UNL     1      53.389  31.651   0.700  0.00  0.00    -0.460 OA
ATOM     13  H   UNL     1      54.082  30.985   0.804  0.00  0.00    +0.397 HD
ENDBRANCH  11  12
BRANCH  14  15
ATOM     15  O   UNL     1      50.728  32.124   1.188  0.00  0.00    -0.311 OA
ATOM     16  C   UNL     1      50.509  33.041   0.114  0.00  0.00    +0.225 C 
ENDBRANCH  14  15
BRANCH  17  18
ATOM     18  O   UNL     1      49.951  33.304   3.544  0.00  0.00    -0.326 OA
ATOM     19  C   UNL     1      49.458  34.607   3.228  0.00  0.00    +0.250 C 
ENDBRANCH  17  18
BRANCH  20  21
ATOM     21  O   UNL     1      51.809  34.001   5.433  0.00  0.00    -0.315 OA
ATOM     22  C   UNL     1      51.089  33.179   6.353  0.00  0.00    +0.233 C 
ENDBRANCH  20  21
TORSDOF 4
ENDMDL
MODEL 9
REMARK VINA RESULT:      -4.4     21.010     23.316
REMARK  Name = ZINC14725153
REMARK  8 active torsions:
REMARK  status: ('A' for Active; 'I' for Inactive)
REMARK    1  A    between atoms: C1_1  and  N1_2
REMARK    2  A    between atoms: C11_13  and  O5_22
REMARK    3  A    between atoms: C12_14  and  O4_20
REMARK    4  A    between atoms: C13_15  and  O3_18
REMARK    5  A    between atoms: C14_16  and  O2_17
REMARK    6  A    between atoms: O3_18  and  C15_19
REMARK    7  A    between atoms: O4_20  and  C16_21
REMARK    8  A    between atoms: O5_22  and  C17_23
REMARK                            x       y       z     vdW  Elec       q    Type
REMARK                         _______ _______ _______ _____ _____    ______ ____
ROOT
ATOM      1  C   UNL     1      55.972  31.947   3.106  0.00  0.00    +0.317 C 
ATOM      2  N   UNL     1      54.536  32.169   2.917  0.00  0.00    -0.511 N 
ATOM      3  C   UNL     1      53.780  32.573   3.996  0.00  0.00    +0.217 A 
ATOM      4  C   UNL     1      54.382  32.763   5.238  0.00  0.00    -0.048 A 
ATOM      5  C   UNL     1      53.627  33.164   6.317  0.00  0.00    +0.087 A 
ATOM      6  C   UNL     1      52.264  33.387   6.183  0.00  0.00    -0.033 A 
ATOM      7  C   UNL     1      51.647  33.207   4.965  0.00  0.00    +0.119 A 
ATOM      8  C   UNL     1      52.400  32.799   3.862  0.00  0.00    -0.211 A 
ATOM      9  C   UNL     1      51.761  32.599   2.548  0.00  0.00    +0.439 A 
ATOM     10  C   UNL     1      52.617  32.167   1.434  0.00  0.00    -0.229 A 
ATOM     11  C   UNL     1      52.075  31.957   0.157  0.00  0.00    +0.199 A 
ATOM     14  C   UNL     1      52.899  31.551  -0.879  0.00  0.00    +0.013 A 
ATOM     17  C   UNL     1      54.259  31.346  -0.651  0.00  0.00    +0.143 A 
ATOM     20  C   UNL     1      54.804  31.558   0.608  0.00  0.00    +0.012 A 
ATOM     23  O   UNL     1      50.568  32.784   2.392  0.00  0.00    -0.448 OA
ATOM     24  C   UNL     1      53.991  31.966   1.662  0.00  0.00    +0.239 A 
ENDROOT
BRANCH  11  12
ATOM     12  O   UNL     1      50.749  32.153  -0.063  0.00  0.00    -0.460 OA
ATOM     13  H   UNL     1      50.407  32.978   0.309  0.00  0.00    +0.397 HD
ENDBRANCH  11  12
BRANCH  14  15
ATOM     15  O   UNL     1      52.379  31.345  -2.120  0.00  0.00    -0.311 OA
ATOM     16  C   UNL     1      51.780  30.073  -2.369  0.00  0.00    +0.225 C 
ENDBRANCH  14  15
BRANCH  17  18
ATOM     18  O   UNL     1      55.060  30.942  -1.672  0.00  0.00    -0.326 OA
ATOM     19  C   UNL     1      55.336  29.543  -1.767  0.00  0.00    +0.250 C 
ENDBRANCH  17  18
BRANCH  20  21
ATOM     21  O   UNL     1      56.136  31.359   0.813  0.00  0.00    -0.315 OA
ATOM     22  C   UNL     1      57.035  32.263   0.169  0.00  0.00    +0.233 C 
ENDBRANCH  20  21
TORSDOF 4
ENDMDL
