MODEL 1
REMARK VINA RESULT:      -7.3      0.000      0.000
REMARK  Name = ZINC95486123
REMARK  9 active torsions:
REMARK  status: ('A' for Active; 'I' for Inactive)
REMARK    1  A    between atoms: C1_1  and  C2_2
REMARK    2  A    between atoms: C5_6  and  C30_39
REMARK    3  A    between atoms: C8_9  and  C29_38
REMARK    4  A    between atoms: C13_15  and  C25_32
REMARK    5  A    between atoms: C18_22  and  C24_31
REMARK    6  A    between atoms: C20_25  and  O1_30
REMARK    7  A    between atoms: C21_27  and  C22_28
REMARK    8  A    between atoms: C21_27  and  C23_29
REMARK    9  A    between atoms: C27_35  and  C28_37
REMARK                            x       y       z     vdW  Elec       q    Type
REMARK                         _______ _______ _______ _____ _____    ______ ____
ROOT
ATOM      1  C   UNL     1      50.911  20.990  16.007  0.00  0.00    +0.013 C 
ATOM      2  C   UNL     1      51.827  20.902  17.229  0.00  0.00    -0.020 C 
ATOM      3  C   UNL     1      52.674  19.640  17.173  0.00  0.00    +0.007 C 
ATOM      4  C   UNL     1      51.851  18.377  17.389  0.00  0.00    +0.010 C 
ATOM      5  C   UNL     1      51.098  18.443  18.724  0.00  0.00    -0.039 C 
ATOM      6  C   UNL     1      52.105  18.388  19.870  0.00  0.00    +0.022 C 
ATOM      7  C   UNL     1      50.221  17.186  18.839  0.00  0.00    +0.005 C 
ATOM      8  C   UNL     1      49.380  17.242  20.114  0.00  0.00    +0.021 C 
ATOM      9  C   UNL     1      48.427  18.443  20.075  0.00  0.00    +0.005 C 
ATOM     10  C   UNL     1      47.603  18.279  18.789  0.00  0.00    +0.019 C 
ATOM     11  C   UNL     1      49.246  19.696  19.874  0.00  0.00    -0.081 C 
ATOM     12  C   UNL     1      49.110  20.738  20.629  0.00  0.00    -0.061 C 
ATOM     13  C   UNL     1      48.221  20.798  21.836  0.00  0.00    +0.052 C 
ATOM     14  C   UNL     1      47.029  19.869  21.664  0.00  0.00    +0.003 C 
ATOM     15  C   UNL     1      46.002  20.424  20.686  0.00  0.00    +0.016 C 
ATOM     16  C   UNL     1      45.647  21.865  21.056  0.00  0.00    -0.011 C 
ATOM     17  C   UNL     1      45.127  21.962  22.489  0.00  0.00    +0.015 C 
ATOM     18  C   UNL     1      44.598  22.406  20.086  0.00  0.00    -0.015 C 
ATOM     19  C   UNL     1      43.346  21.539  20.116  0.00  0.00    +0.170 C 
ATOM     22  C   UNL     1      43.678  20.082  19.786  0.00  0.00    -0.044 C 
ATOM     23  C   UNL     1      42.396  19.251  19.957  0.00  0.00    +0.022 C 
ATOM     24  C   UNL     1      44.112  20.000  18.321  0.00  0.00    +0.031 C 
ATOM     25  C   UNL     1      44.757  19.540  20.718  0.00  0.00    +0.009 C 
ATOM     26  C   UNL     1      45.115  18.103  20.348  0.00  0.00    +0.006 C 
ATOM     27  C   UNL     1      46.293  17.547  21.124  0.00  0.00    +0.012 C 
ATOM     28  C   UNL     1      47.501  18.472  21.265  0.00  0.00    -0.026 C 
ATOM     29  C   UNL     1      48.277  17.932  22.501  0.00  0.00    +0.009 C 
ATOM     30  C   UNL     1      50.233  19.689  18.731  0.00  0.00    +0.037 C 
ATOM     31  C   UNL     1      50.998  20.972  18.517  0.00  0.00    -0.008 C 
ATOM     32  C   UNL     1      51.920  21.390  19.662  0.00  0.00    +0.016 C 
ENDROOT
BRANCH  19  20
ATOM     20  O   UNL     1      42.410  22.024  19.142  0.00  0.00    -0.568 OA
ATOM     21  H   UNL     1      42.624  22.901  18.794  0.00  0.00    +0.374 HD
ENDBRANCH  19  20
TORSDOF 1
ENDMDL
MODEL 2
REMARK VINA RESULT:      -7.0      3.333      7.318
REMARK  Name = ZINC95486123
REMARK  9 active torsions:
REMARK  status: ('A' for Active; 'I' for Inactive)
REMARK    1  A    between atoms: C1_1  and  C2_2
REMARK    2  A    between atoms: C5_6  and  C30_39
REMARK    3  A    between atoms: C8_9  and  C29_38
REMARK    4  A    between atoms: C13_15  and  C25_32
REMARK    5  A    between atoms: C18_22  and  C24_31
REMARK    6  A    between atoms: C20_25  and  O1_30
REMARK    7  A    between atoms: C21_27  and  C22_28
REMARK    8  A    between atoms: C21_27  and  C23_29
REMARK    9  A    between atoms: C27_35  and  C28_37
REMARK                            x       y       z     vdW  Elec       q    Type
REMARK                         _______ _______ _______ _____ _____    ______ ____
ROOT
ATOM      1  C   UNL     1      41.059  19.610  17.850  0.00  0.00    +0.013 C 
ATOM      2  C   UNL     1      41.203  19.958  19.332  0.00  0.00    -0.020 C 
ATOM      3  C   UNL     1      41.597  21.417  19.504  0.00  0.00    +0.007 C 
ATOM      4  C   UNL     1      43.023  21.693  19.045  0.00  0.00    +0.010 C 
ATOM      5  C   UNL     1      44.016  20.792  19.791  0.00  0.00    -0.039 C 
ATOM      6  C   UNL     1      44.051  21.198  21.262  0.00  0.00    +0.022 C 
ATOM      7  C   UNL     1      45.418  21.055  19.220  0.00  0.00    +0.005 C 
ATOM      8  C   UNL     1      46.437  20.118  19.869  0.00  0.00    +0.021 C 
ATOM      9  C   UNL     1      46.099  18.656  19.553  0.00  0.00    +0.005 C 
ATOM     10  C   UNL     1      46.049  18.562  18.020  0.00  0.00    +0.019 C 
ATOM     11  C   UNL     1      44.689  18.380  20.021  0.00  0.00    -0.081 C 
ATOM     12  C   UNL     1      44.395  17.363  20.764  0.00  0.00    -0.061 C 
ATOM     13  C   UNL     1      45.405  16.410  21.331  0.00  0.00    +0.052 C 
ATOM     14  C   UNL     1      46.614  16.310  20.414  0.00  0.00    +0.003 C 
ATOM     15  C   UNL     1      46.321  15.498  19.160  0.00  0.00    +0.016 C 
ATOM     16  C   UNL     1      45.685  14.158  19.536  0.00  0.00    -0.011 C 
ATOM     17  C   UNL     1      46.577  13.365  20.490  0.00  0.00    +0.015 C 
ATOM     18  C   UNL     1      45.418  13.339  18.275  0.00  0.00    -0.015 C 
ATOM     19  C   UNL     1      46.712  13.103  17.506  0.00  0.00    +0.170 C 
ATOM     22  C   UNL     1      47.390  14.428  17.150  0.00  0.00    -0.044 C 
ATOM     23  C   UNL     1      48.741  14.108  16.492  0.00  0.00    +0.022 C 
ATOM     24  C   UNL     1      46.519  15.161  16.128  0.00  0.00    +0.031 C 
ATOM     25  C   UNL     1      47.625  15.277  18.395  0.00  0.00    +0.009 C 
ATOM     26  C   UNL     1      48.255  16.616  18.021  0.00  0.00    +0.006 C 
ATOM     27  C   UNL     1      48.372  17.582  19.183  0.00  0.00    +0.012 C 
ATOM     28  C   UNL     1      47.142  17.704  20.082  0.00  0.00    -0.026 C 
ATOM     29  C   UNL     1      47.683  18.270  21.427  0.00  0.00    +0.009 C 
ATOM     30  C   UNL     1      43.620  19.345  19.566  0.00  0.00    +0.037 C 
ATOM     31  C   UNL     1      42.212  19.016  20.001  0.00  0.00    -0.008 C 
ATOM     32  C   UNL     1      41.965  19.036  21.508  0.00  0.00    +0.016 C 
ENDROOT
BRANCH  19  20
ATOM     20  O   UNL     1      46.419  12.399  16.290  0.00  0.00    -0.568 OA
ATOM     21  H   UNL     1      47.012  12.618  15.558  0.00  0.00    +0.374 HD
ENDBRANCH  19  20
TORSDOF 1
ENDMDL
MODEL 3
REMARK VINA RESULT:      -6.4      1.683      3.011
REMARK  Name = ZINC95486123
REMARK  9 active torsions:
REMARK  status: ('A' for Active; 'I' for Inactive)
REMARK    1  A    between atoms: C1_1  and  C2_2
REMARK    2  A    between atoms: C5_6  and  C30_39
REMARK    3  A    between atoms: C8_9  and  C29_38
REMARK    4  A    between atoms: C13_15  and  C25_32
REMARK    5  A    between atoms: C18_22  and  C24_31
REMARK    6  A    between atoms: C20_25  and  O1_30
REMARK    7  A    between atoms: C21_27  and  C22_28
REMARK    8  A    between atoms: C21_27  and  C23_29
REMARK    9  A    between atoms: C27_35  and  C28_37
REMARK                            x       y       z     vdW  Elec       q    Type
REMARK                         _______ _______ _______ _____ _____    ______ ____
ROOT
ATOM      1  C   UNL     1      49.496  14.677  17.053  0.00  0.00    +0.013 C 
ATOM      2  C   UNL     1      50.616  15.700  16.867  0.00  0.00    -0.020 C 
ATOM      3  C   UNL     1      51.847  15.299  17.665  0.00  0.00    +0.007 C 
ATOM      4  C   UNL     1      51.636  15.434  19.168  0.00  0.00    +0.010 C 
ATOM      5  C   UNL     1      51.222  16.867  19.529  0.00  0.00    -0.039 C 
ATOM      6  C   UNL     1      52.396  17.807  19.268  0.00  0.00    +0.022 C 
ATOM      7  C   UNL     1      50.939  16.914  21.039  0.00  0.00    +0.005 C 
ATOM      8  C   UNL     1      50.438  18.301  21.440  0.00  0.00    +0.021 C 
ATOM      9  C   UNL     1      49.114  18.618  20.733  0.00  0.00    +0.005 C 
ATOM     10  C   UNL     1      48.158  17.475  21.105  0.00  0.00    +0.019 C 
ATOM     11  C   UNL     1      49.329  18.496  19.242  0.00  0.00    -0.081 C 
ATOM     12  C   UNL     1      48.972  19.425  18.415  0.00  0.00    -0.061 C 
ATOM     13  C   UNL     1      48.411  20.754  18.826  0.00  0.00    +0.052 C 
ATOM     14  C   UNL     1      47.657  20.628  20.141  0.00  0.00    +0.003 C 
ATOM     15  C   UNL     1      46.311  19.937  19.970  0.00  0.00    +0.016 C 
ATOM     16  C   UNL     1      45.522  20.594  18.836  0.00  0.00    -0.011 C 
ATOM     17  C   UNL     1      45.328  22.088  19.082  0.00  0.00    +0.015 C 
ATOM     18  C   UNL     1      44.164  19.912  18.687  0.00  0.00    -0.015 C 
ATOM     19  C   UNL     1      43.375  20.002  19.988  0.00  0.00    +0.170 C 
ATOM     22  C   UNL     1      44.159  19.386  21.149  0.00  0.00    -0.044 C 
ATOM     23  C   UNL     1      43.361  19.624  22.440  0.00  0.00    +0.022 C 
ATOM     24  C   UNL     1      44.262  17.876  20.920  0.00  0.00    +0.031 C 
ATOM     25  C   UNL     1      45.537  20.026  21.284  0.00  0.00    +0.009 C 
ATOM     26  C   UNL     1      46.326  19.369  22.412  0.00  0.00    +0.006 C 
ATOM     27  C   UNL     1      47.765  19.839  22.505  0.00  0.00    +0.012 C 
ATOM     28  C   UNL     1      48.528  19.932  21.185  0.00  0.00    -0.026 C 
ATOM     29  C   UNL     1      49.699  20.917  21.467  0.00  0.00    +0.009 C 
ATOM     30  C   UNL     1      49.971  17.222  18.748  0.00  0.00    +0.037 C 
ATOM     31  C   UNL     1      50.123  17.101  17.251  0.00  0.00    -0.008 C 
ATOM     32  C   UNL     1      51.040  18.132  16.596  0.00  0.00    +0.016 C 
ENDROOT
BRANCH  19  20
ATOM     20  O   UNL     1      42.139  19.288  19.843  0.00  0.00    -0.568 OA
ATOM     21  H   UNL     1      42.114  18.697  19.077  0.00  0.00    +0.374 HD
ENDBRANCH  19  20
TORSDOF 1
ENDMDL
MODEL 4
REMARK VINA RESULT:      -6.4      3.537      5.828
REMARK  Name = ZINC95486123
REMARK  9 active torsions:
REMARK  status: ('A' for Active; 'I' for Inactive)
REMARK    1  A    between atoms: C1_1  and  C2_2
REMARK    2  A    between atoms: C5_6  and  C30_39
REMARK    3  A    between atoms: C8_9  and  C29_38
REMARK    4  A    between atoms: C13_15  and  C25_32
REMARK    5  A    between atoms: C18_22  and  C24_31
REMARK    6  A    between atoms: C20_25  and  O1_30
REMARK    7  A    between atoms: C21_27  and  C22_28
REMARK    8  A    between atoms: C21_27  and  C23_29
REMARK    9  A    between atoms: C27_35  and  C28_37
REMARK                            x       y       z     vdW  Elec       q    Type
REMARK                         _______ _______ _______ _____ _____    ______ ____
ROOT
ATOM      1  C   UNL     1      51.244  20.701  16.822  0.00  0.00    +0.013 C 
ATOM      2  C   UNL     1      50.696  21.162  18.173  0.00  0.00    -0.020 C 
ATOM      3  C   UNL     1      51.832  21.465  19.138  0.00  0.00    +0.007 C 
ATOM      4  C   UNL     1      52.567  20.208  19.584  0.00  0.00    +0.010 C 
ATOM      5  C   UNL     1      51.593  19.208  20.221  0.00  0.00    -0.039 C 
ATOM      6  C   UNL     1      51.077  19.783  21.538  0.00  0.00    +0.022 C 
ATOM      7  C   UNL     1      52.377  17.933  20.566  0.00  0.00    +0.005 C 
ATOM      8  C   UNL     1      51.435  16.867  21.126  0.00  0.00    +0.021 C 
ATOM      9  C   UNL     1      50.389  16.471  20.076  0.00  0.00    +0.005 C 
ATOM     10  C   UNL     1      51.187  16.017  18.844  0.00  0.00    +0.019 C 
ATOM     11  C   UNL     1      49.652  17.718  19.644  0.00  0.00    -0.081 C 
ATOM     12  C   UNL     1      48.360  17.782  19.619  0.00  0.00    -0.061 C 
ATOM     13  C   UNL     1      47.450  16.692  20.105  0.00  0.00    +0.052 C 
ATOM     14  C   UNL     1      48.110  15.333  19.934  0.00  0.00    +0.003 C 
ATOM     15  C   UNL     1      48.131  14.881  18.480  0.00  0.00    +0.016 C 
ATOM     16  C   UNL     1      46.732  15.000  17.871  0.00  0.00    -0.011 C 
ATOM     17  C   UNL     1      45.707  14.194  18.666  0.00  0.00    +0.015 C 
ATOM     18  C   UNL     1      46.756  14.521  16.421  0.00  0.00    -0.015 C 
ATOM     19  C   UNL     1      47.236  13.077  16.342  0.00  0.00    +0.170 C 
ATOM     22  C   UNL     1      48.619  12.923  16.979  0.00  0.00    -0.044 C 
ATOM     23  C   UNL     1      48.980  11.429  16.974  0.00  0.00    +0.022 C 
ATOM     24  C   UNL     1      49.639  13.666  16.115  0.00  0.00    +0.031 C 
ATOM     25  C   UNL     1      48.624  13.437  18.415  0.00  0.00    +0.009 C 
ATOM     26  C   UNL     1      50.019  13.323  19.022  0.00  0.00    +0.006 C 
ATOM     27  C   UNL     1      50.144  13.962  20.392  0.00  0.00    +0.012 C 
ATOM     28  C   UNL     1      49.508  15.343  20.549  0.00  0.00    -0.026 C 
ATOM     29  C   UNL     1      49.282  15.508  22.080  0.00  0.00    +0.009 C 
ATOM     30  C   UNL     1      50.496  18.896  19.221  0.00  0.00    +0.037 C 
ATOM     31  C   UNL     1      49.736  20.108  18.740  0.00  0.00    -0.008 C 
ATOM     32  C   UNL     1      48.842  20.781  19.780  0.00  0.00    +0.016 C 
ENDROOT
BRANCH  19  20
ATOM     20  O   UNL     1      47.322  12.681  14.966  0.00  0.00    -0.568 OA
ATOM     21  H   UNL     1      46.558  12.174  14.655  0.00  0.00    +0.374 HD
ENDBRANCH  19  20
TORSDOF 1
ENDMDL
MODEL 5
REMARK VINA RESULT:      -6.1      3.474      5.576
REMARK  Name = ZINC95486123
REMARK  9 active torsions:
REMARK  status: ('A' for Active; 'I' for Inactive)
REMARK    1  A    between atoms: C1_1  and  C2_2
REMARK    2  A    between atoms: C5_6  and  C30_39
REMARK    3  A    between atoms: C8_9  and  C29_38
REMARK    4  A    between atoms: C13_15  and  C25_32
REMARK    5  A    between atoms: C18_22  and  C24_31
REMARK    6  A    between atoms: C20_25  and  O1_30
REMARK    7  A    between atoms: C21_27  and  C22_28
REMARK    8  A    between atoms: C21_27  and  C23_29
REMARK    9  A    between atoms: C27_35  and  C28_37
REMARK                            x       y       z     vdW  Elec       q    Type
REMARK                         _______ _______ _______ _____ _____    ______ ____
ROOT
ATOM      1  C   UNL     1      49.558  21.133  21.216  0.00  0.00    +0.013 C 
ATOM      2  C   UNL     1      51.006  20.703  20.983  0.00  0.00    -0.020 C 
ATOM      3  C   UNL     1      51.563  21.351  19.725  0.00  0.00    +0.007 C 
ATOM      4  C   UNL     1      50.933  20.794  18.456  0.00  0.00    +0.010 C 
ATOM      5  C   UNL     1      51.114  19.272  18.384  0.00  0.00    -0.039 C 
ATOM      6  C   UNL     1      52.595  18.954  18.193  0.00  0.00    +0.022 C 
ATOM      7  C   UNL     1      50.382  18.764  17.133  0.00  0.00    +0.005 C 
ATOM      8  C   UNL     1      50.457  17.239  17.058  0.00  0.00    +0.021 C 
ATOM      9  C   UNL     1      49.754  16.608  18.267  0.00  0.00    +0.005 C 
ATOM     10  C   UNL     1      48.323  17.166  18.255  0.00  0.00    +0.019 C 
ATOM     11  C   UNL     1      50.390  17.152  19.526  0.00  0.00    -0.081 C 
ATOM     12  C   UNL     1      50.800  16.381  20.480  0.00  0.00    -0.061 C 
ATOM     13  C   UNL     1      50.796  14.882  20.418  0.00  0.00    +0.052 C 
ATOM     14  C   UNL     1      49.665  14.391  19.527  0.00  0.00    +0.003 C 
ATOM     15  C   UNL     1      48.305  14.522  20.197  0.00  0.00    +0.016 C 
ATOM     16  C   UNL     1      48.343  13.898  21.593  0.00  0.00    -0.011 C 
ATOM     17  C   UNL     1      48.772  12.433  21.539  0.00  0.00    +0.015 C 
ATOM     18  C   UNL     1      46.967  14.011  22.249  0.00  0.00    -0.015 C 
ATOM     19  C   UNL     1      45.911  13.317  21.398  0.00  0.00    +0.170 C 
ATOM     22  C   UNL     1      45.878  13.897  19.982  0.00  0.00    -0.044 C 
ATOM     23  C   UNL     1      44.883  13.070  19.153  0.00  0.00    +0.022 C 
ATOM     24  C   UNL     1      45.361  15.335  20.057  0.00  0.00    +0.031 C 
ATOM     25  C   UNL     1      47.255  13.832  19.329  0.00  0.00    +0.009 C 
ATOM     26  C   UNL     1      47.220  14.457  17.938  0.00  0.00    +0.006 C 
ATOM     27  C   UNL     1      48.584  14.577  17.287  0.00  0.00    +0.012 C 
ATOM     28  C   UNL     1      49.709  15.103  18.176  0.00  0.00    -0.026 C 
ATOM     29  C   UNL     1      51.020  14.615  17.496  0.00  0.00    +0.009 C 
ATOM     30  C   UNL     1      50.513  18.653  19.632  0.00  0.00    +0.037 C 
ATOM     31  C   UNL     1      51.100  19.173  20.922  0.00  0.00    -0.008 C 
ATOM     32  C   UNL     1      52.546  18.766  21.201  0.00  0.00    +0.016 C 
ENDROOT
BRANCH  19  20
ATOM     20  O   UNL     1      44.621  13.505  21.998  0.00  0.00    -0.568 OA
ATOM     21  H   UNL     1      44.573  13.224  22.922  0.00  0.00    +0.374 HD
ENDBRANCH  19  20
TORSDOF 1
ENDMDL
MODEL 6
REMARK VINA RESULT:      -6.1      2.183      3.799
REMARK  Name = ZINC95486123
REMARK  9 active torsions:
REMARK  status: ('A' for Active; 'I' for Inactive)
REMARK    1  A    between atoms: C1_1  and  C2_2
REMARK    2  A    between atoms: C5_6  and  C30_39
REMARK    3  A    between atoms: C8_9  and  C29_38
REMARK    4  A    between atoms: C13_15  and  C25_32
REMARK    5  A    between atoms: C18_22  and  C24_31
REMARK    6  A    between atoms: C20_25  and  O1_30
REMARK    7  A    between atoms: C21_27  and  C22_28
REMARK    8  A    between atoms: C21_27  and  C23_29
REMARK    9  A    between atoms: C27_35  and  C28_37
REMARK                            x       y       z     vdW  Elec       q    Type
REMARK                         _______ _______ _______ _____ _____    ______ ____
ROOT
ATOM      1  C   UNL     1      52.593  18.430  21.608  0.00  0.00    +0.013 C 
ATOM      2  C   UNL     1      52.541  16.940  21.270  0.00  0.00    -0.020 C 
ATOM      3  C   UNL     1      53.338  16.648  20.007  0.00  0.00    +0.007 C 
ATOM      4  C   UNL     1      52.674  17.210  18.757  0.00  0.00    +0.010 C 
ATOM      5  C   UNL     1      51.247  16.665  18.611  0.00  0.00    -0.039 C 
ATOM      6  C   UNL     1      51.311  15.169  18.316  0.00  0.00    +0.022 C 
ATOM      7  C   UNL     1      50.604  17.336  17.387  0.00  0.00    +0.005 C 
ATOM      8  C   UNL     1      49.148  16.894  17.245  0.00  0.00    +0.021 C 
ATOM      9  C   UNL     1      48.333  17.333  18.468  0.00  0.00    +0.005 C 
ATOM     10  C   UNL     1      48.518  18.855  18.567  0.00  0.00    +0.019 C 
ATOM     11  C   UNL     1      48.986  16.765  19.706  0.00  0.00    -0.081 C 
ATOM     12  C   UNL     1      48.317  16.112  20.601  0.00  0.00    -0.061 C 
ATOM     13  C   UNL     1      46.866  15.751  20.476  0.00  0.00    +0.052 C 
ATOM     14  C   UNL     1      46.132  16.786  19.637  0.00  0.00    +0.003 C 
ATOM     15  C   UNL     1      45.905  18.087  20.395  0.00  0.00    +0.016 C 
ATOM     16  C   UNL     1      45.275  17.799  21.759  0.00  0.00    -0.011 C 
ATOM     17  C   UNL     1      43.965  17.028  21.618  0.00  0.00    +0.015 C 
ATOM     18  C   UNL     1      45.027  19.111  22.502  0.00  0.00    -0.015 C 
ATOM     19  C   UNL     1      44.114  20.021  21.690  0.00  0.00    +0.170 C 
ATOM     22  C   UNL     1      44.703  20.295  20.304  0.00  0.00    -0.044 C 
ATOM     23  C   UNL     1      43.676  21.111  19.504  0.00  0.00    +0.022 C 
ATOM     24  C   UNL     1      45.966  21.143  20.470  0.00  0.00    +0.031 C 
ATOM     25  C   UNL     1      44.998  18.993  19.565  0.00  0.00    +0.009 C 
ATOM     26  C   UNL     1      45.630  19.278  18.206  0.00  0.00    +0.006 C 
ATOM     27  C   UNL     1      46.100  18.034  17.478  0.00  0.00    +0.012 C 
ATOM     28  C   UNL     1      46.867  17.014  18.317  0.00  0.00    -0.026 C 
ATOM     29  C   UNL     1      46.736  15.674  17.538  0.00  0.00    +0.009 C 
ATOM     30  C   UNL     1      50.467  17.007  19.867  0.00  0.00    +0.037 C 
ATOM     31  C   UNL     1      51.084  16.477  21.139  0.00  0.00    -0.008 C 
ATOM     32  C   UNL     1      51.042  14.960  21.311  0.00  0.00    +0.016 C 
ENDROOT
BRANCH  19  20
ATOM     20  O   UNL     1      43.962  21.273  22.376  0.00  0.00    -0.568 OA
ATOM     21  H   UNL     1      43.500  21.949  21.860  0.00  0.00    +0.374 HD
ENDBRANCH  19  20
TORSDOF 1
ENDMDL
MODEL 7
REMARK VINA RESULT:      -5.9      4.485      7.349
REMARK  Name = ZINC95486123
REMARK  9 active torsions:
REMARK  status: ('A' for Active; 'I' for Inactive)
REMARK    1  A    between atoms: C1_1  and  C2_2
REMARK    2  A    between atoms: C5_6  and  C30_39
REMARK    3  A    between atoms: C8_9  and  C29_38
REMARK    4  A    between atoms: C13_15  and  C25_32
REMARK    5  A    between atoms: C18_22  and  C24_31
REMARK    6  A    between atoms: C20_25  and  O1_30
REMARK    7  A    between atoms: C21_27  and  C22_28
REMARK    8  A    between atoms: C21_27  and  C23_29
REMARK    9  A    between atoms: C27_35  and  C28_37
REMARK                            x       y       z     vdW  Elec       q    Type
REMARK                         _______ _______ _______ _____ _____    ______ ____
ROOT
ATOM      1  C   UNL     1      50.439  12.186  14.119  0.00  0.00    +0.013 C 
ATOM      2  C   UNL     1      50.015  11.248  15.249  0.00  0.00    -0.020 C 
ATOM      3  C   UNL     1      48.611  10.715  15.006  0.00  0.00    +0.007 C 
ATOM      4  C   UNL     1      47.545  11.790  15.163  0.00  0.00    +0.010 C 
ATOM      5  C   UNL     1      47.626  12.433  16.554  0.00  0.00    -0.039 C 
ATOM      6  C   UNL     1      47.223  11.402  17.606  0.00  0.00    +0.022 C 
ATOM      7  C   UNL     1      46.588  13.565  16.617  0.00  0.00    +0.005 C 
ATOM      8  C   UNL     1      46.685  14.298  17.954  0.00  0.00    +0.021 C 
ATOM      9  C   UNL     1      48.063  14.954  18.107  0.00  0.00    +0.005 C 
ATOM     10  C   UNL     1      48.230  15.864  16.881  0.00  0.00    +0.019 C 
ATOM     11  C   UNL     1      49.120  13.884  17.963  0.00  0.00    -0.081 C 
ATOM     12  C   UNL     1      50.075  13.737  18.823  0.00  0.00    -0.061 C 
ATOM     13  C   UNL     1      50.194  14.520  20.097  0.00  0.00    +0.052 C 
ATOM     14  C   UNL     1      49.576  15.900  19.932  0.00  0.00    +0.003 C 
ATOM     15  C   UNL     1      50.449  16.827  19.097  0.00  0.00    +0.016 C 
ATOM     16  C   UNL     1      51.883  16.823  19.631  0.00  0.00    -0.011 C 
ATOM     17  C   UNL     1      51.931  17.226  21.103  0.00  0.00    +0.015 C 
ATOM     18  C   UNL     1      52.746  17.774  18.804  0.00  0.00    -0.015 C 
ATOM     19  C   UNL     1      52.178  19.187  18.849  0.00  0.00    +0.170 C 
ATOM     22  C   UNL     1      50.730  19.214  18.356  0.00  0.00    -0.044 C 
ATOM     23  C   UNL     1      50.189  20.639  18.547  0.00  0.00    +0.022 C 
ATOM     24  C   UNL     1      50.719  18.893  16.860  0.00  0.00    +0.031 C 
ATOM     25  C   UNL     1      49.863  18.237  19.143  0.00  0.00    +0.009 C 
ATOM     26  C   UNL     1      48.433  18.236  18.609  0.00  0.00    +0.006 C 
ATOM     27  C   UNL     1      47.548  17.174  19.232  0.00  0.00    +0.012 C 
ATOM     28  C   UNL     1      48.162  15.781  19.364  0.00  0.00    -0.026 C 
ATOM     29  C   UNL     1      47.331  15.080  20.477  0.00  0.00    +0.009 C 
ATOM     30  C   UNL     1      49.023  12.990  16.750  0.00  0.00    +0.037 C 
ATOM     31  C   UNL     1      50.122  11.966  16.601  0.00  0.00    -0.008 C 
ATOM     32  C   UNL     1      50.195  10.911  17.703  0.00  0.00    +0.016 C 
ENDROOT
BRANCH  19  20
ATOM     20  O   UNL     1      52.964  20.041  18.004  0.00  0.00    -0.568 OA
ATOM     21  H   UNL     1      53.831  20.265  18.369  0.00  0.00    +0.374 HD
ENDBRANCH  19  20
TORSDOF 1
ENDMDL
MODEL 8
REMARK VINA RESULT:      -5.8      3.267      6.660
REMARK  Name = ZINC95486123
REMARK  9 active torsions:
REMARK  status: ('A' for Active; 'I' for Inactive)
REMARK    1  A    between atoms: C1_1  and  C2_2
REMARK    2  A    between atoms: C5_6  and  C30_39
REMARK    3  A    between atoms: C8_9  and  C29_38
REMARK    4  A    between atoms: C13_15  and  C25_32
REMARK    5  A    between atoms: C18_22  and  C24_31
REMARK    6  A    between atoms: C20_25  and  O1_30
REMARK    7  A    between atoms: C21_27  and  C22_28
REMARK    8  A    between atoms: C21_27  and  C23_29
REMARK    9  A    between atoms: C27_35  and  C28_37
REMARK                            x       y       z     vdW  Elec       q    Type
REMARK                         _______ _______ _______ _____ _____    ______ ____
ROOT
ATOM      1  C   UNL     1      43.424  20.054  18.770  0.00  0.00    +0.013 C 
ATOM      2  C   UNL     1      43.976  20.482  20.130  0.00  0.00    -0.020 C 
ATOM      3  C   UNL     1      44.680  21.826  20.024  0.00  0.00    +0.007 C 
ATOM      4  C   UNL     1      45.985  21.739  19.243  0.00  0.00    +0.010 C 
ATOM      5  C   UNL     1      46.926  20.704  19.875  0.00  0.00    -0.039 C 
ATOM      6  C   UNL     1      47.382  21.211  21.240  0.00  0.00    +0.022 C 
ATOM      7  C   UNL     1      48.180  20.600  18.993  0.00  0.00    +0.005 C 
ATOM      8  C   UNL     1      49.116  19.517  19.530  0.00  0.00    +0.021 C 
ATOM      9  C   UNL     1      48.430  18.146  19.485  0.00  0.00    +0.005 C 
ATOM     10  C   UNL     1      48.007  17.939  18.022  0.00  0.00    +0.019 C 
ATOM     11  C   UNL     1      47.142  18.230  20.270  0.00  0.00    -0.081 C 
ATOM     12  C   UNL     1      46.834  17.369  21.185  0.00  0.00    -0.061 C 
ATOM     13  C   UNL     1      47.739  16.265  21.647  0.00  0.00    +0.052 C 
ATOM     14  C   UNL     1      48.656  15.823  20.517  0.00  0.00    +0.003 C 
ATOM     15  C   UNL     1      47.924  14.996  19.469  0.00  0.00    +0.016 C 
ATOM     16  C   UNL     1      47.141  13.867  20.142  0.00  0.00    -0.011 C 
ATOM     17  C   UNL     1      48.054  12.977  20.982  0.00  0.00    +0.015 C 
ATOM     18  C   UNL     1      46.429  13.027  19.082  0.00  0.00    -0.015 C 
ATOM     19  C   UNL     1      47.436  12.446  18.097  0.00  0.00    +0.170 C 
ATOM     22  C   UNL     1      48.261  13.553  17.436  0.00  0.00    -0.044 C 
ATOM     23  C   UNL     1      49.330  12.888  16.556  0.00  0.00    +0.022 C 
ATOM     24  C   UNL     1      47.338  14.375  16.533  0.00  0.00    +0.031 C 
ATOM     25  C   UNL     1      48.943  14.429  18.483  0.00  0.00    +0.009 C 
ATOM     26  C   UNL     1      49.721  15.558  17.813  0.00  0.00    +0.006 C 
ATOM     27  C   UNL     1      50.295  16.567  18.789  0.00  0.00    +0.012 C 
ATOM     28  C   UNL     1      49.358  17.033  19.902  0.00  0.00    -0.026 C 
ATOM     29  C   UNL     1      50.298  17.573  21.018  0.00  0.00    +0.009 C 
ATOM     30  C   UNL     1      46.210  19.368  19.929  0.00  0.00    +0.037 C 
ATOM     31  C   UNL     1      44.905  19.397  20.688  0.00  0.00    -0.008 C 
ATOM     32  C   UNL     1      45.025  19.596  22.198  0.00  0.00    +0.016 C 
ENDROOT
BRANCH  19  20
ATOM     20  O   UNL     1      46.734  11.727  17.072  0.00  0.00    -0.568 OA
ATOM     21  H   UNL     1      45.973  11.226  17.395  0.00  0.00    +0.374 HD
ENDBRANCH  19  20
TORSDOF 1
ENDMDL
MODEL 9
REMARK VINA RESULT:      -5.8      4.008      6.847
REMARK  Name = ZINC95486123
REMARK  9 active torsions:
REMARK  status: ('A' for Active; 'I' for Inactive)
REMARK    1  A    between atoms: C1_1  and  C2_2
REMARK    2  A    between atoms: C5_6  and  C30_39
REMARK    3  A    between atoms: C8_9  and  C29_38
REMARK    4  A    between atoms: C13_15  and  C25_32
REMARK    5  A    between atoms: C18_22  and  C24_31
REMARK    6  A    between atoms: C20_25  and  O1_30
REMARK    7  A    between atoms: C21_27  and  C22_28
REMARK    8  A    between atoms: C21_27  and  C23_29
REMARK    9  A    between atoms: C27_35  and  C28_37
REMARK                            x       y       z     vdW  Elec       q    Type
REMARK                         _______ _______ _______ _____ _____    ______ ____
ROOT
ATOM      1  C   UNL     1      55.554  13.226  19.578  0.00  0.00    +0.013 C 
ATOM      2  C   UNL     1      54.441  12.395  20.218  0.00  0.00    -0.020 C 
ATOM      3  C   UNL     1      54.017  11.263  19.294  0.00  0.00    +0.007 C 
ATOM      4  C   UNL     1      53.275  11.764  18.062  0.00  0.00    +0.010 C 
ATOM      5  C   UNL     1      52.050  12.594  18.469  0.00  0.00    -0.039 C 
ATOM      6  C   UNL     1      51.024  11.679  19.132  0.00  0.00    +0.022 C 
ATOM      7  C   UNL     1      51.400  13.142  17.189  0.00  0.00    +0.005 C 
ATOM      8  C   UNL     1      50.222  14.050  17.540  0.00  0.00    +0.021 C 
ATOM      9  C   UNL     1      50.702  15.264  18.346  0.00  0.00    +0.005 C 
ATOM     10  C   UNL     1      51.776  15.940  17.480  0.00  0.00    +0.019 C 
ATOM     11  C   UNL     1      51.427  14.765  19.574  0.00  0.00    -0.081 C 
ATOM     12  C   UNL     1      51.152  15.200  20.762  0.00  0.00    -0.061 C 
ATOM     13  C   UNL     1      50.036  16.151  21.077  0.00  0.00    +0.052 C 
ATOM     14  C   UNL     1      49.767  17.066  19.892  0.00  0.00    +0.003 C 
ATOM     15  C   UNL     1      50.841  18.134  19.733  0.00  0.00    +0.016 C 
ATOM     16  C   UNL     1      51.070  18.853  21.063  0.00  0.00    -0.011 C 
ATOM     17  C   UNL     1      49.778  19.470  21.595  0.00  0.00    +0.015 C 
ATOM     18  C   UNL     1      52.131  19.939  20.889  0.00  0.00    -0.015 C 
ATOM     19  C   UNL     1      51.700  20.940  19.825  0.00  0.00    +0.170 C 
ATOM     22  C   UNL     1      51.427  20.241  18.491  0.00  0.00    -0.044 C 
ATOM     23  C   UNL     1      50.881  21.289  17.508  0.00  0.00    +0.022 C 
ATOM     24  C   UNL     1      52.751  19.709  17.940  0.00  0.00    +0.031 C 
ATOM     25  C   UNL     1      50.402  19.124  18.656  0.00  0.00    +0.009 C 
ATOM     26  C   UNL     1      50.175  18.403  17.331  0.00  0.00    +0.006 C 
ATOM     27  C   UNL     1      49.291  17.176  17.446  0.00  0.00    +0.012 C 
ATOM     28  C   UNL     1      49.587  16.242  18.618  0.00  0.00    -0.026 C 
ATOM     29  C   UNL     1      48.272  15.438  18.832  0.00  0.00    +0.009 C 
ATOM     30  C   UNL     1      52.510  13.737  19.355  0.00  0.00    +0.037 C 
ATOM     31  C   UNL     1      53.257  13.296  20.591  0.00  0.00    -0.008 C 
ATOM     32  C   UNL     1      52.418  12.579  21.647  0.00  0.00    +0.016 C 
ENDROOT
BRANCH  19  20
ATOM     20  O   UNL     1      52.747  21.903  19.629  0.00  0.00    -0.568 OA
ATOM     21  H   UNL     1      52.430  22.780  19.374  0.00  0.00    +0.374 HD
ENDBRANCH  19  20
TORSDOF 1
ENDMDL
