MODEL 1
REMARK VINA RESULT:      -6.0      0.000      0.000
REMARK  Name = ZINC05430812
REMARK  13 active torsions:
REMARK  status: ('A' for Active; 'I' for Inactive)
REMARK    1  A    between atoms: C1_1  and  C2_2
REMARK    2  A    between atoms: C2_2  and  C24_30
REMARK    3  A    between atoms: C3_3  and  C4_4
REMARK    4  A    between atoms: C4_4  and  C5_5
REMARK    5  A    between atoms: C6_6  and  O6_29
REMARK    6  A    between atoms: C10_10  and  O1_11
REMARK    7  A    between atoms: C15_18  and  O5_28
REMARK    8  A    between atoms: C16_19  and  O4_26
REMARK    9  A    between atoms: C17_20  and  C18_21
REMARK   10  A    between atoms: C18_21  and  C19_22
REMARK   11  A    between atoms: C20_23  and  C21_24
REMARK   12  A    between atoms: C20_23  and  C22_25
REMARK   13  A    between atoms: O4_26  and  C23_27
REMARK                            x       y       z     vdW  Elec       q    Type
REMARK                         _______ _______ _______ _____ _____    ______ ____
ROOT
ATOM      6  C   UNL     1      44.817  20.410  20.497  0.00  0.00    -0.161 A 
ATOM      7  C   UNL     1      43.764  19.531  20.270  0.00  0.00    +0.197 A 
ATOM     10  C   UNL     1      43.999  18.254  19.785  0.00  0.00    -0.028 A 
ATOM     11  C   UNL     1      45.295  17.836  19.517  0.00  0.00    +0.186 A 
ATOM     12  C   UNL     1      46.358  18.729  19.736  0.00  0.00    -0.263 A 
ATOM     13  C   UNL     1      47.727  18.281  19.425  0.00  0.00    +0.442 A 
ATOM     14  C   UNL     1      47.837  17.033  18.642  0.00  0.00    -0.222 A 
ATOM     15  C   UNL     1      46.690  16.237  18.488  0.00  0.00    +0.173 A 
ATOM     16  C   UNL     1      46.776  15.067  17.743  0.00  0.00    -0.012 A 
ATOM     17  C   UNL     1      47.979  14.694  17.171  0.00  0.00    +0.162 A 
ATOM     20  C   UNL     1      49.119  15.484  17.333  0.00  0.00    +0.042 A 
ATOM     23  C   UNL     1      49.049  16.651  18.066  0.00  0.00    +0.015 A 
ATOM     29  O   UNL     1      48.709  18.901  19.792  0.00  0.00    -0.421 OA
ATOM     30  O   UNL     1      45.517  16.589  19.055  0.00  0.00    -0.221 OA
ATOM     31  C   UNL     1      46.114  20.017  20.229  0.00  0.00    +0.221 A 
ENDROOT
BRANCH   7   8
ATOM      8  O   UNL     1      42.491  19.928  20.527  0.00  0.00    -0.484 OA
ATOM      9  H   UNL     1      42.425  20.810  20.917  0.00  0.00    +0.401 HD
ENDBRANCH   7   8
BRANCH  17  18
ATOM     18  O   UNL     1      48.052  13.549  16.445  0.00  0.00    -0.477 OA
ATOM     19  H   UNL     1      48.613  12.867  16.841  0.00  0.00    +0.397 HD
ENDBRANCH  17  18
BRANCH  20  21
ATOM     21  O   UNL     1      50.297  15.104  16.768  0.00  0.00    -0.312 OA
ATOM     22  C   UNL     1      51.119  14.211  17.523  0.00  0.00    +0.221 C 
ENDBRANCH  20  21
BRANCH  31  32
ATOM     32  O   UNL     1      47.146  20.872  20.447  0.00  0.00    -0.472 OA
ATOM     33  H   UNL     1      46.876  21.740  20.776  0.00  0.00    +0.403 HD
ENDBRANCH  31  32
BRANCH   6   5
ATOM      5  C   UNL     1      44.542  21.794  21.027  0.00  0.00    +0.132 C 
BRANCH   5   4
ATOM      1  C   UNL     1      45.815  24.305  20.874  0.00  0.00    +0.076 C 
ATOM      2  C   UNL     1      44.793  23.911  19.838  0.00  0.00    -0.128 C 
ATOM      3  C   UNL     1      44.405  24.885  18.755  0.00  0.00    +0.073 C 
ATOM      4  C   UNL     1      44.243  22.722  19.879  0.00  0.00    -0.053 C 
ENDBRANCH   5   4
ENDBRANCH   6   5
BRANCH  23  24
ATOM     24  C   UNL     1      50.275  17.510  18.242  0.00  0.00    +0.128 C 
BRANCH  24  25
ATOM     25  C   UNL     1      50.554  18.256  16.962  0.00  0.00    -0.036 C 
ATOM     26  C   UNL     1      51.589  19.054  16.882  0.00  0.00    -0.126 C 
ATOM     27  C   UNL     1      51.867  19.800  15.602  0.00  0.00    +0.073 C 
ATOM     28  C   UNL     1      52.502  19.225  18.067  0.00  0.00    +0.073 C 
ENDBRANCH  24  25
ENDBRANCH  23  24
TORSDOF 8
ENDMDL
MODEL 2
REMARK VINA RESULT:      -5.6      1.993      7.353
REMARK  Name = ZINC05430812
REMARK  13 active torsions:
REMARK  status: ('A' for Active; 'I' for Inactive)
REMARK    1  A    between atoms: C1_1  and  C2_2
REMARK    2  A    between atoms: C2_2  and  C24_30
REMARK    3  A    between atoms: C3_3  and  C4_4
REMARK    4  A    between atoms: C4_4  and  C5_5
REMARK    5  A    between atoms: C6_6  and  O6_29
REMARK    6  A    between atoms: C10_10  and  O1_11
REMARK    7  A    between atoms: C15_18  and  O5_28
REMARK    8  A    between atoms: C16_19  and  O4_26
REMARK    9  A    between atoms: C17_20  and  C18_21
REMARK   10  A    between atoms: C18_21  and  C19_22
REMARK   11  A    between atoms: C20_23  and  C21_24
REMARK   12  A    between atoms: C20_23  and  C22_25
REMARK   13  A    between atoms: O4_26  and  C23_27
REMARK                            x       y       z     vdW  Elec       q    Type
REMARK                         _______ _______ _______ _____ _____    ______ ____
ROOT
ATOM      6  C   UNL     1      48.138  13.989  17.831  0.00  0.00    -0.161 A 
ATOM      7  C   UNL     1      46.982  13.402  18.332  0.00  0.00    +0.197 A 
ATOM     10  C   UNL     1      45.947  14.182  18.822  0.00  0.00    -0.028 A 
ATOM     11  C   UNL     1      46.053  15.566  18.820  0.00  0.00    +0.186 A 
ATOM     12  C   UNL     1      47.226  16.159  18.323  0.00  0.00    -0.263 A 
ATOM     13  C   UNL     1      47.336  17.628  18.348  0.00  0.00    +0.442 A 
ATOM     14  C   UNL     1      46.323  18.338  19.155  0.00  0.00    -0.222 A 
ATOM     15  C   UNL     1      45.200  17.622  19.601  0.00  0.00    +0.173 A 
ATOM     16  C   UNL     1      44.246  18.274  20.372  0.00  0.00    -0.012 A 
ATOM     17  C   UNL     1      44.401  19.612  20.684  0.00  0.00    +0.162 A 
ATOM     20  C   UNL     1      45.514  20.324  20.231  0.00  0.00    +0.042 A 
ATOM     23  C   UNL     1      46.474  19.690  19.469  0.00  0.00    +0.015 A 
ATOM     29  O   UNL     1      48.209  18.221  17.740  0.00  0.00    -0.421 OA
ATOM     30  O   UNL     1      45.037  16.319  19.289  0.00  0.00    -0.221 OA
ATOM     31  C   UNL     1      48.268  15.365  17.827  0.00  0.00    +0.221 A 
ENDROOT
BRANCH   7   8
ATOM      8  O   UNL     1      46.866  12.049  18.341  0.00  0.00    -0.484 OA
ATOM      9  H   UNL     1      47.712  11.582  18.379  0.00  0.00    +0.401 HD
ENDBRANCH   7   8
BRANCH  17  18
ATOM     18  O   UNL     1      43.462  20.241  21.437  0.00  0.00    -0.477 OA
ATOM     19  H   UNL     1      43.564  21.203  21.470  0.00  0.00    +0.397 HD
ENDBRANCH  17  18
BRANCH  20  21
ATOM     21  O   UNL     1      45.653  21.641  20.542  0.00  0.00    -0.312 OA
ATOM     22  C   UNL     1      44.942  22.577  19.730  0.00  0.00    +0.221 C 
ENDBRANCH  20  21
BRANCH  31  32
ATOM     32  O   UNL     1      49.395  15.943  17.340  0.00  0.00    -0.472 OA
ATOM     33  H   UNL     1      49.519  16.861  17.619  0.00  0.00    +0.403 HD
ENDBRANCH  31  32
BRANCH   6   5
ATOM      5  C   UNL     1      49.253  13.125  17.299  0.00  0.00    +0.132 C 
BRANCH   5   4
ATOM      1  C   UNL     1      51.317  13.438  15.404  0.00  0.00    +0.076 C 
ATOM      2  C   UNL     1      49.942  13.011  14.960  0.00  0.00    -0.128 C 
ATOM      3  C   UNL     1      49.652  12.812  13.494  0.00  0.00    +0.073 C 
ATOM      4  C   UNL     1      48.998  12.813  15.847  0.00  0.00    -0.053 C 
ENDBRANCH   5   4
ENDBRANCH   6   5
BRANCH  23  24
ATOM     24  C   UNL     1      47.679  20.451  18.980  0.00  0.00    +0.128 C 
BRANCH  24  25
ATOM     25  C   UNL     1      48.702  20.536  20.084  0.00  0.00    -0.036 C 
ATOM     26  C   UNL     1      49.958  20.770  19.797  0.00  0.00    -0.126 C 
ATOM     27  C   UNL     1      50.980  20.854  20.901  0.00  0.00    +0.073 C 
ATOM     28  C   UNL     1      50.380  20.956  18.363  0.00  0.00    +0.073 C 
ENDBRANCH  24  25
ENDBRANCH  23  24
TORSDOF 8
ENDMDL
MODEL 3
REMARK VINA RESULT:      -5.6      1.977      8.513
REMARK  Name = ZINC05430812
REMARK  13 active torsions:
REMARK  status: ('A' for Active; 'I' for Inactive)
REMARK    1  A    between atoms: C1_1  and  C2_2
REMARK    2  A    between atoms: C2_2  and  C24_30
REMARK    3  A    between atoms: C3_3  and  C4_4
REMARK    4  A    between atoms: C4_4  and  C5_5
REMARK    5  A    between atoms: C6_6  and  O6_29
REMARK    6  A    between atoms: C10_10  and  O1_11
REMARK    7  A    between atoms: C15_18  and  O5_28
REMARK    8  A    between atoms: C16_19  and  O4_26
REMARK    9  A    between atoms: C17_20  and  C18_21
REMARK   10  A    between atoms: C18_21  and  C19_22
REMARK   11  A    between atoms: C20_23  and  C21_24
REMARK   12  A    between atoms: C20_23  and  C22_25
REMARK   13  A    between atoms: O4_26  and  C23_27
REMARK                            x       y       z     vdW  Elec       q    Type
REMARK                         _______ _______ _______ _____ _____    ______ ____
ROOT
ATOM      6  C   UNL     1      49.890  17.803  18.099  0.00  0.00    -0.161 A 
ATOM      7  C   UNL     1      50.764  18.641  18.782  0.00  0.00    +0.197 A 
ATOM     10  C   UNL     1      50.284  19.672  19.574  0.00  0.00    -0.028 A 
ATOM     11  C   UNL     1      48.918  19.881  19.696  0.00  0.00    +0.186 A 
ATOM     12  C   UNL     1      48.034  19.040  18.998  0.00  0.00    -0.263 A 
ATOM     13  C   UNL     1      46.586  19.288  19.117  0.00  0.00    +0.442 A 
ATOM     14  C   UNL     1      46.198  20.573  19.732  0.00  0.00    -0.222 A 
ATOM     15  C   UNL     1      47.186  21.325  20.390  0.00  0.00    +0.173 A 
ATOM     16  C   UNL     1      46.838  22.542  20.962  0.00  0.00    -0.012 A 
ATOM     17  C   UNL     1      45.534  22.997  20.888  0.00  0.00    +0.162 A 
ATOM     20  C   UNL     1      44.553  22.244  20.239  0.00  0.00    +0.042 A 
ATOM     23  C   UNL     1      44.883  21.035  19.662  0.00  0.00    +0.015 A 
ATOM     29  O   UNL     1      45.759  18.480  18.732  0.00  0.00    -0.421 OA
ATOM     30  O   UNL     1      48.457  20.879  20.477  0.00  0.00    -0.221 OA
ATOM     31  C   UNL     1      48.526  17.999  18.200  0.00  0.00    +0.221 A 
ENDROOT
BRANCH   7   8
ATOM      8  O   UNL     1      52.103  18.448  18.670  0.00  0.00    -0.484 OA
ATOM      9  H   UNL     1      52.351  17.552  18.407  0.00  0.00    +0.401 HD
ENDBRANCH   7   8
BRANCH  17  18
ATOM     18  O   UNL     1      45.204  24.189  21.450  0.00  0.00    -0.477 OA
ATOM     19  H   UNL     1      45.926  24.604  21.943  0.00  0.00    +0.397 HD
ENDBRANCH  17  18
BRANCH  20  21
ATOM     21  O   UNL     1      43.274  22.701  20.177  0.00  0.00    -0.312 OA
ATOM     22  C   UNL     1      42.948  23.569  19.089  0.00  0.00    +0.221 C 
ENDBRANCH  20  21
BRANCH  31  32
ATOM     32  O   UNL     1      47.667  17.184  17.535  0.00  0.00    -0.472 OA
ATOM     33  H   UNL     1      48.013  16.296  17.372  0.00  0.00    +0.403 HD
ENDBRANCH  31  32
BRANCH   6   5
ATOM      5  C   UNL     1      50.430  16.686  17.244  0.00  0.00    +0.132 C 
BRANCH   5   4
ATOM      1  C   UNL     1      49.245  14.227  16.537  0.00  0.00    +0.076 C 
ATOM      2  C   UNL     1      50.064  14.337  17.798  0.00  0.00    -0.128 C 
ATOM      3  C   UNL     1      50.197  13.148  18.715  0.00  0.00    +0.073 C 
ATOM      4  C   UNL     1      50.659  15.465  18.097  0.00  0.00    -0.053 C 
ENDBRANCH   5   4
ENDBRANCH   6   5
BRANCH  23  24
ATOM     24  C   UNL     1      43.831  20.218  18.959  0.00  0.00    +0.128 C 
BRANCH  24  25
ATOM     25  C   UNL     1      42.998  19.485  19.980  0.00  0.00    -0.036 C 
ATOM     26  C   UNL     1      41.691  19.560  19.935  0.00  0.00    -0.126 C 
ATOM     27  C   UNL     1      40.860  18.827  20.957  0.00  0.00    +0.073 C 
ATOM     28  C   UNL     1      41.020  20.378  18.864  0.00  0.00    +0.073 C 
ENDBRANCH  24  25
ENDBRANCH  23  24
TORSDOF 8
ENDMDL
MODEL 4
REMARK VINA RESULT:      -5.6      2.220      7.389
REMARK  Name = ZINC05430812
REMARK  13 active torsions:
REMARK  status: ('A' for Active; 'I' for Inactive)
REMARK    1  A    between atoms: C1_1  and  C2_2
REMARK    2  A    between atoms: C2_2  and  C24_30
REMARK    3  A    between atoms: C3_3  and  C4_4
REMARK    4  A    between atoms: C4_4  and  C5_5
REMARK    5  A    between atoms: C6_6  and  O6_29
REMARK    6  A    between atoms: C10_10  and  O1_11
REMARK    7  A    between atoms: C15_18  and  O5_28
REMARK    8  A    between atoms: C16_19  and  O4_26
REMARK    9  A    between atoms: C17_20  and  C18_21
REMARK   10  A    between atoms: C18_21  and  C19_22
REMARK   11  A    between atoms: C20_23  and  C21_24
REMARK   12  A    between atoms: C20_23  and  C22_25
REMARK   13  A    between atoms: O4_26  and  C23_27
REMARK                            x       y       z     vdW  Elec       q    Type
REMARK                         _______ _______ _______ _____ _____    ______ ____
ROOT
ATOM      6  C   UNL     1      48.409  13.691  16.435  0.00  0.00    -0.161 A 
ATOM      7  C   UNL     1      47.028  13.552  16.512  0.00  0.00    +0.197 A 
ATOM     10  C   UNL     1      46.234  14.603  16.943  0.00  0.00    -0.028 A 
ATOM     11  C   UNL     1      46.811  15.812  17.305  0.00  0.00    +0.186 A 
ATOM     12  C   UNL     1      48.208  15.949  17.237  0.00  0.00    -0.263 A 
ATOM     13  C   UNL     1      48.810  17.230  17.647  0.00  0.00    +0.442 A 
ATOM     14  C   UNL     1      47.918  18.163  18.364  0.00  0.00    -0.222 A 
ATOM     15  C   UNL     1      46.538  17.902  18.366  0.00  0.00    +0.173 A 
ATOM     16  C   UNL     1      45.688  18.764  19.047  0.00  0.00    -0.012 A 
ATOM     17  C   UNL     1      46.201  19.868  19.705  0.00  0.00    +0.162 A 
ATOM     20  C   UNL     1      47.572  20.129  19.695  0.00  0.00    +0.042 A 
ATOM     23  C   UNL     1      48.430  19.279  19.027  0.00  0.00    +0.015 A 
ATOM     29  O   UNL     1      49.973  17.503  17.408  0.00  0.00    -0.421 OA
ATOM     30  O   UNL     1      46.031  16.834  17.714  0.00  0.00    -0.221 OA
ATOM     31  C   UNL     1      49.005  14.883  16.798  0.00  0.00    +0.221 A 
ENDROOT
BRANCH   7   8
ATOM      8  O   UNL     1      46.451  12.374  16.162  0.00  0.00    -0.484 OA
ATOM      9  H   UNL     1      46.992  11.597  16.360  0.00  0.00    +0.401 HD
ENDBRANCH   7   8
BRANCH  17  18
ATOM     18  O   UNL     1      45.362  20.705  20.368  0.00  0.00    -0.477 OA
ATOM     19  H   UNL     1      45.440  21.632  20.102  0.00  0.00    +0.397 HD
ENDBRANCH  17  18
BRANCH  20  21
ATOM     21  O   UNL     1      48.063  21.220  20.343  0.00  0.00    -0.312 OA
ATOM     22  C   UNL     1      48.352  21.072  21.735  0.00  0.00    +0.221 C 
ENDBRANCH  20  21
BRANCH  31  32
ATOM     32  O   UNL     1      50.354  15.024  16.726  0.00  0.00    -0.472 OA
ATOM     33  H   UNL     1      50.693  15.806  17.181  0.00  0.00    +0.403 HD
ENDBRANCH  31  32
BRANCH   6   5
ATOM      5  C   UNL     1      49.257  12.538  15.961  0.00  0.00    +0.132 C 
BRANCH   5   4
ATOM      1  C   UNL     1      51.829  12.579  14.808  0.00  0.00    +0.076 C 
ATOM      2  C   UNL     1      50.607  12.684  13.932  0.00  0.00    -0.128 C 
ATOM      3  C   UNL     1      50.760  12.874  12.445  0.00  0.00    +0.073 C 
ATOM      4  C   UNL     1      49.412  12.609  14.464  0.00  0.00    -0.053 C 
ENDBRANCH   5   4
ENDBRANCH   6   5
BRANCH  23  24
ATOM     24  C   UNL     1      49.912  19.554  19.014  0.00  0.00    +0.128 C 
BRANCH  24  25
ATOM     25  C   UNL     1      50.240  20.488  17.876  0.00  0.00    -0.036 C 
ATOM     26  C   UNL     1      51.452  20.518  17.383  0.00  0.00    -0.126 C 
ATOM     27  C   UNL     1      51.779  21.453  16.246  0.00  0.00    +0.073 C 
ATOM     28  C   UNL     1      52.520  19.620  17.951  0.00  0.00    +0.073 C 
ENDBRANCH  24  25
ENDBRANCH  23  24
TORSDOF 8
ENDMDL
MODEL 5
REMARK VINA RESULT:      -5.5      2.929      5.217
REMARK  Name = ZINC05430812
REMARK  13 active torsions:
REMARK  status: ('A' for Active; 'I' for Inactive)
REMARK    1  A    between atoms: C1_1  and  C2_2
REMARK    2  A    between atoms: C2_2  and  C24_30
REMARK    3  A    between atoms: C3_3  and  C4_4
REMARK    4  A    between atoms: C4_4  and  C5_5
REMARK    5  A    between atoms: C6_6  and  O6_29
REMARK    6  A    between atoms: C10_10  and  O1_11
REMARK    7  A    between atoms: C15_18  and  O5_28
REMARK    8  A    between atoms: C16_19  and  O4_26
REMARK    9  A    between atoms: C17_20  and  C18_21
REMARK   10  A    between atoms: C18_21  and  C19_22
REMARK   11  A    between atoms: C20_23  and  C21_24
REMARK   12  A    between atoms: C20_23  and  C22_25
REMARK   13  A    between atoms: O4_26  and  C23_27
REMARK                            x       y       z     vdW  Elec       q    Type
REMARK                         _______ _______ _______ _____ _____    ______ ____
ROOT
ATOM      6  C   UNL     1      49.303  19.406  19.757  0.00  0.00    -0.161 A 
ATOM      7  C   UNL     1      48.060  19.766  20.265  0.00  0.00    +0.197 A 
ATOM     10  C   UNL     1      47.056  18.822  20.417  0.00  0.00    -0.028 A 
ATOM     11  C   UNL     1      47.281  17.500  20.060  0.00  0.00    +0.186 A 
ATOM     12  C   UNL     1      48.534  17.139  19.536  0.00  0.00    -0.263 A 
ATOM     13  C   UNL     1      48.753  15.736  19.138  0.00  0.00    +0.442 A 
ATOM     14  C   UNL     1      47.544  14.891  19.059  0.00  0.00    -0.222 A 
ATOM     15  C   UNL     1      46.348  15.380  19.613  0.00  0.00    +0.173 A 
ATOM     16  C   UNL     1      45.200  14.601  19.534  0.00  0.00    -0.012 A 
ATOM     17  C   UNL     1      45.244  13.360  18.925  0.00  0.00    +0.162 A 
ATOM     20  C   UNL     1      46.435  12.874  18.383  0.00  0.00    +0.042 A 
ATOM     23  C   UNL     1      47.583  13.637  18.449  0.00  0.00    +0.015 A 
ATOM     29  O   UNL     1      49.863  15.300  18.892  0.00  0.00    -0.421 OA
ATOM     30  O   UNL     1      46.304  16.585  20.219  0.00  0.00    -0.221 OA
ATOM     31  C   UNL     1      49.546  18.097  19.387  0.00  0.00    +0.221 A 
ENDROOT
BRANCH   7   8
ATOM      8  O   UNL     1      47.827  21.056  20.617  0.00  0.00    -0.484 OA
ATOM      9  H   UNL     1      48.284  21.333  21.422  0.00  0.00    +0.401 HD
ENDBRANCH   7   8
BRANCH  17  18
ATOM     18  O   UNL     1      44.116  12.606  18.853  0.00  0.00    -0.477 OA
ATOM     19  H   UNL     1      43.435  12.856  19.494  0.00  0.00    +0.397 HD
ENDBRANCH  17  18
BRANCH  20  21
ATOM     21  O   UNL     1      46.465  11.650  17.791  0.00  0.00    -0.312 OA
ATOM     22  C   UNL     1      45.837  11.533  16.512  0.00  0.00    +0.221 C 
ENDBRANCH  20  21
BRANCH  31  32
ATOM     32  O   UNL     1      50.757  17.740  18.889  0.00  0.00    -0.472 OA
ATOM     33  H   UNL     1      50.710  17.161  18.117  0.00  0.00    +0.403 HD
ENDBRANCH  31  32
BRANCH   6   5
ATOM      5  C   UNL     1      50.383  20.446  19.602  0.00  0.00    +0.132 C 
BRANCH   5   4
ATOM      1  C   UNL     1      52.737  20.228  18.066  0.00  0.00    +0.076 C 
ATOM      2  C   UNL     1      51.514  20.889  17.484  0.00  0.00    -0.128 C 
ATOM      3  C   UNL     1      51.568  21.491  16.104  0.00  0.00    +0.073 C 
ATOM      4  C   UNL     1      50.404  20.941  18.179  0.00  0.00    -0.053 C 
ENDBRANCH   5   4
ENDBRANCH   6   5
BRANCH  23  24
ATOM     24  C   UNL     1      48.872  13.120  17.864  0.00  0.00    +0.128 C 
BRANCH  24  25
ATOM     25  C   UNL     1      48.892  13.385  16.380  0.00  0.00    -0.036 C 
ATOM     26  C   UNL     1      49.256  12.439  15.551  0.00  0.00    -0.126 C 
ATOM     27  C   UNL     1      49.276  12.706  14.067  0.00  0.00    +0.073 C 
ATOM     28  C   UNL     1      49.654  11.086  16.079  0.00  0.00    +0.073 C 
ENDBRANCH  24  25
ENDBRANCH  23  24
TORSDOF 8
ENDMDL
MODEL 6
REMARK VINA RESULT:      -5.4      3.395      6.208
REMARK  Name = ZINC05430812
REMARK  13 active torsions:
REMARK  status: ('A' for Active; 'I' for Inactive)
REMARK    1  A    between atoms: C1_1  and  C2_2
REMARK    2  A    between atoms: C2_2  and  C24_30
REMARK    3  A    between atoms: C3_3  and  C4_4
REMARK    4  A    between atoms: C4_4  and  C5_5
REMARK    5  A    between atoms: C6_6  and  O6_29
REMARK    6  A    between atoms: C10_10  and  O1_11
REMARK    7  A    between atoms: C15_18  and  O5_28
REMARK    8  A    between atoms: C16_19  and  O4_26
REMARK    9  A    between atoms: C17_20  and  C18_21
REMARK   10  A    between atoms: C18_21  and  C19_22
REMARK   11  A    between atoms: C20_23  and  C21_24
REMARK   12  A    between atoms: C20_23  and  C22_25
REMARK   13  A    between atoms: O4_26  and  C23_27
REMARK                            x       y       z     vdW  Elec       q    Type
REMARK                         _______ _______ _______ _____ _____    ______ ____
ROOT
ATOM      6  C   UNL     1      50.597  19.413  18.324  0.00  0.00    -0.161 A 
ATOM      7  C   UNL     1      51.740  18.846  17.771  0.00  0.00    +0.197 A 
ATOM     10  C   UNL     1      51.712  17.562  17.250  0.00  0.00    -0.028 A 
ATOM     11  C   UNL     1      50.538  16.823  17.275  0.00  0.00    +0.186 A 
ATOM     12  C   UNL     1      49.386  17.392  17.844  0.00  0.00    -0.263 A 
ATOM     13  C   UNL     1      48.151  16.588  17.887  0.00  0.00    +0.442 A 
ATOM     14  C   UNL     1      48.306  15.150  17.586  0.00  0.00    -0.222 A 
ATOM     15  C   UNL     1      49.518  14.710  17.030  0.00  0.00    +0.173 A 
ATOM     16  C   UNL     1      49.682  13.358  16.754  0.00  0.00    -0.012 A 
ATOM     17  C   UNL     1      48.659  12.466  17.018  0.00  0.00    +0.162 A 
ATOM     20  C   UNL     1      47.452  12.908  17.564  0.00  0.00    +0.042 A 
ATOM     23  C   UNL     1      47.275  14.247  17.848  0.00  0.00    +0.015 A 
ATOM     29  O   UNL     1      47.069  17.080  18.153  0.00  0.00    -0.421 OA
ATOM     30  O   UNL     1      50.516  15.578  16.758  0.00  0.00    -0.221 OA
ATOM     31  C   UNL     1      49.419  18.692  18.367  0.00  0.00    +0.221 A 
ENDROOT
BRANCH   7   8
ATOM      8  O   UNL     1      52.895  19.558  17.740  0.00  0.00    -0.484 OA
ATOM      9  H   UNL     1      53.599  19.189  18.291  0.00  0.00    +0.401 HD
ENDBRANCH   7   8
BRANCH  17  18
ATOM     18  O   UNL     1      48.829  11.147  16.744  0.00  0.00    -0.477 OA
ATOM     19  H   UNL     1      49.325  10.665  17.421  0.00  0.00    +0.397 HD
ENDBRANCH  17  18
BRANCH  20  21
ATOM     21  O   UNL     1      46.452  12.021  17.815  0.00  0.00    -0.312 OA
ATOM     22  C   UNL     1      45.589  11.691  16.725  0.00  0.00    +0.221 C 
ENDBRANCH  20  21
BRANCH  31  32
ATOM     32  O   UNL     1      48.301  19.240  18.907  0.00  0.00    -0.472 OA
ATOM     33  H   UNL     1      47.761  19.736  18.277  0.00  0.00    +0.403 HD
ENDBRANCH  31  32
BRANCH   6   5
ATOM      5  C   UNL     1      50.645  20.812  18.883  0.00  0.00    +0.132 C 
BRANCH   5   4
ATOM      1  C   UNL     1      52.841  22.094  20.102  0.00  0.00    +0.076 C 
ATOM      2  C   UNL     1      51.870  21.300  20.938  0.00  0.00    -0.128 C 
ATOM      3  C   UNL     1      52.108  21.138  22.417  0.00  0.00    +0.073 C 
ATOM      4  C   UNL     1      50.820  20.751  20.378  0.00  0.00    -0.053 C 
ENDBRANCH   5   4
ENDBRANCH   6   5
BRANCH  23  24
ATOM     24  C   UNL     1      45.976  14.731  18.439  0.00  0.00    +0.128 C 
BRANCH  24  25
ATOM     25  C   UNL     1      45.846  14.219  19.851  0.00  0.00    -0.036 C 
ATOM     26  C   UNL     1      45.286  14.966  20.770  0.00  0.00    -0.126 C 
ATOM     27  C   UNL     1      45.156  14.453  22.181  0.00  0.00    +0.073 C 
ATOM     28  C   UNL     1      44.771  16.337  20.415  0.00  0.00    +0.073 C 
ENDBRANCH  24  25
ENDBRANCH  23  24
TORSDOF 8
ENDMDL
MODEL 7
REMARK VINA RESULT:      -5.4      1.928      4.268
REMARK  Name = ZINC05430812
REMARK  13 active torsions:
REMARK  status: ('A' for Active; 'I' for Inactive)
REMARK    1  A    between atoms: C1_1  and  C2_2
REMARK    2  A    between atoms: C2_2  and  C24_30
REMARK    3  A    between atoms: C3_3  and  C4_4
REMARK    4  A    between atoms: C4_4  and  C5_5
REMARK    5  A    between atoms: C6_6  and  O6_29
REMARK    6  A    between atoms: C10_10  and  O1_11
REMARK    7  A    between atoms: C15_18  and  O5_28
REMARK    8  A    between atoms: C16_19  and  O4_26
REMARK    9  A    between atoms: C17_20  and  C18_21
REMARK   10  A    between atoms: C18_21  and  C19_22
REMARK   11  A    between atoms: C20_23  and  C21_24
REMARK   12  A    between atoms: C20_23  and  C22_25
REMARK   13  A    between atoms: O4_26  and  C23_27
REMARK                            x       y       z     vdW  Elec       q    Type
REMARK                         _______ _______ _______ _____ _____    ______ ____
ROOT
ATOM      6  C   UNL     1      45.198  19.953  20.066  0.00  0.00    -0.161 A 
ATOM      7  C   UNL     1      46.146  20.970  20.073  0.00  0.00    +0.197 A 
ATOM     10  C   UNL     1      47.397  20.776  19.510  0.00  0.00    -0.028 A 
ATOM     11  C   UNL     1      47.721  19.558  18.930  0.00  0.00    +0.186 A 
ATOM     12  C   UNL     1      46.767  18.526  18.932  0.00  0.00    -0.263 A 
ATOM     13  C   UNL     1      47.132  17.229  18.335  0.00  0.00    +0.442 A 
ATOM     14  C   UNL     1      48.566  17.034  18.040  0.00  0.00    -0.222 A 
ATOM     15  C   UNL     1      49.416  18.151  18.085  0.00  0.00    +0.173 A 
ATOM     16  C   UNL     1      50.770  17.980  17.823  0.00  0.00    -0.012 A 
ATOM     17  C   UNL     1      51.264  16.726  17.513  0.00  0.00    +0.162 A 
ATOM     20  C   UNL     1      50.414  15.619  17.460  0.00  0.00    +0.042 A 
ATOM     23  C   UNL     1      49.068  15.772  17.723  0.00  0.00    +0.015 A 
ATOM     29  O   UNL     1      46.300  16.371  18.098  0.00  0.00    -0.421 OA
ATOM     30  O   UNL     1      48.937  19.380  18.375  0.00  0.00    -0.221 OA
ATOM     31  C   UNL     1      45.503  18.729  19.502  0.00  0.00    +0.221 A 
ENDROOT
BRANCH   7   8
ATOM      8  O   UNL     1      45.842  22.167  20.638  0.00  0.00    -0.484 OA
ATOM      9  H   UNL     1      46.330  22.352  21.452  0.00  0.00    +0.401 HD
ENDBRANCH   7   8
BRANCH  17  18
ATOM     18  O   UNL     1      52.588  16.569  17.257  0.00  0.00    -0.477 OA
ATOM     19  H   UNL     1      52.962  15.748  17.607  0.00  0.00    +0.397 HD
ENDBRANCH  17  18
BRANCH  20  21
ATOM     21  O   UNL     1      50.912  14.392  17.150  0.00  0.00    -0.312 OA
ATOM     22  C   UNL     1      51.450  13.620  18.226  0.00  0.00    +0.221 C 
ENDBRANCH  20  21
BRANCH  31  32
ATOM     32  O   UNL     1      44.582  17.732  19.493  0.00  0.00    -0.472 OA
ATOM     33  H   UNL     1      44.595  17.190  18.693  0.00  0.00    +0.403 HD
ENDBRANCH  31  32
BRANCH   6   5
ATOM      5  C   UNL     1      43.842  20.183  20.681  0.00  0.00    +0.132 C 
BRANCH   5   4
ATOM      1  C   UNL     1      41.271  19.032  20.547  0.00  0.00    +0.076 C 
ATOM      2  C   UNL     1      41.699  20.047  19.518  0.00  0.00    -0.128 C 
ATOM      3  C   UNL     1      40.777  20.401  18.381  0.00  0.00    +0.073 C 
ATOM      4  C   UNL     1      42.873  20.622  19.614  0.00  0.00    -0.053 C 
ENDBRANCH   5   4
ENDBRANCH   6   5
BRANCH  23  24
ATOM     24  C   UNL     1      48.146  14.581  17.671  0.00  0.00    +0.128 C 
BRANCH  24  25
ATOM     25  C   UNL     1      47.920  14.184  16.234  0.00  0.00    -0.036 C 
ATOM     26  C   UNL     1      47.982  12.923  15.886  0.00  0.00    -0.126 C 
ATOM     27  C   UNL     1      47.757  12.527  14.449  0.00  0.00    +0.073 C 
ATOM     28  C   UNL     1      48.279  11.869  16.921  0.00  0.00    +0.073 C 
ENDBRANCH  24  25
ENDBRANCH  23  24
TORSDOF 8
ENDMDL
MODEL 8
REMARK VINA RESULT:      -5.2      3.003      5.156
REMARK  Name = ZINC05430812
REMARK  13 active torsions:
REMARK  status: ('A' for Active; 'I' for Inactive)
REMARK    1  A    between atoms: C1_1  and  C2_2
REMARK    2  A    between atoms: C2_2  and  C24_30
REMARK    3  A    between atoms: C3_3  and  C4_4
REMARK    4  A    between atoms: C4_4  and  C5_5
REMARK    5  A    between atoms: C6_6  and  O6_29
REMARK    6  A    between atoms: C10_10  and  O1_11
REMARK    7  A    between atoms: C15_18  and  O5_28
REMARK    8  A    between atoms: C16_19  and  O4_26
REMARK    9  A    between atoms: C17_20  and  C18_21
REMARK   10  A    between atoms: C18_21  and  C19_22
REMARK   11  A    between atoms: C20_23  and  C21_24
REMARK   12  A    between atoms: C20_23  and  C22_25
REMARK   13  A    between atoms: O4_26  and  C23_27
REMARK                            x       y       z     vdW  Elec       q    Type
REMARK                         _______ _______ _______ _____ _____    ______ ____
ROOT
ATOM      6  C   UNL     1      49.110  19.433  18.711  0.00  0.00    -0.161 A 
ATOM      7  C   UNL     1      47.743  19.377  18.958  0.00  0.00    +0.197 A 
ATOM     10  C   UNL     1      47.030  18.209  18.737  0.00  0.00    -0.028 A 
ATOM     11  C   UNL     1      47.675  17.076  18.262  0.00  0.00    +0.186 A 
ATOM     12  C   UNL     1      49.055  17.135  18.002  0.00  0.00    -0.263 A 
ATOM     13  C   UNL     1      49.724  15.933  17.475  0.00  0.00    +0.442 A 
ATOM     14  C   UNL     1      48.834  14.855  16.998  0.00  0.00    -0.222 A 
ATOM     15  C   UNL     1      47.468  14.924  17.318  0.00  0.00    +0.173 A 
ATOM     16  C   UNL     1      46.617  13.924  16.864  0.00  0.00    -0.012 A 
ATOM     17  C   UNL     1      47.117  12.874  16.115  0.00  0.00    +0.162 A 
ATOM     20  C   UNL     1      48.477  12.804  15.806  0.00  0.00    +0.042 A 
ATOM     23  C   UNL     1      49.335  13.791  16.245  0.00  0.00    +0.015 A 
ATOM     29  O   UNL     1      50.938  15.832  17.438  0.00  0.00    -0.421 OA
ATOM     30  O   UNL     1      46.977  15.940  18.059  0.00  0.00    -0.221 OA
ATOM     31  C   UNL     1      49.771  18.318  18.230  0.00  0.00    +0.221 A 
ENDROOT
BRANCH   7   8
ATOM      8  O   UNL     1      47.099  20.478  19.422  0.00  0.00    -0.484 OA
ATOM      9  H   UNL     1      47.339  20.723  20.326  0.00  0.00    +0.401 HD
ENDBRANCH   7   8
BRANCH  17  18
ATOM     18  O   UNL     1      46.277  11.901  15.677  0.00  0.00    -0.477 OA
ATOM     19  H   UNL     1      45.366  11.997  15.989  0.00  0.00    +0.397 HD
ENDBRANCH  17  18
BRANCH  20  21
ATOM     21  O   UNL     1      48.956  11.763  15.072  0.00  0.00    -0.312 OA
ATOM     22  C   UNL     1      48.934  10.473  15.686  0.00  0.00    +0.221 C 
ENDBRANCH  20  21
BRANCH  31  32
ATOM     32  O   UNL     1      51.105  18.367  17.985  0.00  0.00    -0.472 OA
ATOM     33  H   UNL     1      51.337  18.793  17.149  0.00  0.00    +0.403 HD
ENDBRANCH  31  32
BRANCH   6   5
ATOM      5  C   UNL     1      49.869  20.710  18.960  0.00  0.00    +0.132 C 
BRANCH   5   4
ATOM      1  C   UNL     1      52.597  21.240  19.438  0.00  0.00    +0.076 C 
ATOM      2  C   UNL     1      51.680  20.904  20.586  0.00  0.00    -0.128 C 
ATOM      3  C   UNL     1      52.233  20.790  21.983  0.00  0.00    +0.073 C 
ATOM      4  C   UNL     1      50.401  20.713  20.369  0.00  0.00    -0.053 C 
ENDBRANCH   5   4
ENDBRANCH   6   5
BRANCH  23  24
ATOM     24  C   UNL     1      50.803  13.724  15.913  0.00  0.00    +0.128 C 
BRANCH  24  25
ATOM     25  C   UNL     1      51.496  12.804  16.886  0.00  0.00    -0.036 C 
ATOM     26  C   UNL     1      52.249  11.829  16.443  0.00  0.00    -0.126 C 
ATOM     27  C   UNL     1      52.942  10.910  17.418  0.00  0.00    +0.073 C 
ATOM     28  C   UNL     1      52.424  11.626  14.961  0.00  0.00    +0.073 C 
ENDBRANCH  24  25
ENDBRANCH  23  24
TORSDOF 8
ENDMDL
MODEL 9
REMARK VINA RESULT:      -5.1      2.710      8.140
REMARK  Name = ZINC05430812
REMARK  13 active torsions:
REMARK  status: ('A' for Active; 'I' for Inactive)
REMARK    1  A    between atoms: C1_1  and  C2_2
REMARK    2  A    between atoms: C2_2  and  C24_30
REMARK    3  A    between atoms: C3_3  and  C4_4
REMARK    4  A    between atoms: C4_4  and  C5_5
REMARK    5  A    between atoms: C6_6  and  O6_29
REMARK    6  A    between atoms: C10_10  and  O1_11
REMARK    7  A    between atoms: C15_18  and  O5_28
REMARK    8  A    between atoms: C16_19  and  O4_26
REMARK    9  A    between atoms: C17_20  and  C18_21
REMARK   10  A    between atoms: C18_21  and  C19_22
REMARK   11  A    between atoms: C20_23  and  C21_24
REMARK   12  A    between atoms: C20_23  and  C22_25
REMARK   13  A    between atoms: O4_26  and  C23_27
REMARK                            x       y       z     vdW  Elec       q    Type
REMARK                         _______ _______ _______ _____ _____    ______ ____
ROOT
ATOM      6  C   UNL     1      48.641  13.036  17.720  0.00  0.00    -0.161 A 
ATOM      7  C   UNL     1      48.204  12.205  18.746  0.00  0.00    +0.197 A 
ATOM     10  C   UNL     1      47.174  12.599  19.586  0.00  0.00    -0.028 A 
ATOM     11  C   UNL     1      46.564  13.833  19.414  0.00  0.00    +0.186 A 
ATOM     12  C   UNL     1      47.013  14.678  18.384  0.00  0.00    -0.263 A 
ATOM     13  C   UNL     1      46.374  15.996  18.226  0.00  0.00    +0.442 A 
ATOM     14  C   UNL     1      45.510  16.433  19.342  0.00  0.00    -0.222 A 
ATOM     15  C   UNL     1      45.145  15.488  20.315  0.00  0.00    +0.173 A 
ATOM     16  C   UNL     1      44.343  15.888  21.377  0.00  0.00    -0.012 A 
ATOM     17  C   UNL     1      43.908  17.198  21.463  0.00  0.00    +0.162 A 
ATOM     20  C   UNL     1      44.266  18.133  20.490  0.00  0.00    +0.042 A 
ATOM     23  C   UNL     1      45.065  17.752  19.431  0.00  0.00    +0.015 A 
ATOM     29  O   UNL     1      46.546  16.683  17.235  0.00  0.00    -0.421 OA
ATOM     30  O   UNL     1      45.556  14.205  20.229  0.00  0.00    -0.221 OA
ATOM     31  C   UNL     1      48.053  14.273  17.536  0.00  0.00    +0.221 A 
ENDROOT
BRANCH   7   8
ATOM      8  O   UNL     1      48.793  10.996  18.926  0.00  0.00    -0.484 OA
ATOM      9  H   UNL     1      48.978  10.782  19.851  0.00  0.00    +0.401 HD
ENDBRANCH   7   8
BRANCH  17  18
ATOM     18  O   UNL     1      43.125  17.579  22.505  0.00  0.00    -0.477 OA
ATOM     19  H   UNL     1      42.607  16.859  22.892  0.00  0.00    +0.397 HD
ENDBRANCH  17  18
BRANCH  20  21
ATOM     21  O   UNL     1      43.828  19.417  20.585  0.00  0.00    -0.312 OA
ATOM     22  C   UNL     1      42.533  19.701  20.051  0.00  0.00    +0.221 C 
ENDBRANCH  20  21
BRANCH  31  32
ATOM     32  O   UNL     1      48.476  15.089  16.537  0.00  0.00    -0.472 OA
ATOM     33  H   UNL     1      48.350  14.725  15.650  0.00  0.00    +0.403 HD
ENDBRANCH  31  32
BRANCH   6   5
ATOM      5  C   UNL     1      49.760  12.591  16.814  0.00  0.00    +0.132 C 
BRANCH   5   4
ATOM      1  C   UNL     1      51.672  10.521  16.916  0.00  0.00    +0.076 C 
ATOM      2  C   UNL     1      51.948  11.839  17.594  0.00  0.00    -0.128 C 
ATOM      3  C   UNL     1      53.219  12.029  18.380  0.00  0.00    +0.073 C 
ATOM      4  C   UNL     1      51.082  12.818  17.499  0.00  0.00    -0.053 C 
ENDBRANCH   5   4
ENDBRANCH   6   5
BRANCH  23  24
ATOM     24  C   UNL     1      45.458  18.757  18.378  0.00  0.00    +0.128 C 
BRANCH  24  25
ATOM     25  C   UNL     1      46.824  19.310  18.696  0.00  0.00    -0.036 C 
ATOM     26  C   UNL     1      46.984  20.597  18.871  0.00  0.00    -0.126 C 
ATOM     27  C   UNL     1      48.351  21.150  19.188  0.00  0.00    +0.073 C 
ATOM     28  C   UNL     1      45.804  21.526  18.756  0.00  0.00    +0.073 C 
ENDBRANCH  24  25
ENDBRANCH  23  24
TORSDOF 8
ENDMDL
