MODEL 1
REMARK VINA RESULT:      -6.2      0.000      0.000
REMARK  Name = ZINC95486295
REMARK  9 active torsions:
REMARK  status: ('A' for Active; 'I' for Inactive)
REMARK    1  A    between atoms: C1_1  and  O1_2
REMARK    2  A    between atoms: O1_2  and  C2_3
REMARK    3  A    between atoms: C5_6  and  O2_9
REMARK    4  A    between atoms: O2_9  and  C8_10
REMARK    5  A    between atoms: C9_11  and  O7_24
REMARK    6  A    between atoms: C14_18  and  O6_23
REMARK    7  A    between atoms: C16_20  and  O5_21
REMARK    8  A    between atoms: O5_21  and  C17_22
REMARK    9  A    between atoms: O7_24  and  C18_25
REMARK                            x       y       z     vdW  Elec       q    Type
REMARK                         _______ _______ _______ _____ _____    ______ ____
ROOT
ATOM      8  C   UNL     1      44.592  18.710  20.268  0.00  0.00    +0.220 A 
ATOM      9  C   UNL     1      45.521  19.657  20.568  0.00  0.00    -0.076 A 
ATOM     12  C   UNL     1      45.224  21.020  20.341  0.00  0.00    +0.442 A 
ATOM     13  C   UNL     1      43.899  21.342  19.783  0.00  0.00    -0.262 A 
ATOM     14  C   UNL     1      43.014  20.286  19.510  0.00  0.00    +0.216 A 
ATOM     15  C   UNL     1      41.761  20.566  18.983  0.00  0.00    -0.057 A 
ATOM     16  C   UNL     1      41.392  21.877  18.732  0.00  0.00    +0.219 A 
ATOM     19  C   UNL     1      42.267  22.924  19.000  0.00  0.00    -0.120 A 
ATOM     20  C   UNL     1      43.520  22.665  19.526  0.00  0.00    +0.240 A 
ATOM     23  O   UNL     1      46.034  21.898  20.597  0.00  0.00    -0.426 OA
ATOM     24  O   UNL     1      43.391  19.014  19.755  0.00  0.00    -0.230 OA
ENDROOT
BRANCH   9  10
ATOM     10  O   UNL     1      46.729  19.294  21.082  0.00  0.00    -0.285 OA
ATOM     11  C   UNL     1      46.836  19.228  22.505  0.00  0.00    +0.257 C 
ENDBRANCH   9  10
BRANCH  16  17
ATOM     17  O   UNL     1      40.164  22.143  18.217  0.00  0.00    -0.488 OA
ATOM     18  H   UNL     1      40.016  21.765  17.339  0.00  0.00    +0.405 HD
ENDBRANCH  16  17
BRANCH  20  21
ATOM     21  O   UNL     1      44.375  23.685  19.789  0.00  0.00    -0.277 OA
ATOM     22  C   UNL     1      44.434  24.747  18.833  0.00  0.00    +0.252 C 
ENDBRANCH  20  21
BRANCH   8   7
ATOM      7  O   UNL     1      44.894  17.412  20.492  0.00  0.00    -0.203 OA
BRANCH   7   6
ATOM      3  C   UNL     1      46.492  15.229  17.373  0.00  0.00    +0.143 A 
ATOM      4  C   UNL     1      46.418  16.612  17.286  0.00  0.00    -0.058 A 
ATOM      5  C   UNL     1      45.883  17.342  18.329  0.00  0.00    +0.062 A 
ATOM      6  C   UNL     1      45.420  16.693  19.465  0.00  0.00    +0.011 A 
ATOM     25  C   UNL     1      45.493  15.310  19.553  0.00  0.00    +0.076 A 
ATOM     26  C   UNL     1      46.024  14.580  18.507  0.00  0.00    +0.003 A 
BRANCH   3   2
ATOM      1  C   UNL     1      47.008  13.087  16.480  0.00  0.00    +0.246 C 
ATOM      2  O   UNL     1      47.018  14.510  16.346  0.00  0.00    -0.312 OA
ENDBRANCH   3   2
ENDBRANCH   7   6
ENDBRANCH   8   7
TORSDOF 6
ENDMDL
MODEL 2
REMARK VINA RESULT:      -5.9      4.218      8.037
REMARK  Name = ZINC95486295
REMARK  9 active torsions:
REMARK  status: ('A' for Active; 'I' for Inactive)
REMARK    1  A    between atoms: C1_1  and  O1_2
REMARK    2  A    between atoms: O1_2  and  C2_3
REMARK    3  A    between atoms: C5_6  and  O2_9
REMARK    4  A    between atoms: O2_9  and  C8_10
REMARK    5  A    between atoms: C9_11  and  O7_24
REMARK    6  A    between atoms: C14_18  and  O6_23
REMARK    7  A    between atoms: C16_20  and  O5_21
REMARK    8  A    between atoms: O5_21  and  C17_22
REMARK    9  A    between atoms: O7_24  and  C18_25
REMARK                            x       y       z     vdW  Elec       q    Type
REMARK                         _______ _______ _______ _____ _____    ______ ____
ROOT
ATOM      8  C   UNL     1      48.946  20.065  20.459  0.00  0.00    +0.220 A 
ATOM      9  C   UNL     1      49.176  18.728  20.545  0.00  0.00    -0.076 A 
ATOM     12  C   UNL     1      50.064  18.114  19.632  0.00  0.00    +0.442 A 
ATOM     13  C   UNL     1      50.701  18.975  18.622  0.00  0.00    -0.262 A 
ATOM     14  C   UNL     1      50.394  20.347  18.622  0.00  0.00    +0.216 A 
ATOM     15  C   UNL     1      50.982  21.177  17.679  0.00  0.00    -0.057 A 
ATOM     16  C   UNL     1      51.865  20.653  16.749  0.00  0.00    +0.219 A 
ATOM     19  C   UNL     1      52.170  19.296  16.746  0.00  0.00    -0.120 A 
ATOM     20  C   UNL     1      51.594  18.453  17.679  0.00  0.00    +0.240 A 
ATOM     23  O   UNL     1      50.294  16.915  19.679  0.00  0.00    -0.426 OA
ATOM     24  O   UNL     1      49.527  20.839  19.532  0.00  0.00    -0.230 OA
ENDROOT
BRANCH   9  10
ATOM     10  O   UNL     1      48.554  17.985  21.503  0.00  0.00    -0.285 OA
ATOM     11  C   UNL     1      47.295  17.403  21.159  0.00  0.00    +0.257 C 
ENDBRANCH   9  10
BRANCH  16  17
ATOM     17  O   UNL     1      52.437  21.472  15.829  0.00  0.00    -0.488 OA
ATOM     18  H   UNL     1      53.235  21.109  15.421  0.00  0.00    +0.405 HD
ENDBRANCH  16  17
BRANCH  20  21
ATOM     21  O   UNL     1      51.891  17.129  17.679  0.00  0.00    -0.277 OA
ATOM     22  C   UNL     1      51.778  16.438  16.432  0.00  0.00    +0.252 C 
ENDBRANCH  20  21
BRANCH   8   7
ATOM      7  O   UNL     1      48.094  20.635  21.340  0.00  0.00    -0.203 OA
BRANCH   7   6
ATOM      3  C   UNL     1      44.987  22.904  19.842  0.00  0.00    +0.143 A 
ATOM      4  C   UNL     1      45.684  23.334  20.962  0.00  0.00    -0.058 A 
ATOM      5  C   UNL     1      46.722  22.576  21.464  0.00  0.00    +0.062 A 
ATOM      6  C   UNL     1      47.070  21.382  20.846  0.00  0.00    +0.011 A 
ATOM     25  C   UNL     1      46.375  20.951  19.727  0.00  0.00    +0.076 A 
ATOM     26  C   UNL     1      45.332  21.708  19.228  0.00  0.00    +0.003 A 
BRANCH   3   2
ATOM      1  C   UNL     1      44.313  24.850  18.654  0.00  0.00    +0.246 C 
ATOM      2  O   UNL     1      43.964  23.651  19.348  0.00  0.00    -0.312 OA
ENDBRANCH   3   2
ENDBRANCH   7   6
ENDBRANCH   8   7
TORSDOF 6
ENDMDL
MODEL 3
REMARK VINA RESULT:      -5.8      3.137      4.538
REMARK  Name = ZINC95486295
REMARK  9 active torsions:
REMARK  status: ('A' for Active; 'I' for Inactive)
REMARK    1  A    between atoms: C1_1  and  O1_2
REMARK    2  A    between atoms: O1_2  and  C2_3
REMARK    3  A    between atoms: C5_6  and  O2_9
REMARK    4  A    between atoms: O2_9  and  C8_10
REMARK    5  A    between atoms: C9_11  and  O7_24
REMARK    6  A    between atoms: C14_18  and  O6_23
REMARK    7  A    between atoms: C16_20  and  O5_21
REMARK    8  A    between atoms: O5_21  and  C17_22
REMARK    9  A    between atoms: O7_24  and  C18_25
REMARK                            x       y       z     vdW  Elec       q    Type
REMARK                         _______ _______ _______ _____ _____    ______ ____
ROOT
ATOM      8  C   UNL     1      46.874  19.575  20.292  0.00  0.00    +0.220 A 
ATOM      9  C   UNL     1      45.923  18.604  20.236  0.00  0.00    -0.076 A 
ATOM     12  C   UNL     1      44.580  18.958  19.976  0.00  0.00    +0.442 A 
ATOM     13  C   UNL     1      44.281  20.387  19.777  0.00  0.00    -0.262 A 
ATOM     14  C   UNL     1      45.340  21.309  19.856  0.00  0.00    +0.216 A 
ATOM     15  C   UNL     1      45.081  22.659  19.673  0.00  0.00    -0.057 A 
ATOM     16  C   UNL     1      43.791  23.090  19.413  0.00  0.00    +0.219 A 
ATOM     19  C   UNL     1      42.742  22.180  19.336  0.00  0.00    -0.120 A 
ATOM     20  C   UNL     1      42.979  20.829  19.516  0.00  0.00    +0.240 A 
ATOM     23  O   UNL     1      43.700  18.113  19.919  0.00  0.00    -0.426 OA
ATOM     24  O   UNL     1      46.590  20.873  20.115  0.00  0.00    -0.230 OA
ENDROOT
BRANCH   9  10
ATOM     10  O   UNL     1      46.264  17.299  20.429  0.00  0.00    -0.285 OA
ATOM     11  C   UNL     1      46.495  16.508  19.261  0.00  0.00    +0.257 C 
ENDBRANCH   9  10
BRANCH  16  17
ATOM     17  O   UNL     1      43.546  24.413  19.235  0.00  0.00    -0.488 OA
ATOM     18  H   UNL     1      42.632  24.615  18.993  0.00  0.00    +0.405 HD
ENDBRANCH  16  17
BRANCH  20  21
ATOM     21  O   UNL     1      41.957  19.939  19.440  0.00  0.00    -0.277 OA
ATOM     22  C   UNL     1      41.064  20.070  18.331  0.00  0.00    +0.252 C 
ENDBRANCH  20  21
BRANCH   8   7
ATOM      7  O   UNL     1      48.153  19.217  20.542  0.00  0.00    -0.203 OA
BRANCH   7   6
ATOM      3  C   UNL     1      51.006  20.110  17.695  0.00  0.00    +0.143 A 
ATOM      4  C   UNL     1      50.701  21.033  18.686  0.00  0.00    -0.058 A 
ATOM      5  C   UNL     1      49.747  20.735  19.638  0.00  0.00    +0.062 A 
ATOM      6  C   UNL     1      49.092  19.511  19.604  0.00  0.00    +0.011 A 
ATOM     25  C   UNL     1      49.396  18.588  18.614  0.00  0.00    +0.076 A 
ATOM     26  C   UNL     1      50.347  18.889  17.659  0.00  0.00    +0.003 A 
BRANCH   3   2
ATOM      1  C   UNL     1      52.162  19.434  15.731  0.00  0.00    +0.246 C 
ATOM      2  O   UNL     1      51.946  20.404  16.757  0.00  0.00    -0.312 OA
ENDBRANCH   3   2
ENDBRANCH   7   6
ENDBRANCH   8   7
TORSDOF 6
ENDMDL
MODEL 4
REMARK VINA RESULT:      -5.7      3.131      7.073
REMARK  Name = ZINC95486295
REMARK  9 active torsions:
REMARK  status: ('A' for Active; 'I' for Inactive)
REMARK    1  A    between atoms: C1_1  and  O1_2
REMARK    2  A    between atoms: O1_2  and  C2_3
REMARK    3  A    between atoms: C5_6  and  O2_9
REMARK    4  A    between atoms: O2_9  and  C8_10
REMARK    5  A    between atoms: C9_11  and  O7_24
REMARK    6  A    between atoms: C14_18  and  O6_23
REMARK    7  A    between atoms: C16_20  and  O5_21
REMARK    8  A    between atoms: O5_21  and  C17_22
REMARK    9  A    between atoms: O7_24  and  C18_25
REMARK                            x       y       z     vdW  Elec       q    Type
REMARK                         _______ _______ _______ _____ _____    ______ ____
ROOT
ATOM      8  C   UNL     1      46.694  18.831  19.872  0.00  0.00    +0.220 A 
ATOM      9  C   UNL     1      46.815  17.790  19.006  0.00  0.00    -0.076 A 
ATOM     12  C   UNL     1      47.979  17.675  18.212  0.00  0.00    +0.442 A 
ATOM     13  C   UNL     1      49.014  18.710  18.373  0.00  0.00    -0.262 A 
ATOM     14  C   UNL     1      48.789  19.743  19.299  0.00  0.00    +0.216 A 
ATOM     15  C   UNL     1      49.751  20.729  19.466  0.00  0.00    -0.057 A 
ATOM     16  C   UNL     1      50.921  20.689  18.727  0.00  0.00    +0.219 A 
ATOM     19  C   UNL     1      51.146  19.668  17.809  0.00  0.00    -0.120 A 
ATOM     20  C   UNL     1      50.199  18.676  17.628  0.00  0.00    +0.240 A 
ATOM     23  O   UNL     1      48.121  16.754  17.422  0.00  0.00    -0.426 OA
ATOM     24  O   UNL     1      47.641  19.771  20.007  0.00  0.00    -0.230 OA
ENDROOT
BRANCH   9  10
ATOM     10  O   UNL     1      45.820  16.865  18.903  0.00  0.00    -0.285 OA
ATOM     11  C   UNL     1      45.895  15.731  19.769  0.00  0.00    +0.257 C 
ENDBRANCH   9  10
BRANCH  16  17
ATOM     17  O   UNL     1      51.858  21.657  18.897  0.00  0.00    -0.488 OA
ATOM     18  H   UNL     1      52.297  21.927  18.078  0.00  0.00    +0.405 HD
ENDBRANCH  16  17
BRANCH  20  21
ATOM     21  O   UNL     1      50.417  17.678  16.735  0.00  0.00    -0.277 OA
ATOM     22  C   UNL     1      51.553  16.841  16.961  0.00  0.00    +0.252 C 
ENDBRANCH  20  21
BRANCH   8   7
ATOM      7  O   UNL     1      45.574  18.924  20.623  0.00  0.00    -0.203 OA
BRANCH   7   6
ATOM      3  C   UNL     1      42.521  21.342  19.254  0.00  0.00    +0.143 A 
ATOM      4  C   UNL     1      43.714  21.906  19.684  0.00  0.00    -0.058 A 
ATOM      5  C   UNL     1      44.735  21.098  20.142  0.00  0.00    +0.062 A 
ATOM      6  C   UNL     1      44.568  19.721  20.172  0.00  0.00    +0.011 A 
ATOM     25  C   UNL     1      43.376  19.156  19.743  0.00  0.00    +0.076 A 
ATOM     26  C   UNL     1      42.353  19.965  19.290  0.00  0.00    +0.003 A 
BRANCH   3   2
ATOM      1  C   UNL     1      40.253  21.513  18.561  0.00  0.00    +0.246 C 
ATOM      2  O   UNL     1      41.515  22.138  18.804  0.00  0.00    -0.312 OA
ENDBRANCH   3   2
ENDBRANCH   7   6
ENDBRANCH   8   7
TORSDOF 6
ENDMDL
MODEL 5
REMARK VINA RESULT:      -5.4      1.753      2.496
REMARK  Name = ZINC95486295
REMARK  9 active torsions:
REMARK  status: ('A' for Active; 'I' for Inactive)
REMARK    1  A    between atoms: C1_1  and  O1_2
REMARK    2  A    between atoms: O1_2  and  C2_3
REMARK    3  A    between atoms: C5_6  and  O2_9
REMARK    4  A    between atoms: O2_9  and  C8_10
REMARK    5  A    between atoms: C9_11  and  O7_24
REMARK    6  A    between atoms: C14_18  and  O6_23
REMARK    7  A    between atoms: C16_20  and  O5_21
REMARK    8  A    between atoms: O5_21  and  C17_22
REMARK    9  A    between atoms: O7_24  and  C18_25
REMARK                            x       y       z     vdW  Elec       q    Type
REMARK                         _______ _______ _______ _____ _____    ______ ____
ROOT
ATOM      8  C   UNL     1      46.204  17.362  20.015  0.00  0.00    +0.220 A 
ATOM      9  C   UNL     1      47.035  18.392  19.702  0.00  0.00    -0.076 A 
ATOM     12  C   UNL     1      46.496  19.679  19.476  0.00  0.00    +0.442 A 
ATOM     13  C   UNL     1      45.036  19.833  19.595  0.00  0.00    -0.262 A 
ATOM     14  C   UNL     1      44.268  18.702  19.923  0.00  0.00    +0.216 A 
ATOM     15  C   UNL     1      42.891  18.824  20.040  0.00  0.00    -0.057 A 
ATOM     16  C   UNL     1      42.284  20.052  19.835  0.00  0.00    +0.219 A 
ATOM     19  C   UNL     1      43.041  21.172  19.508  0.00  0.00    -0.120 A 
ATOM     20  C   UNL     1      44.415  21.070  19.388  0.00  0.00    +0.240 A 
ATOM     23  O   UNL     1      47.212  20.626  19.193  0.00  0.00    -0.426 OA
ATOM     24  O   UNL     1      44.875  17.512  20.115  0.00  0.00    -0.230 OA
ENDROOT
BRANCH   9  10
ATOM     10  O   UNL     1      48.378  18.184  19.607  0.00  0.00    -0.285 OA
ATOM     11  C   UNL     1      48.916  18.000  18.296  0.00  0.00    +0.257 C 
ENDBRANCH   9  10
BRANCH  16  17
ATOM     17  O   UNL     1      40.935  20.163  19.950  0.00  0.00    -0.488 OA
ATOM     18  H   UNL     1      40.482  20.342  19.115  0.00  0.00    +0.405 HD
ENDBRANCH  16  17
BRANCH  20  21
ATOM     21  O   UNL     1      45.156  22.162  19.071  0.00  0.00    -0.277 OA
ATOM     22  C   UNL     1      44.726  23.416  19.606  0.00  0.00    +0.252 C 
ENDBRANCH  20  21
BRANCH   8   7
ATOM      7  O   UNL     1      46.737  16.139  20.227  0.00  0.00    -0.203 OA
BRANCH   7   6
ATOM      3  C   UNL     1      45.564  13.055  17.747  0.00  0.00    +0.143 A 
ATOM      4  C   UNL     1      45.054  13.142  19.034  0.00  0.00    -0.058 A 
ATOM      5  C   UNL     1      45.446  14.173  19.864  0.00  0.00    +0.062 A 
ATOM      6  C   UNL     1      46.351  15.123  19.410  0.00  0.00    +0.011 A 
ATOM     25  C   UNL     1      46.861  15.036  18.123  0.00  0.00    +0.076 A 
ATOM     26  C   UNL     1      46.472  14.002  17.295  0.00  0.00    +0.003 A 
BRANCH   3   2
ATOM      1  C   UNL     1      46.201  11.160  16.460  0.00  0.00    +0.246 C 
ATOM      2  O   UNL     1      45.177  12.039  16.929  0.00  0.00    -0.312 OA
ENDBRANCH   3   2
ENDBRANCH   7   6
ENDBRANCH   8   7
TORSDOF 6
ENDMDL
MODEL 6
REMARK VINA RESULT:      -5.3      5.282      7.989
REMARK  Name = ZINC95486295
REMARK  9 active torsions:
REMARK  status: ('A' for Active; 'I' for Inactive)
REMARK    1  A    between atoms: C1_1  and  O1_2
REMARK    2  A    between atoms: O1_2  and  C2_3
REMARK    3  A    between atoms: C5_6  and  O2_9
REMARK    4  A    between atoms: O2_9  and  C8_10
REMARK    5  A    between atoms: C9_11  and  O7_24
REMARK    6  A    between atoms: C14_18  and  O6_23
REMARK    7  A    between atoms: C16_20  and  O5_21
REMARK    8  A    between atoms: O5_21  and  C17_22
REMARK    9  A    between atoms: O7_24  and  C18_25
REMARK                            x       y       z     vdW  Elec       q    Type
REMARK                         _______ _______ _______ _____ _____    ______ ____
ROOT
ATOM      8  C   UNL     1      51.070  15.214  17.212  0.00  0.00    +0.220 A 
ATOM      9  C   UNL     1      50.335  15.439  18.334  0.00  0.00    -0.076 A 
ATOM     12  C   UNL     1      50.092  16.767  18.753  0.00  0.00    +0.442 A 
ATOM     13  C   UNL     1      50.660  17.852  17.934  0.00  0.00    -0.262 A 
ATOM     14  C   UNL     1      51.404  17.508  16.792  0.00  0.00    +0.216 A 
ATOM     15  C   UNL     1      51.949  18.514  16.007  0.00  0.00    -0.057 A 
ATOM     16  C   UNL     1      51.757  19.842  16.349  0.00  0.00    +0.219 A 
ATOM     19  C   UNL     1      51.021  20.184  17.478  0.00  0.00    -0.120 A 
ATOM     20  C   UNL     1      50.470  19.196  18.274  0.00  0.00    +0.240 A 
ATOM     23  O   UNL     1      49.437  17.007  19.756  0.00  0.00    -0.426 OA
ATOM     24  O   UNL     1      51.587  16.209  16.477  0.00  0.00    -0.230 OA
ENDROOT
BRANCH   9  10
ATOM     10  O   UNL     1      49.837  14.392  19.049  0.00  0.00    -0.285 OA
ATOM     11  C   UNL     1      48.520  13.948  18.718  0.00  0.00    +0.257 C 
ENDBRANCH   9  10
BRANCH  16  17
ATOM     17  O   UNL     1      52.293  20.820  15.574  0.00  0.00    -0.488 OA
ATOM     18  H   UNL     1      52.056  20.755  14.639  0.00  0.00    +0.405 HD
ENDBRANCH  16  17
BRANCH  20  21
ATOM     21  O   UNL     1      49.752  19.528  19.377  0.00  0.00    -0.277 OA
ATOM     22  C   UNL     1      48.897  20.670  19.275  0.00  0.00    +0.252 C 
ENDBRANCH  20  21
BRANCH   8   7
ATOM      7  O   UNL     1      51.292  13.938  16.826  0.00  0.00    -0.203 OA
BRANCH   7   6
ATOM      3  C   UNL     1      50.625  12.965  12.870  0.00  0.00    +0.143 A 
ATOM      4  C   UNL     1      49.606  12.821  13.802  0.00  0.00    -0.058 A 
ATOM      5  C   UNL     1      49.829  13.146  15.125  0.00  0.00    +0.062 A 
ATOM      6  C   UNL     1      51.072  13.618  15.523  0.00  0.00    +0.011 A 
ATOM     25  C   UNL     1      52.091  13.762  14.593  0.00  0.00    +0.076 A 
ATOM     26  C   UNL     1      51.869  13.432  13.270  0.00  0.00    +0.003 A 
BRANCH   3   2
ATOM      1  C   UNL     1      51.100  13.415  10.585  0.00  0.00    +0.246 C 
ATOM      2  O   UNL     1      50.406  12.645  11.567  0.00  0.00    -0.312 OA
ENDBRANCH   3   2
ENDBRANCH   7   6
ENDBRANCH   8   7
TORSDOF 6
ENDMDL
MODEL 7
REMARK VINA RESULT:      -5.3      6.213      9.331
REMARK  Name = ZINC95486295
REMARK  9 active torsions:
REMARK  status: ('A' for Active; 'I' for Inactive)
REMARK    1  A    between atoms: C1_1  and  O1_2
REMARK    2  A    between atoms: O1_2  and  C2_3
REMARK    3  A    between atoms: C5_6  and  O2_9
REMARK    4  A    between atoms: O2_9  and  C8_10
REMARK    5  A    between atoms: C9_11  and  O7_24
REMARK    6  A    between atoms: C14_18  and  O6_23
REMARK    7  A    between atoms: C16_20  and  O5_21
REMARK    8  A    between atoms: O5_21  and  C17_22
REMARK    9  A    between atoms: O7_24  and  C18_25
REMARK                            x       y       z     vdW  Elec       q    Type
REMARK                         _______ _______ _______ _____ _____    ______ ____
ROOT
ATOM      8  C   UNL     1      50.733  14.376  17.188  0.00  0.00    +0.220 A 
ATOM      9  C   UNL     1      50.646  13.447  16.200  0.00  0.00    -0.076 A 
ATOM     12  C   UNL     1      49.404  12.823  15.937  0.00  0.00    +0.442 A 
ATOM     13  C   UNL     1      48.254  13.225  16.764  0.00  0.00    -0.262 A 
ATOM     14  C   UNL     1      48.454  14.197  17.760  0.00  0.00    +0.216 A 
ATOM     15  C   UNL     1      47.385  14.590  18.552  0.00  0.00    -0.057 A 
ATOM     16  C   UNL     1      46.134  14.028  18.358  0.00  0.00    +0.219 A 
ATOM     19  C   UNL     1      45.934  13.066  17.374  0.00  0.00    -0.120 A 
ATOM     20  C   UNL     1      46.988  12.661  16.574  0.00  0.00    +0.240 A 
ATOM     23  O   UNL     1      49.290  11.984  15.057  0.00  0.00    -0.426 OA
ATOM     24  O   UNL     1      49.681  14.731  17.940  0.00  0.00    -0.230 OA
ENDROOT
BRANCH   9  10
ATOM     10  O   UNL     1      51.748  13.118  15.469  0.00  0.00    -0.285 OA
ATOM     11  C   UNL     1      51.897  13.752  14.198  0.00  0.00    +0.257 C 
ENDBRANCH   9  10
BRANCH  16  17
ATOM     17  O   UNL     1      45.093  14.419  19.137  0.00  0.00    -0.488 OA
ATOM     18  H   UNL     1      44.294  14.644  18.641  0.00  0.00    +0.405 HD
ENDBRANCH  16  17
BRANCH  20  21
ATOM     21  O   UNL     1      46.795  11.723  15.613  0.00  0.00    -0.277 OA
ATOM     22  C   UNL     1      45.824  10.708  15.881  0.00  0.00    +0.252 C 
ENDBRANCH  20  21
BRANCH   8   7
ATOM      7  O   UNL     1      51.927  14.961  17.426  0.00  0.00    -0.203 OA
BRANCH   7   6
ATOM      3  C   UNL     1      52.101  19.086  17.424  0.00  0.00    +0.143 A 
ATOM      4  C   UNL     1      52.455  18.377  18.563  0.00  0.00    -0.058 A 
ATOM      5  C   UNL     1      52.397  16.997  18.564  0.00  0.00    +0.062 A 
ATOM      6  C   UNL     1      51.984  16.320  17.425  0.00  0.00    +0.011 A 
ATOM     25  C   UNL     1      51.630  17.028  16.286  0.00  0.00    +0.076 A 
ATOM     26  C   UNL     1      51.684  18.408  16.287  0.00  0.00    +0.003 A 
BRANCH   3   2
ATOM      1  C   UNL     1      51.622  21.115  16.281  0.00  0.00    +0.246 C 
ATOM      2  O   UNL     1      52.159  20.444  17.423  0.00  0.00    -0.312 OA
ENDBRANCH   3   2
ENDBRANCH   7   6
ENDBRANCH   8   7
TORSDOF 6
ENDMDL
MODEL 8
REMARK VINA RESULT:      -5.2      3.648      5.834
REMARK  Name = ZINC95486295
REMARK  9 active torsions:
REMARK  status: ('A' for Active; 'I' for Inactive)
REMARK    1  A    between atoms: C1_1  and  O1_2
REMARK    2  A    between atoms: O1_2  and  C2_3
REMARK    3  A    between atoms: C5_6  and  O2_9
REMARK    4  A    between atoms: O2_9  and  C8_10
REMARK    5  A    between atoms: C9_11  and  O7_24
REMARK    6  A    between atoms: C14_18  and  O6_23
REMARK    7  A    between atoms: C16_20  and  O5_21
REMARK    8  A    between atoms: O5_21  and  C17_22
REMARK    9  A    between atoms: O7_24  and  C18_25
REMARK                            x       y       z     vdW  Elec       q    Type
REMARK                         _______ _______ _______ _____ _____    ______ ____
ROOT
ATOM      8  C   UNL     1      48.101  19.913  21.439  0.00  0.00    +0.220 A 
ATOM      9  C   UNL     1      47.075  20.650  21.943  0.00  0.00    -0.076 A 
ATOM     12  C   UNL     1      45.756  20.145  21.878  0.00  0.00    +0.442 A 
ATOM     13  C   UNL     1      45.566  18.823  21.256  0.00  0.00    -0.262 A 
ATOM     14  C   UNL     1      46.696  18.145  20.768  0.00  0.00    +0.216 A 
ATOM     15  C   UNL     1      46.540  16.899  20.178  0.00  0.00    -0.057 A 
ATOM     16  C   UNL     1      45.280  16.333  20.076  0.00  0.00    +0.219 A 
ATOM     19  C   UNL     1      44.160  17.003  20.558  0.00  0.00    -0.120 A 
ATOM     20  C   UNL     1      44.295  18.246  21.149  0.00  0.00    +0.240 A 
ATOM     23  O   UNL     1      44.811  20.780  22.319  0.00  0.00    -0.426 OA
ATOM     24  O   UNL     1      47.916  18.713  20.870  0.00  0.00    -0.230 OA
ENDROOT
BRANCH   9  10
ATOM     10  O   UNL     1      47.317  21.867  22.505  0.00  0.00    -0.285 OA
ATOM     11  C   UNL     1      47.023  23.019  21.713  0.00  0.00    +0.257 C 
ENDBRANCH   9  10
BRANCH  16  17
ATOM     17  O   UNL     1      45.135  15.113  19.497  0.00  0.00    -0.488 OA
ATOM     18  H   UNL     1      45.110  15.137  18.531  0.00  0.00    +0.405 HD
ENDBRANCH  16  17
BRANCH  20  21
ATOM     21  O   UNL     1      43.205  18.901  21.621  0.00  0.00    -0.277 OA
ATOM     22  C   UNL     1      42.107  19.067  20.720  0.00  0.00    +0.252 C 
ENDBRANCH  20  21
BRANCH   8   7
ATOM      7  O   UNL     1      49.355  20.411  21.510  0.00  0.00    -0.203 OA
BRANCH   7   6
ATOM      3  C   UNL     1      51.525  20.703  18.010  0.00  0.00    +0.143 A 
ATOM      4  C   UNL     1      50.170  20.999  18.013  0.00  0.00    -0.058 A 
ATOM      5  C   UNL     1      49.443  20.902  19.183  0.00  0.00    +0.062 A 
ATOM      6  C   UNL     1      50.070  20.507  20.357  0.00  0.00    +0.011 A 
ATOM     25  C   UNL     1      51.425  20.210  20.356  0.00  0.00    +0.076 A 
ATOM     26  C   UNL     1      52.150  20.303  19.184  0.00  0.00    +0.003 A 
BRANCH   3   2
ATOM      1  C   UNL     1      52.103  19.729  15.920  0.00  0.00    +0.246 C 
ATOM      2  O   UNL     1      52.241  20.798  16.858  0.00  0.00    -0.312 OA
ENDBRANCH   3   2
ENDBRANCH   7   6
ENDBRANCH   8   7
TORSDOF 6
ENDMDL
MODEL 9
REMARK VINA RESULT:      -5.1      2.243      7.064
REMARK  Name = ZINC95486295
REMARK  9 active torsions:
REMARK  status: ('A' for Active; 'I' for Inactive)
REMARK    1  A    between atoms: C1_1  and  O1_2
REMARK    2  A    between atoms: O1_2  and  C2_3
REMARK    3  A    between atoms: C5_6  and  O2_9
REMARK    4  A    between atoms: O2_9  and  C8_10
REMARK    5  A    between atoms: C9_11  and  O7_24
REMARK    6  A    between atoms: C14_18  and  O6_23
REMARK    7  A    between atoms: C16_20  and  O5_21
REMARK    8  A    between atoms: O5_21  and  C17_22
REMARK    9  A    between atoms: O7_24  and  C18_25
REMARK                            x       y       z     vdW  Elec       q    Type
REMARK                         _______ _______ _______ _____ _____    ______ ____
ROOT
ATOM      8  C   UNL     1      45.786  17.909  20.272  0.00  0.00    +0.220 A 
ATOM      9  C   UNL     1      47.005  18.340  19.853  0.00  0.00    -0.076 A 
ATOM     12  C   UNL     1      47.831  17.473  19.101  0.00  0.00    +0.442 A 
ATOM     13  C   UNL     1      47.311  16.126  18.808  0.00  0.00    -0.262 A 
ATOM     14  C   UNL     1      46.035  15.782  19.288  0.00  0.00    +0.216 A 
ATOM     15  C   UNL     1      45.526  14.519  19.025  0.00  0.00    -0.057 A 
ATOM     16  C   UNL     1      46.272  13.609  18.293  0.00  0.00    +0.219 A 
ATOM     19  C   UNL     1      47.535  13.947  17.818  0.00  0.00    -0.120 A 
ATOM     20  C   UNL     1      48.059  15.202  18.070  0.00  0.00    +0.240 A 
ATOM     23  O   UNL     1      48.932  17.826  18.709  0.00  0.00    -0.426 OA
ATOM     24  O   UNL     1      45.324  16.678  20.004  0.00  0.00    -0.230 OA
ENDROOT
BRANCH   9  10
ATOM     10  O   UNL     1      47.429  19.598  20.157  0.00  0.00    -0.285 OA
ATOM     11  C   UNL     1      47.298  20.592  19.139  0.00  0.00    +0.257 C 
ENDBRANCH   9  10
BRANCH  16  17
ATOM     17  O   UNL     1      45.767  12.375  18.039  0.00  0.00    -0.488 OA
ATOM     18  H   UNL     1      46.425  11.736  17.733  0.00  0.00    +0.405 HD
ENDBRANCH  16  17
BRANCH  20  21
ATOM     21  O   UNL     1      49.291  15.533  17.606  0.00  0.00    -0.277 OA
ATOM     22  C   UNL     1      50.003  14.530  16.879  0.00  0.00    +0.252 C 
ENDBRANCH  20  21
BRANCH   8   7
ATOM      7  O   UNL     1      45.011  18.751  20.989  0.00  0.00    -0.203 OA
BRANCH   7   6
ATOM      3  C   UNL     1      41.391  19.907  19.376  0.00  0.00    +0.143 A 
ATOM      4  C   UNL     1      41.422  19.136  20.529  0.00  0.00    -0.058 A 
ATOM      5  C   UNL     1      42.632  18.749  21.069  0.00  0.00    +0.062 A 
ATOM      6  C   UNL     1      43.819  19.132  20.458  0.00  0.00    +0.011 A 
ATOM     25  C   UNL     1      43.788  19.902  19.304  0.00  0.00    +0.076 A 
ATOM     26  C   UNL     1      42.577  20.285  18.762  0.00  0.00    +0.003 A 
BRANCH   3   2
ATOM      1  C   UNL     1      40.068  21.658  18.462  0.00  0.00    +0.246 C 
ATOM      2  O   UNL     1      40.199  20.288  18.844  0.00  0.00    -0.312 OA
ENDBRANCH   3   2
ENDBRANCH   7   6
ENDBRANCH   8   7
TORSDOF 6
ENDMDL
