MODEL 1
REMARK VINA RESULT:      -6.9      0.000      0.000
REMARK  Name = ZINC05452752
REMARK  12 active torsions:
REMARK  status: ('A' for Active; 'I' for Inactive)
REMARK    1  A    between atoms: C1_1  and  C2_2
REMARK    2  A    between atoms: C2_2  and  C3_3
REMARK    3  A    between atoms: C2_2  and  C4_4
REMARK    4  A    between atoms: C4_4  and  C5_5
REMARK    5  A    between atoms: C5_5  and  C6_7
REMARK    6  A    between atoms: C7_8  and  O5_30
REMARK    7  A    between atoms: C8_9  and  C21_25
REMARK    8  A    between atoms: C11_12  and  O2_13
REMARK    9  A    between atoms: C12_14  and  C15_19
REMARK   10  A    between atoms: C21_25  and  C22_26
REMARK   11  A    between atoms: C23_27  and  C24_28
REMARK   12  A    between atoms: C23_27  and  C25_29
REMARK                            x       y       z     vdW  Elec       q    Type
REMARK                         _______ _______ _______ _____ _____    ______ ____
ROOT
ATOM      5  C   UNL     1      46.976  17.928  18.718  0.00  0.00    -0.286 A 
ATOM      6  C   UNL     1      48.284  18.453  18.785  0.00  0.00    +0.315 A 
ATOM      9  C   UNL     1      48.524  19.651  19.428  0.00  0.00    -0.256 A 
ATOM     15  C   UNL     1      47.479  20.360  20.008  0.00  0.00    +0.264 A 
ATOM     16  C   UNL     1      46.168  19.851  19.944  0.00  0.00    -0.298 A 
ATOM     17  C   UNL     1      45.077  20.618  20.565  0.00  0.00    +0.083 A 
ATOM     24  C   UNL     1      45.397  21.812  21.187  0.00  0.00    -0.085 A 
ATOM     25  C   UNL     1      46.732  22.245  21.204  0.00  0.00    +0.515 A 
ATOM     26  O   UNL     1      47.005  23.298  21.753  0.00  0.00    -0.456 OA
ATOM     27  O   UNL     1      47.715  21.533  20.632  0.00  0.00    -0.265 OA
ATOM     28  C   UNL     1      45.913  18.636  19.300  0.00  0.00    +0.325 A 
ENDROOT
BRANCH  17  18
ATOM     18  C   UNL     1      43.681  20.128  20.526  0.00  0.00    -0.090 A 
ATOM     19  C   UNL     1      42.832  20.514  19.489  0.00  0.00    +0.056 A 
ATOM     20  C   UNL     1      41.533  20.049  19.456  0.00  0.00    +0.040 A 
ATOM     21  C   UNL     1      41.069  19.211  20.454  0.00  0.00    +0.044 A 
ATOM     22  C   UNL     1      41.906  18.828  21.488  0.00  0.00    +0.043 A 
ATOM     23  C   UNL     1      43.208  19.281  21.529  0.00  0.00    +0.028 A 
ENDBRANCH  17  18
BRANCH   5   4
ATOM      4  C   UNL     1      46.729  16.655  18.041  0.00  0.00    +0.406 C 
ATOM     31  O   UNL     1      46.361  16.645  16.884  0.00  0.00    -0.442 OA
BRANCH   4   3
ATOM      3  C   UNL     1      46.929  15.357  18.780  0.00  0.00    +0.054 C 
BRANCH   3   2
ATOM      1  C   UNL     1      45.535  13.290  18.938  0.00  0.00    +0.016 C 
ATOM      2  C   UNL     1      45.570  14.797  19.203  0.00  0.00    -0.017 C 
ATOM     32  C   UNL     1      45.353  15.058  20.694  0.00  0.00    +0.015 C 
ENDBRANCH   3   2
ENDBRANCH   4   3
ENDBRANCH   5   4
BRANCH   6   7
ATOM      7  O   UNL     1      49.311  17.775  18.218  0.00  0.00    -0.459 OA
ATOM      8  H   UNL     1      49.665  16.836  18.667  0.00  0.00    +0.425 HD
ENDBRANCH   6   7
BRANCH  28  29
ATOM     29  O   UNL     1      44.653  18.145  19.239  0.00  0.00    -0.512 OA
ATOM     30  H   UNL     1      43.941  18.357  20.051  0.00  0.00    +0.420 HD
ENDBRANCH  28  29
BRANCH   9  10
ATOM     10  C   UNL     1      49.927  20.196  19.496  0.00  0.00    +0.134 C 
BRANCH  10  11
ATOM     11  C   UNL     1      50.233  20.956  18.230  0.00  0.00    -0.047 C 
ATOM     12  C   UNL     1      51.307  20.668  17.537  0.00  0.00    -0.132 C 
ATOM     13  C   UNL     1      52.291  19.652  18.059  0.00  0.00    +0.085 C 
ATOM     14  C   UNL     1      51.559  21.352  16.219  0.00  0.00    +0.079 C 
ENDBRANCH  10  11
ENDBRANCH   9  10
TORSDOF 8
ENDMDL
MODEL 2
REMARK VINA RESULT:      -6.0      1.418      5.002
REMARK  Name = ZINC05452752
REMARK  12 active torsions:
REMARK  status: ('A' for Active; 'I' for Inactive)
REMARK    1  A    between atoms: C1_1  and  C2_2
REMARK    2  A    between atoms: C2_2  and  C3_3
REMARK    3  A    between atoms: C2_2  and  C4_4
REMARK    4  A    between atoms: C4_4  and  C5_5
REMARK    5  A    between atoms: C5_5  and  C6_7
REMARK    6  A    between atoms: C7_8  and  O5_30
REMARK    7  A    between atoms: C8_9  and  C21_25
REMARK    8  A    between atoms: C11_12  and  O2_13
REMARK    9  A    between atoms: C12_14  and  C15_19
REMARK   10  A    between atoms: C21_25  and  C22_26
REMARK   11  A    between atoms: C23_27  and  C24_28
REMARK   12  A    between atoms: C23_27  and  C25_29
REMARK                            x       y       z     vdW  Elec       q    Type
REMARK                         _______ _______ _______ _____ _____    ______ ____
ROOT
ATOM      5  C   UNL     1      45.928  19.120  19.348  0.00  0.00    -0.286 A 
ATOM      6  C   UNL     1      46.959  20.079  19.434  0.00  0.00    +0.315 A 
ATOM      9  C   UNL     1      48.282  19.688  19.410  0.00  0.00    -0.256 A 
ATOM     15  C   UNL     1      48.616  18.343  19.311  0.00  0.00    +0.264 A 
ATOM     16  C   UNL     1      47.599  17.373  19.230  0.00  0.00    -0.298 A 
ATOM     17  C   UNL     1      47.974  15.955  19.126  0.00  0.00    +0.083 A 
ATOM     24  C   UNL     1      49.322  15.641  19.112  0.00  0.00    -0.085 A 
ATOM     25  C   UNL     1      50.271  16.672  19.197  0.00  0.00    +0.515 A 
ATOM     26  O   UNL     1      51.456  16.387  19.185  0.00  0.00    -0.456 OA
ATOM     27  O   UNL     1      49.911  17.961  19.292  0.00  0.00    -0.265 OA
ATOM     28  C   UNL     1      46.254  17.759  19.248  0.00  0.00    +0.325 A 
ENDROOT
BRANCH  17  18
ATOM     18  C   UNL     1      46.944  14.897  19.038  0.00  0.00    -0.090 A 
ATOM     19  C   UNL     1      46.315  14.433  20.195  0.00  0.00    +0.056 A 
ATOM     20  C   UNL     1      45.352  13.450  20.104  0.00  0.00    +0.040 A 
ATOM     21  C   UNL     1      45.016  12.915  18.874  0.00  0.00    +0.044 A 
ATOM     22  C   UNL     1      45.639  13.368  17.724  0.00  0.00    +0.043 A 
ATOM     23  C   UNL     1      46.600  14.355  17.799  0.00  0.00    +0.028 A 
ENDBRANCH  17  18
BRANCH   5   4
ATOM      4  C   UNL     1      44.528  19.542  19.369  0.00  0.00    +0.406 C 
ATOM     31  O   UNL     1      43.958  19.804  18.329  0.00  0.00    -0.442 OA
BRANCH   4   3
ATOM      3  C   UNL     1      43.793  19.652  20.680  0.00  0.00    +0.054 C 
BRANCH   3   2
ATOM      1  C   UNL     1      43.095  17.684  22.053  0.00  0.00    +0.016 C 
ATOM      2  C   UNL     1      42.788  18.504  20.798  0.00  0.00    -0.017 C 
ATOM     32  C   UNL     1      41.372  19.075  20.897  0.00  0.00    +0.015 C 
ENDBRANCH   3   2
ENDBRANCH   4   3
ENDBRANCH   5   4
BRANCH   6   7
ATOM      7  O   UNL     1      46.648  21.394  19.538  0.00  0.00    -0.459 OA
ATOM      8  H   UNL     1      46.060  21.755  20.395  0.00  0.00    +0.425 HD
ENDBRANCH   6   7
BRANCH  28  29
ATOM     29  O   UNL     1      45.275  16.827  19.170  0.00  0.00    -0.512 OA
ATOM     30  H   UNL     1      44.605  16.660  20.027  0.00  0.00    +0.420 HD
ENDBRANCH  28  29
BRANCH   9  10
ATOM     10  C   UNL     1      49.372  20.724  19.497  0.00  0.00    +0.134 C 
BRANCH  10  11
ATOM     11  C   UNL     1      49.874  21.043  18.112  0.00  0.00    -0.047 C 
ATOM     12  C   UNL     1      51.156  20.969  17.846  0.00  0.00    -0.132 C 
ATOM     13  C   UNL     1      52.138  20.668  18.949  0.00  0.00    +0.085 C 
ATOM     14  C   UNL     1      51.647  21.184  16.438  0.00  0.00    +0.079 C 
ENDBRANCH  10  11
ENDBRANCH   9  10
TORSDOF 8
ENDMDL
MODEL 3
REMARK VINA RESULT:      -5.9      1.507      6.086
REMARK  Name = ZINC05452752
REMARK  12 active torsions:
REMARK  status: ('A' for Active; 'I' for Inactive)
REMARK    1  A    between atoms: C1_1  and  C2_2
REMARK    2  A    between atoms: C2_2  and  C3_3
REMARK    3  A    between atoms: C2_2  and  C4_4
REMARK    4  A    between atoms: C4_4  and  C5_5
REMARK    5  A    between atoms: C5_5  and  C6_7
REMARK    6  A    between atoms: C7_8  and  O5_30
REMARK    7  A    between atoms: C8_9  and  C21_25
REMARK    8  A    between atoms: C11_12  and  O2_13
REMARK    9  A    between atoms: C12_14  and  C15_19
REMARK   10  A    between atoms: C21_25  and  C22_26
REMARK   11  A    between atoms: C23_27  and  C24_28
REMARK   12  A    between atoms: C23_27  and  C25_29
REMARK                            x       y       z     vdW  Elec       q    Type
REMARK                         _______ _______ _______ _____ _____    ______ ____
ROOT
ATOM      5  C   UNL     1      46.990  17.134  19.354  0.00  0.00    -0.286 A 
ATOM      6  C   UNL     1      45.644  17.170  19.773  0.00  0.00    +0.315 A 
ATOM      9  C   UNL     1      45.116  18.319  20.329  0.00  0.00    -0.256 A 
ATOM     15  C   UNL     1      45.907  19.449  20.492  0.00  0.00    +0.264 A 
ATOM     16  C   UNL     1      47.254  19.426  20.083  0.00  0.00    -0.298 A 
ATOM     17  C   UNL     1      48.074  20.634  20.264  0.00  0.00    +0.083 A 
ATOM     24  C   UNL     1      47.474  21.744  20.832  0.00  0.00    -0.085 A 
ATOM     25  C   UNL     1      46.125  21.681  21.212  0.00  0.00    +0.515 A 
ATOM     26  O   UNL     1      45.604  22.663  21.713  0.00  0.00    -0.456 OA
ATOM     27  O   UNL     1      45.391  20.570  21.040  0.00  0.00    -0.265 OA
ATOM     28  C   UNL     1      47.798  18.270  19.513  0.00  0.00    +0.325 A 
ENDROOT
BRANCH  17  18
ATOM     18  C   UNL     1      49.494  20.661  19.851  0.00  0.00    -0.090 A 
ATOM     19  C   UNL     1      50.499  20.373  20.776  0.00  0.00    +0.056 A 
ATOM     20  C   UNL     1      51.821  20.395  20.382  0.00  0.00    +0.040 A 
ATOM     21  C   UNL     1      52.153  20.714  19.079  0.00  0.00    +0.044 A 
ATOM     22  C   UNL     1      51.162  21.005  18.158  0.00  0.00    +0.043 A 
ATOM     23  C   UNL     1      49.836  20.981  18.536  0.00  0.00    +0.028 A 
ENDBRANCH  17  18
BRANCH   5   4
ATOM      4  C   UNL     1      47.542  15.916  18.760  0.00  0.00    +0.406 C 
ATOM     31  O   UNL     1      48.406  15.294  19.343  0.00  0.00    -0.442 OA
BRANCH   4   3
ATOM      3  C   UNL     1      47.038  15.435  17.424  0.00  0.00    +0.054 C 
BRANCH   3   2
ATOM      1  C   UNL     1      45.921  13.224  17.753  0.00  0.00    +0.016 C 
ATOM      2  C   UNL     1      47.216  13.918  17.328  0.00  0.00    -0.017 C 
ATOM     32  C   UNL     1      47.551  13.534  15.886  0.00  0.00    +0.015 C 
ENDBRANCH   3   2
ENDBRANCH   4   3
ENDBRANCH   5   4
BRANCH   6   7
ATOM      7  O   UNL     1      44.863  16.074  19.627  0.00  0.00    -0.459 OA
ATOM      8  H   UNL     1      44.834  15.543  18.664  0.00  0.00    +0.425 HD
ENDBRANCH   6   7
BRANCH  28  29
ATOM     29  O   UNL     1      49.093  18.246  19.119  0.00  0.00    -0.512 OA
ATOM     30  H   UNL     1      49.346  18.366  18.055  0.00  0.00    +0.420 HD
ENDBRANCH  28  29
BRANCH   9  10
ATOM     10  C   UNL     1      43.675  18.345  20.768  0.00  0.00    +0.134 C 
BRANCH  10  11
ATOM     11  C   UNL     1      42.866  19.156  19.787  0.00  0.00    -0.047 C 
ATOM     12  C   UNL     1      41.616  19.446  20.050  0.00  0.00    -0.132 C 
ATOM     13  C   UNL     1      40.955  18.882  21.282  0.00  0.00    +0.085 C 
ATOM     14  C   UNL     1      40.838  20.343  19.122  0.00  0.00    +0.079 C 
ENDBRANCH  10  11
ENDBRANCH   9  10
TORSDOF 8
ENDMDL
MODEL 4
REMARK VINA RESULT:      -5.7      2.049      7.308
REMARK  Name = ZINC05452752
REMARK  12 active torsions:
REMARK  status: ('A' for Active; 'I' for Inactive)
REMARK    1  A    between atoms: C1_1  and  C2_2
REMARK    2  A    between atoms: C2_2  and  C3_3
REMARK    3  A    between atoms: C2_2  and  C4_4
REMARK    4  A    between atoms: C4_4  and  C5_5
REMARK    5  A    between atoms: C5_5  and  C6_7
REMARK    6  A    between atoms: C7_8  and  O5_30
REMARK    7  A    between atoms: C8_9  and  C21_25
REMARK    8  A    between atoms: C11_12  and  O2_13
REMARK    9  A    between atoms: C12_14  and  C15_19
REMARK   10  A    between atoms: C21_25  and  C22_26
REMARK   11  A    between atoms: C23_27  and  C24_28
REMARK   12  A    between atoms: C23_27  and  C25_29
REMARK                            x       y       z     vdW  Elec       q    Type
REMARK                         _______ _______ _______ _____ _____    ______ ____
ROOT
ATOM      5  C   UNL     1      47.154  19.501  19.024  0.00  0.00    -0.286 A 
ATOM      6  C   UNL     1      46.587  18.489  18.222  0.00  0.00    +0.315 A 
ATOM      9  C   UNL     1      47.392  17.550  17.608  0.00  0.00    -0.256 A 
ATOM     15  C   UNL     1      48.772  17.597  17.764  0.00  0.00    +0.264 A 
ATOM     16  C   UNL     1      49.353  18.604  18.558  0.00  0.00    -0.298 A 
ATOM     17  C   UNL     1      50.815  18.635  18.710  0.00  0.00    +0.083 A 
ATOM     24  C   UNL     1      51.555  17.662  18.060  0.00  0.00    -0.085 A 
ATOM     25  C   UNL     1      50.894  16.694  17.288  0.00  0.00    +0.515 A 
ATOM     26  O   UNL     1      51.552  15.841  16.719  0.00  0.00    -0.456 OA
ATOM     27  O   UNL     1      49.558  16.681  17.160  0.00  0.00    -0.265 OA
ATOM     28  C   UNL     1      48.547  19.557  19.189  0.00  0.00    +0.325 A 
ENDROOT
BRANCH  17  18
ATOM     18  C   UNL     1      51.476  19.672  19.532  0.00  0.00    -0.090 A 
ATOM     19  C   UNL     1      51.864  20.882  18.955  0.00  0.00    +0.056 A 
ATOM     20  C   UNL     1      52.474  21.847  19.730  0.00  0.00    +0.040 A 
ATOM     21  C   UNL     1      52.712  21.614  21.072  0.00  0.00    +0.044 A 
ATOM     22  C   UNL     1      52.334  20.414  21.649  0.00  0.00    +0.043 A 
ATOM     23  C   UNL     1      51.717  19.443  20.888  0.00  0.00    +0.028 A 
ENDBRANCH  17  18
BRANCH   5   4
ATOM      4  C   UNL     1      46.296  20.489  19.677  0.00  0.00    +0.406 C 
ATOM     31  O   UNL     1      46.107  20.432  20.874  0.00  0.00    -0.442 OA
BRANCH   4   3
ATOM      3  C   UNL     1      45.645  21.577  18.862  0.00  0.00    +0.054 C 
BRANCH   3   2
ATOM      1  C   UNL     1      44.465  23.734  19.305  0.00  0.00    +0.016 C 
ATOM      2  C   UNL     1      44.559  22.258  19.696  0.00  0.00    -0.017 C 
ATOM     32  C   UNL     1      43.214  21.576  19.438  0.00  0.00    +0.015 C 
ENDBRANCH   3   2
ENDBRANCH   4   3
ENDBRANCH   5   4
BRANCH   6   7
ATOM      7  O   UNL     1      45.244  18.436  18.055  0.00  0.00    -0.459 OA
ATOM      8  H   UNL     1      44.662  17.629  18.525  0.00  0.00    +0.425 HD
ENDBRANCH   6   7
BRANCH  28  29
ATOM     29  O   UNL     1      49.104  20.527  19.953  0.00  0.00    -0.512 OA
ATOM     30  H   UNL     1      48.466  21.288  20.426  0.00  0.00    +0.420 HD
ENDBRANCH  28  29
BRANCH   9  10
ATOM     10  C   UNL     1      46.772  16.472  16.758  0.00  0.00    +0.134 C 
BRANCH  10  11
ATOM     11  C   UNL     1      46.387  15.304  17.631  0.00  0.00    -0.047 C 
ATOM     12  C   UNL     1      46.795  14.096  17.327  0.00  0.00    -0.132 C 
ATOM     13  C   UNL     1      47.559  13.858  16.050  0.00  0.00    +0.085 C 
ATOM     14  C   UNL     1      46.499  12.946  18.254  0.00  0.00    +0.079 C 
ENDBRANCH  10  11
ENDBRANCH   9  10
TORSDOF 8
ENDMDL
MODEL 5
REMARK VINA RESULT:      -5.5      2.701      8.048
REMARK  Name = ZINC05452752
REMARK  12 active torsions:
REMARK  status: ('A' for Active; 'I' for Inactive)
REMARK    1  A    between atoms: C1_1  and  C2_2
REMARK    2  A    between atoms: C2_2  and  C3_3
REMARK    3  A    between atoms: C2_2  and  C4_4
REMARK    4  A    between atoms: C4_4  and  C5_5
REMARK    5  A    between atoms: C5_5  and  C6_7
REMARK    6  A    between atoms: C7_8  and  O5_30
REMARK    7  A    between atoms: C8_9  and  C21_25
REMARK    8  A    between atoms: C11_12  and  O2_13
REMARK    9  A    between atoms: C12_14  and  C15_19
REMARK   10  A    between atoms: C21_25  and  C22_26
REMARK   11  A    between atoms: C23_27  and  C24_28
REMARK   12  A    between atoms: C23_27  and  C25_29
REMARK                            x       y       z     vdW  Elec       q    Type
REMARK                         _______ _______ _______ _____ _____    ______ ____
ROOT
ATOM      5  C   UNL     1      47.196  16.775  18.720  0.00  0.00    -0.286 A 
ATOM      6  C   UNL     1      46.688  15.460  18.700  0.00  0.00    +0.315 A 
ATOM      9  C   UNL     1      47.462  14.420  18.225  0.00  0.00    -0.256 A 
ATOM     15  C   UNL     1      48.747  14.658  17.751  0.00  0.00    +0.264 A 
ATOM     16  C   UNL     1      49.264  15.967  17.760  0.00  0.00    -0.298 A 
ATOM     17  C   UNL     1      50.626  16.197  17.255  0.00  0.00    +0.083 A 
ATOM     24  C   UNL     1      51.338  15.104  16.791  0.00  0.00    -0.085 A 
ATOM     25  C   UNL     1      50.745  13.832  16.818  0.00  0.00    +0.515 A 
ATOM     26  O   UNL     1      51.378  12.875  16.407  0.00  0.00    -0.456 OA
ATOM     27  O   UNL     1      49.500  13.641  17.283  0.00  0.00    -0.265 OA
ATOM     28  C   UNL     1      48.492  17.028  18.245  0.00  0.00    +0.325 A 
ENDROOT
BRANCH  17  18
ATOM     18  C   UNL     1      51.217  17.553  17.242  0.00  0.00    -0.090 A 
ATOM     19  C   UNL     1      51.051  18.379  16.130  0.00  0.00    +0.056 A 
ATOM     20  C   UNL     1      51.601  19.645  16.128  0.00  0.00    +0.040 A 
ATOM     21  C   UNL     1      52.324  20.091  17.219  0.00  0.00    +0.044 A 
ATOM     22  C   UNL     1      52.496  19.274  18.323  0.00  0.00    +0.043 A 
ATOM     23  C   UNL     1      51.947  18.009  18.341  0.00  0.00    +0.028 A 
ENDBRANCH  17  18
BRANCH   5   4
ATOM      4  C   UNL     1      46.373  17.872  19.231  0.00  0.00    +0.406 C 
ATOM     31  O   UNL     1      46.232  18.019  20.427  0.00  0.00    -0.442 OA
BRANCH   4   3
ATOM      3  C   UNL     1      45.700  18.819  18.270  0.00  0.00    +0.054 C 
BRANCH   3   2
ATOM      1  C   UNL     1      45.790  21.278  18.701  0.00  0.00    +0.016 C 
ATOM      2  C   UNL     1      45.071  19.974  19.051  0.00  0.00    -0.017 C 
ATOM     32  C   UNL     1      43.591  20.093  18.681  0.00  0.00    +0.015 C 
ENDBRANCH   3   2
ENDBRANCH   4   3
ENDBRANCH   5   4
BRANCH   6   7
ATOM      7  O   UNL     1      45.436  15.214  19.153  0.00  0.00    -0.459 OA
ATOM      8  H   UNL     1      44.622  15.921  18.933  0.00  0.00    +0.425 HD
ENDBRANCH   6   7
BRANCH  28  29
ATOM     29  O   UNL     1      48.988  18.287  18.254  0.00  0.00    -0.512 OA
ATOM     30  H   UNL     1      49.359  18.724  19.194  0.00  0.00    +0.420 HD
ENDBRANCH  28  29
BRANCH   9  10
ATOM     10  C   UNL     1      46.909  13.018  18.214  0.00  0.00    +0.134 C 
BRANCH  10  11
ATOM     11  C   UNL     1      46.524  12.641  16.806  0.00  0.00    -0.047 C 
ATOM     12  C   UNL     1      46.652  11.401  16.402  0.00  0.00    -0.132 C 
ATOM     13  C   UNL     1      47.280  10.374  17.309  0.00  0.00    +0.085 C 
ATOM     14  C   UNL     1      46.170  11.001  15.032  0.00  0.00    +0.079 C 
ENDBRANCH  10  11
ENDBRANCH   9  10
TORSDOF 8
ENDMDL
MODEL 6
REMARK VINA RESULT:      -5.5      2.990      6.251
REMARK  Name = ZINC05452752
REMARK  12 active torsions:
REMARK  status: ('A' for Active; 'I' for Inactive)
REMARK    1  A    between atoms: C1_1  and  C2_2
REMARK    2  A    between atoms: C2_2  and  C3_3
REMARK    3  A    between atoms: C2_2  and  C4_4
REMARK    4  A    between atoms: C4_4  and  C5_5
REMARK    5  A    between atoms: C5_5  and  C6_7
REMARK    6  A    between atoms: C7_8  and  O5_30
REMARK    7  A    between atoms: C8_9  and  C21_25
REMARK    8  A    between atoms: C11_12  and  O2_13
REMARK    9  A    between atoms: C12_14  and  C15_19
REMARK   10  A    between atoms: C21_25  and  C22_26
REMARK   11  A    between atoms: C23_27  and  C24_28
REMARK   12  A    between atoms: C23_27  and  C25_29
REMARK                            x       y       z     vdW  Elec       q    Type
REMARK                         _______ _______ _______ _____ _____    ______ ____
ROOT
ATOM      5  C   UNL     1      50.896  18.044  18.773  0.00  0.00    -0.286 A 
ATOM      6  C   UNL     1      51.349  16.775  18.358  0.00  0.00    +0.315 A 
ATOM      9  C   UNL     1      50.449  15.754  18.125  0.00  0.00    -0.256 A 
ATOM     15  C   UNL     1      49.087  15.961  18.306  0.00  0.00    +0.264 A 
ATOM     16  C   UNL     1      48.621  17.222  18.725  0.00  0.00    -0.298 A 
ATOM     17  C   UNL     1      47.175  17.420  18.910  0.00  0.00    +0.083 A 
ATOM     24  C   UNL     1      46.337  16.347  18.661  0.00  0.00    -0.085 A 
ATOM     25  C   UNL     1      46.887  15.124  18.246  0.00  0.00    +0.515 A 
ATOM     26  O   UNL     1      46.143  14.184  18.029  0.00  0.00    -0.456 OA
ATOM     27  O   UNL     1      48.210  14.960  18.083  0.00  0.00    -0.265 OA
ATOM     28  C   UNL     1      49.523  18.265  18.959  0.00  0.00    +0.325 A 
ENDROOT
BRANCH  17  18
ATOM     18  C   UNL     1      46.634  18.725  19.349  0.00  0.00    -0.090 A 
ATOM     19  C   UNL     1      46.256  19.680  18.405  0.00  0.00    +0.056 A 
ATOM     20  C   UNL     1      45.746  20.893  18.822  0.00  0.00    +0.040 A 
ATOM     21  C   UNL     1      45.620  21.167  20.172  0.00  0.00    +0.044 A 
ATOM     22  C   UNL     1      45.998  20.225  21.113  0.00  0.00    +0.043 A 
ATOM     23  C   UNL     1      46.503  19.007  20.710  0.00  0.00    +0.028 A 
ENDBRANCH  17  18
BRANCH   5   4
ATOM      4  C   UNL     1      51.854  19.124  19.012  0.00  0.00    +0.406 C 
ATOM     31  O   UNL     1      52.086  19.488  20.147  0.00  0.00    -0.442 OA
BRANCH   4   3
ATOM      3  C   UNL     1      52.550  19.785  17.851  0.00  0.00    +0.054 C 
BRANCH   3   2
ATOM      1  C   UNL     1      51.495  21.397  16.259  0.00  0.00    +0.016 C 
ATOM      2  C   UNL     1      51.570  19.929  16.685  0.00  0.00    -0.017 C 
ATOM     32  C   UNL     1      52.051  19.081  15.506  0.00  0.00    +0.015 C 
ENDBRANCH   3   2
ENDBRANCH   4   3
ENDBRANCH   5   4
BRANCH   6   7
ATOM      7  O   UNL     1      52.674  16.556  18.184  0.00  0.00    -0.459 OA
ATOM      8  H   UNL     1      53.017  15.716  17.563  0.00  0.00    +0.425 HD
ENDBRANCH   6   7
BRANCH  28  29
ATOM     29  O   UNL     1      49.076  19.478  19.361  0.00  0.00    -0.512 OA
ATOM     30  H   UNL     1      47.996  19.651  19.492  0.00  0.00    +0.420 HD
ENDBRANCH  28  29
BRANCH   9  10
ATOM     10  C   UNL     1      50.947  14.404  17.677  0.00  0.00    +0.134 C 
BRANCH  10  11
ATOM     11  C   UNL     1      51.111  14.401  16.179  0.00  0.00    -0.047 C 
ATOM     12  C   UNL     1      51.496  13.310  15.564  0.00  0.00    -0.132 C 
ATOM     13  C   UNL     1      51.876  12.089  16.362  0.00  0.00    +0.085 C 
ATOM     14  C   UNL     1      51.559  13.275  14.059  0.00  0.00    +0.079 C 
ENDBRANCH  10  11
ENDBRANCH   9  10
TORSDOF 8
ENDMDL
MODEL 7
REMARK VINA RESULT:      -5.3      2.565      6.107
REMARK  Name = ZINC05452752
REMARK  12 active torsions:
REMARK  status: ('A' for Active; 'I' for Inactive)
REMARK    1  A    between atoms: C1_1  and  C2_2
REMARK    2  A    between atoms: C2_2  and  C3_3
REMARK    3  A    between atoms: C2_2  and  C4_4
REMARK    4  A    between atoms: C4_4  and  C5_5
REMARK    5  A    between atoms: C5_5  and  C6_7
REMARK    6  A    between atoms: C7_8  and  O5_30
REMARK    7  A    between atoms: C8_9  and  C21_25
REMARK    8  A    between atoms: C11_12  and  O2_13
REMARK    9  A    between atoms: C12_14  and  C15_19
REMARK   10  A    between atoms: C21_25  and  C22_26
REMARK   11  A    between atoms: C23_27  and  C24_28
REMARK   12  A    between atoms: C23_27  and  C25_29
REMARK                            x       y       z     vdW  Elec       q    Type
REMARK                         _______ _______ _______ _____ _____    ______ ____
ROOT
ATOM      5  C   UNL     1      50.536  19.187  17.808  0.00  0.00    -0.286 A 
ATOM      6  C   UNL     1      50.927  17.909  17.358  0.00  0.00    +0.315 A 
ATOM      9  C   UNL     1      50.059  16.839  17.452  0.00  0.00    -0.256 A 
ATOM     15  C   UNL     1      48.793  17.007  18.001  0.00  0.00    +0.264 A 
ATOM     16  C   UNL     1      48.391  18.276  18.459  0.00  0.00    -0.298 A 
ATOM     17  C   UNL     1      47.048  18.431  19.037  0.00  0.00    +0.083 A 
ATOM     24  C   UNL     1      46.237  17.311  19.101  0.00  0.00    -0.085 A 
ATOM     25  C   UNL     1      46.718  16.083  18.620  0.00  0.00    +0.515 A 
ATOM     26  O   UNL     1      45.998  15.101  18.681  0.00  0.00    -0.456 OA
ATOM     27  O   UNL     1      47.948  15.959  18.097  0.00  0.00    -0.265 OA
ATOM     28  C   UNL     1      49.260  19.368  18.364  0.00  0.00    +0.325 A 
ENDROOT
BRANCH  17  18
ATOM     18  C   UNL     1      46.577  19.742  19.533  0.00  0.00    -0.090 A 
ATOM     19  C   UNL     1      46.840  20.130  20.847  0.00  0.00    +0.056 A 
ATOM     20  C   UNL     1      46.403  21.358  21.302  0.00  0.00    +0.040 A 
ATOM     21  C   UNL     1      45.694  22.198  20.462  0.00  0.00    +0.044 A 
ATOM     22  C   UNL     1      45.426  21.817  19.159  0.00  0.00    +0.043 A 
ATOM     23  C   UNL     1      45.863  20.595  18.690  0.00  0.00    +0.028 A 
ENDBRANCH  17  18
BRANCH   5   4
ATOM      4  C   UNL     1      51.458  20.317  17.700  0.00  0.00    +0.406 C 
ATOM     31  O   UNL     1      51.299  21.149  16.830  0.00  0.00    -0.442 OA
BRANCH   4   3
ATOM      3  C   UNL     1      52.606  20.448  18.667  0.00  0.00    +0.054 C 
BRANCH   3   2
ATOM      1  C   UNL     1      52.248  19.900  21.078  0.00  0.00    +0.016 C 
ATOM      2  C   UNL     1      52.087  20.978  20.005  0.00  0.00    -0.017 C 
ATOM     32  C   UNL     1      52.886  22.220  20.406  0.00  0.00    +0.015 C 
ENDBRANCH   3   2
ENDBRANCH   4   3
ENDBRANCH   5   4
BRANCH   6   7
ATOM      7  O   UNL     1      52.160  17.730  16.827  0.00  0.00    -0.459 OA
ATOM      8  H   UNL     1      53.022  18.275  17.238  0.00  0.00    +0.425 HD
ENDBRANCH   6   7
BRANCH  28  29
ATOM     29  O   UNL     1      48.875  20.589  18.804  0.00  0.00    -0.512 OA
ATOM     30  H   UNL     1      49.019  20.863  19.860  0.00  0.00    +0.420 HD
ENDBRANCH  28  29
BRANCH   9  10
ATOM     10  C   UNL     1      50.487  15.480  16.962  0.00  0.00    +0.134 C 
BRANCH  10  11
ATOM     11  C   UNL     1      51.146  14.725  18.089  0.00  0.00    -0.047 C 
ATOM     12  C   UNL     1      50.759  13.506  18.375  0.00  0.00    -0.132 C 
ATOM     13  C   UNL     1      49.586  12.898  17.649  0.00  0.00    +0.085 C 
ATOM     14  C   UNL     1      51.485  12.713  19.430  0.00  0.00    +0.079 C 
ENDBRANCH  10  11
ENDBRANCH   9  10
TORSDOF 8
ENDMDL
MODEL 8
REMARK VINA RESULT:      -5.2      2.407      6.448
REMARK  Name = ZINC05452752
REMARK  12 active torsions:
REMARK  status: ('A' for Active; 'I' for Inactive)
REMARK    1  A    between atoms: C1_1  and  C2_2
REMARK    2  A    between atoms: C2_2  and  C3_3
REMARK    3  A    between atoms: C2_2  and  C4_4
REMARK    4  A    between atoms: C4_4  and  C5_5
REMARK    5  A    between atoms: C5_5  and  C6_7
REMARK    6  A    between atoms: C7_8  and  O5_30
REMARK    7  A    between atoms: C8_9  and  C21_25
REMARK    8  A    between atoms: C11_12  and  O2_13
REMARK    9  A    between atoms: C12_14  and  C15_19
REMARK   10  A    between atoms: C21_25  and  C22_26
REMARK   11  A    between atoms: C23_27  and  C24_28
REMARK   12  A    between atoms: C23_27  and  C25_29
REMARK                            x       y       z     vdW  Elec       q    Type
REMARK                         _______ _______ _______ _____ _____    ______ ____
ROOT
ATOM      5  C   UNL     1      49.726  17.191  17.657  0.00  0.00    -0.286 A 
ATOM      6  C   UNL     1      50.011  15.831  17.416  0.00  0.00    +0.315 A 
ATOM      9  C   UNL     1      49.088  14.856  17.738  0.00  0.00    -0.256 A 
ATOM     15  C   UNL     1      47.872  15.201  18.313  0.00  0.00    +0.264 A 
ATOM     16  C   UNL     1      47.575  16.554  18.564  0.00  0.00    -0.298 A 
ATOM     17  C   UNL     1      46.281  16.898  19.173  0.00  0.00    +0.083 A 
ATOM     24  C   UNL     1      45.411  15.864  19.471  0.00  0.00    -0.085 A 
ATOM     25  C   UNL     1      45.787  14.542  19.188  0.00  0.00    +0.515 A 
ATOM     26  O   UNL     1      45.015  13.637  19.454  0.00  0.00    -0.456 OA
ATOM     27  O   UNL     1      46.973  14.246  18.632  0.00  0.00    -0.265 OA
ATOM     28  C   UNL     1      48.500  17.552  18.237  0.00  0.00    +0.325 A 
ENDROOT
BRANCH  17  18
ATOM     18  C   UNL     1      45.921  18.304  19.458  0.00  0.00    -0.090 A 
ATOM     19  C   UNL     1      46.222  18.868  20.698  0.00  0.00    +0.056 A 
ATOM     20  C   UNL     1      45.887  20.182  20.954  0.00  0.00    +0.040 A 
ATOM     21  C   UNL     1      45.245  20.937  19.990  0.00  0.00    +0.044 A 
ATOM     22  C   UNL     1      44.940  20.382  18.759  0.00  0.00    +0.043 A 
ATOM     23  C   UNL     1      45.274  19.072  18.487  0.00  0.00    +0.028 A 
ENDBRANCH  17  18
BRANCH   5   4
ATOM      4  C   UNL     1      50.705  18.220  17.307  0.00  0.00    +0.406 C 
ATOM     31  O   UNL     1      50.857  18.545  16.148  0.00  0.00    -0.442 OA
BRANCH   4   3
ATOM      3  C   UNL     1      51.526  18.876  18.388  0.00  0.00    +0.054 C 
BRANCH   3   2
ATOM      1  C   UNL     1      50.468  21.135  18.246  0.00  0.00    +0.016 C 
ATOM      2  C   UNL     1      51.760  20.345  18.029  0.00  0.00    -0.017 C 
ATOM     32  C   UNL     1      52.864  20.918  18.919  0.00  0.00    +0.015 C 
ENDBRANCH   3   2
ENDBRANCH   4   3
ENDBRANCH   5   4
BRANCH   6   7
ATOM      7  O   UNL     1      51.196  15.479  16.862  0.00  0.00    -0.459 OA
ATOM      8  H   UNL     1      51.712  16.171  16.180  0.00  0.00    +0.425 HD
ENDBRANCH   6   7
BRANCH  28  29
ATOM     29  O   UNL     1      48.216  18.853  18.477  0.00  0.00    -0.512 OA
ATOM     30  H   UNL     1      48.950  19.632  18.220  0.00  0.00    +0.420 HD
ENDBRANCH  28  29
BRANCH   9  10
ATOM     10  C   UNL     1      49.405  13.407  17.471  0.00  0.00    +0.134 C 
BRANCH  10  11
ATOM     11  C   UNL     1      48.856  13.014  16.123  0.00  0.00    -0.047 C 
ATOM     12  C   UNL     1      48.036  11.997  16.021  0.00  0.00    -0.132 C 
ATOM     13  C   UNL     1      47.724  11.156  17.232  0.00  0.00    +0.085 C 
ATOM     14  C   UNL     1      47.404  11.668  14.692  0.00  0.00    +0.079 C 
ENDBRANCH  10  11
ENDBRANCH   9  10
TORSDOF 8
ENDMDL
MODEL 9
REMARK VINA RESULT:      -5.1      2.007      5.542
REMARK  Name = ZINC05452752
REMARK  12 active torsions:
REMARK  status: ('A' for Active; 'I' for Inactive)
REMARK    1  A    between atoms: C1_1  and  C2_2
REMARK    2  A    between atoms: C2_2  and  C3_3
REMARK    3  A    between atoms: C2_2  and  C4_4
REMARK    4  A    between atoms: C4_4  and  C5_5
REMARK    5  A    between atoms: C5_5  and  C6_7
REMARK    6  A    between atoms: C7_8  and  O5_30
REMARK    7  A    between atoms: C8_9  and  C21_25
REMARK    8  A    between atoms: C11_12  and  O2_13
REMARK    9  A    between atoms: C12_14  and  C15_19
REMARK   10  A    between atoms: C21_25  and  C22_26
REMARK   11  A    between atoms: C23_27  and  C24_28
REMARK   12  A    between atoms: C23_27  and  C25_29
REMARK                            x       y       z     vdW  Elec       q    Type
REMARK                         _______ _______ _______ _____ _____    ______ ____
ROOT
ATOM      5  C   UNL     1      48.133  17.958  19.380  0.00  0.00    -0.286 A 
ATOM      6  C   UNL     1      47.919  16.574  19.546  0.00  0.00    +0.315 A 
ATOM      9  C   UNL     1      46.766  16.113  20.149  0.00  0.00    -0.256 A 
ATOM     15  C   UNL     1      45.807  17.006  20.611  0.00  0.00    +0.264 A 
ATOM     16  C   UNL     1      46.010  18.391  20.458  0.00  0.00    -0.298 A 
ATOM     17  C   UNL     1      44.983  19.320  20.953  0.00  0.00    +0.083 A 
ATOM     24  C   UNL     1      43.857  18.781  21.550  0.00  0.00    -0.085 A 
ATOM     25  C   UNL     1      43.735  17.387  21.662  0.00  0.00    +0.515 A 
ATOM     26  O   UNL     1      42.741  16.920  22.190  0.00  0.00    -0.456 OA
ATOM     27  O   UNL     1      44.683  16.553  21.205  0.00  0.00    -0.265 OA
ATOM     28  C   UNL     1      47.172  18.870  19.843  0.00  0.00    +0.325 A 
ENDROOT
BRANCH  17  18
ATOM     18  C   UNL     1      45.147  20.783  20.817  0.00  0.00    -0.090 A 
ATOM     19  C   UNL     1      44.609  21.450  19.716  0.00  0.00    +0.056 A 
ATOM     20  C   UNL     1      44.762  22.817  19.599  0.00  0.00    +0.040 A 
ATOM     21  C   UNL     1      45.457  23.524  20.563  0.00  0.00    +0.044 A 
ATOM     22  C   UNL     1      45.997  22.867  21.656  0.00  0.00    +0.043 A 
ATOM     23  C   UNL     1      45.846  21.503  21.788  0.00  0.00    +0.028 A 
ENDBRANCH  17  18
BRANCH   5   4
ATOM      4  C   UNL     1      49.354  18.441  18.735  0.00  0.00    +0.406 C 
ATOM     31  O   UNL     1      50.125  19.150  19.348  0.00  0.00    -0.442 OA
BRANCH   4   3
ATOM      3  C   UNL     1      49.653  18.059  17.308  0.00  0.00    +0.054 C 
BRANCH   3   2
ATOM      1  C   UNL     1      51.565  16.529  16.809  0.00  0.00    +0.016 C 
ATOM      2  C   UNL     1      51.168  17.976  17.110  0.00  0.00    -0.017 C 
ATOM     32  C   UNL     1      51.578  18.871  15.939  0.00  0.00    +0.015 C 
ENDBRANCH   3   2
ENDBRANCH   4   3
ENDBRANCH   5   4
BRANCH   6   7
ATOM      7  O   UNL     1      48.848  15.692  19.106  0.00  0.00    -0.459 OA
ATOM      8  H   UNL     1      49.755  15.506  19.700  0.00  0.00    +0.425 HD
ENDBRANCH   6   7
BRANCH  28  29
ATOM     29  O   UNL     1      47.368  20.201  19.695  0.00  0.00    -0.512 OA
ATOM     30  H   UNL     1      46.670  20.915  20.158  0.00  0.00    +0.420 HD
ENDBRANCH  28  29
BRANCH   9  10
ATOM     10  C   UNL     1      46.548  14.631  20.314  0.00  0.00    +0.134 C 
BRANCH  10  11
ATOM     11  C   UNL     1      45.759  14.106  19.141  0.00  0.00    -0.047 C 
ATOM     12  C   UNL     1      46.198  13.070  18.468  0.00  0.00    -0.132 C 
ATOM     13  C   UNL     1      47.539  12.469  18.800  0.00  0.00    +0.085 C 
ATOM     14  C   UNL     1      45.360  12.480  17.363  0.00  0.00    +0.079 C 
ENDBRANCH  10  11
ENDBRANCH   9  10
TORSDOF 8
ENDMDL
