MODEL 1
REMARK VINA RESULT:      -6.2      0.000      0.000
REMARK  Name = ZINC00058188
REMARK  5 active torsions:
REMARK  status: ('A' for Active; 'I' for Inactive)
REMARK    1  A    between atoms: C1_1  and  O1_2
REMARK    2  A    between atoms: O1_2  and  C2_3
REMARK    3  A    between atoms: C9_11  and  C10_12
REMARK    4  A    between atoms: C10_12  and  C11_13
REMARK    5  A    between atoms: C12_14  and  C13_16
REMARK                            x       y       z     vdW  Elec       q    Type
REMARK                         _______ _______ _______ _____ _____    ______ ____
ROOT
ATOM      3  C   UNL     1      44.849  19.911  19.477  0.00  0.00    +0.177 A 
ATOM      4  C   UNL     1      43.733  20.740  19.326  0.00  0.00    -0.169 A 
ATOM      5  C   UNL     1      42.352  20.527  18.880  0.00  0.00    -0.037 A 
ATOM      6  C   UNL     1      41.748  21.721  18.953  0.00  0.00    +0.192 A 
ATOM      7  O   UNL     1      42.613  22.650  19.397  0.00  0.00    -0.197 OA
ATOM      8  C   UNL     1      43.824  22.107  19.635  0.00  0.00    +0.065 A 
ATOM      9  C   UNL     1      45.031  22.631  20.093  0.00  0.00    -0.001 A 
ATOM     10  C   UNL     1      46.121  21.826  20.241  0.00  0.00    +0.103 A 
ATOM     11  C   UNL     1      46.048  20.458  19.944  0.00  0.00    -0.156 A 
ENDROOT
BRANCH   3   2
ATOM      1  C   UNL     1      44.268  17.725  20.202  0.00  0.00    +0.227 C 
ATOM      2  O   UNL     1      44.767  18.590  19.180  0.00  0.00    -0.316 OA
ENDBRANCH   3   2
BRANCH  11  12
ATOM     12  C   UNL     1      47.235  19.599  20.116  0.00  0.00    +0.409 C 
ATOM     13  O   UNL     1      47.414  19.009  21.168  0.00  0.00    -0.486 OA
BRANCH  12  14
ATOM     14  C   UNL     1      48.166  19.461  19.062  0.00  0.00    -0.425 C 
ATOM     15  C   UNL     1      49.362  20.106  19.122  0.00  0.00    +0.320 C 
ATOM     16  O   UNL     1      49.660  20.881  20.189  0.00  0.00    -0.637 OA
BRANCH  15  17
ATOM     17  C   UNL     1      50.334  19.961  18.022  0.00  0.00    -0.074 A 
ATOM     18  C   UNL     1      51.014  21.079  17.533  0.00  0.00    +0.026 A 
ATOM     19  C   UNL     1      51.921  20.937  16.504  0.00  0.00    -0.021 A 
ATOM     20  C   UNL     1      52.159  19.689  15.956  0.00  0.00    -0.019 A 
ATOM     21  C   UNL     1      51.490  18.576  16.434  0.00  0.00    -0.021 A 
ATOM     22  C   UNL     1      50.584  18.702  17.467  0.00  0.00    +0.040 A 
ENDBRANCH  15  17
ENDBRANCH  12  14
ENDBRANCH  11  12
TORSDOF 4
ENDMDL
MODEL 2
REMARK VINA RESULT:      -6.1      1.255      2.280
REMARK  Name = ZINC00058188
REMARK  5 active torsions:
REMARK  status: ('A' for Active; 'I' for Inactive)
REMARK    1  A    between atoms: C1_1  and  O1_2
REMARK    2  A    between atoms: O1_2  and  C2_3
REMARK    3  A    between atoms: C9_11  and  C10_12
REMARK    4  A    between atoms: C10_12  and  C11_13
REMARK    5  A    between atoms: C12_14  and  C13_16
REMARK                            x       y       z     vdW  Elec       q    Type
REMARK                         _______ _______ _______ _____ _____    ______ ____
ROOT
ATOM      3  C   UNL     1      45.005  21.090  19.611  0.00  0.00    +0.177 A 
ATOM      4  C   UNL     1      43.745  20.484  19.582  0.00  0.00    -0.169 A 
ATOM      5  C   UNL     1      42.420  20.899  19.110  0.00  0.00    -0.037 A 
ATOM      6  C   UNL     1      41.597  19.870  19.357  0.00  0.00    +0.192 A 
ATOM      7  O   UNL     1      42.276  18.864  19.933  0.00  0.00    -0.197 OA
ATOM      8  C   UNL     1      43.576  19.186  20.090  0.00  0.00    +0.065 A 
ATOM      9  C   UNL     1      44.670  18.507  20.623  0.00  0.00    -0.001 A 
ATOM     10  C   UNL     1      45.899  19.094  20.653  0.00  0.00    +0.103 A 
ATOM     11  C   UNL     1      46.089  20.386  20.145  0.00  0.00    -0.156 A 
ENDROOT
BRANCH   3   2
ATOM      1  C   UNL     1      44.821  23.429  19.981  0.00  0.00    +0.227 C 
ATOM      2  O   UNL     1      45.174  22.344  19.121  0.00  0.00    -0.316 OA
ENDBRANCH   3   2
BRANCH  11  12
ATOM     12  C   UNL     1      47.428  21.006  20.179  0.00  0.00    +0.409 C 
ATOM     13  O   UNL     1      47.773  21.657  21.150  0.00  0.00    -0.486 OA
BRANCH  12  14
ATOM     14  C   UNL     1      48.309  20.845  19.087  0.00  0.00    -0.425 C 
ATOM     15  C   UNL     1      49.431  20.089  19.223  0.00  0.00    +0.320 C 
ATOM     16  O   UNL     1      49.704  19.491  20.405  0.00  0.00    -0.637 OA
BRANCH  15  17
ATOM     17  C   UNL     1      50.350  19.921  18.082  0.00  0.00    -0.074 A 
ATOM     18  C   UNL     1      51.064  21.015  17.588  0.00  0.00    +0.026 A 
ATOM     19  C   UNL     1      51.922  20.851  16.521  0.00  0.00    -0.021 A 
ATOM     20  C   UNL     1      52.078  19.605  15.940  0.00  0.00    -0.019 A 
ATOM     21  C   UNL     1      51.374  18.516  16.423  0.00  0.00    -0.021 A 
ATOM     22  C   UNL     1      50.517  18.664  17.493  0.00  0.00    +0.040 A 
ENDBRANCH  15  17
ENDBRANCH  12  14
ENDBRANCH  11  12
TORSDOF 4
ENDMDL
MODEL 3
REMARK VINA RESULT:      -5.9      1.794      3.024
REMARK  Name = ZINC00058188
REMARK  5 active torsions:
REMARK  status: ('A' for Active; 'I' for Inactive)
REMARK    1  A    between atoms: C1_1  and  O1_2
REMARK    2  A    between atoms: O1_2  and  C2_3
REMARK    3  A    between atoms: C9_11  and  C10_12
REMARK    4  A    between atoms: C10_12  and  C11_13
REMARK    5  A    between atoms: C12_14  and  C13_16
REMARK                            x       y       z     vdW  Elec       q    Type
REMARK                         _______ _______ _______ _____ _____    ______ ____
ROOT
ATOM      3  C   UNL     1      43.899  21.717  20.145  0.00  0.00    +0.177 A 
ATOM      4  C   UNL     1      42.762  21.218  19.503  0.00  0.00    -0.169 A 
ATOM      5  C   UNL     1      41.589  21.833  18.871  0.00  0.00    -0.037 A 
ATOM      6  C   UNL     1      40.832  20.822  18.425  0.00  0.00    +0.192 A 
ATOM      7  O   UNL     1      41.414  19.646  18.717  0.00  0.00    -0.197 OA
ATOM      8  C   UNL     1      42.580  19.832  19.366  0.00  0.00    +0.065 A 
ATOM      9  C   UNL     1      43.540  18.959  19.875  0.00  0.00    -0.001 A 
ATOM     10  C   UNL     1      44.650  19.441  20.502  0.00  0.00    +0.103 A 
ATOM     11  C   UNL     1      44.851  20.822  20.642  0.00  0.00    -0.156 A 
ENDROOT
BRANCH   3   2
ATOM      1  C   UNL     1      44.615  23.753  19.153  0.00  0.00    +0.227 C 
ATOM      2  O   UNL     1      44.079  23.055  20.279  0.00  0.00    -0.316 OA
ENDBRANCH   3   2
BRANCH  11  12
ATOM     12  C   UNL     1      46.061  21.328  21.318  0.00  0.00    +0.409 C 
ATOM     13  O   UNL     1      46.021  21.623  22.500  0.00  0.00    -0.486 OA
BRANCH  12  14
ATOM     14  C   UNL     1      47.265  21.473  20.595  0.00  0.00    -0.425 C 
ATOM     15  C   UNL     1      48.313  20.642  20.845  0.00  0.00    +0.320 C 
ATOM     16  O   UNL     1      48.202  19.679  21.787  0.00  0.00    -0.637 OA
BRANCH  15  17
ATOM     17  C   UNL     1      49.571  20.793  20.089  0.00  0.00    -0.074 A 
ATOM     18  C   UNL     1      50.795  20.823  20.762  0.00  0.00    +0.026 A 
ATOM     19  C   UNL     1      51.967  20.964  20.049  0.00  0.00    -0.021 A 
ATOM     20  C   UNL     1      51.933  21.076  18.670  0.00  0.00    -0.019 A 
ATOM     21  C   UNL     1      50.725  21.048  17.997  0.00  0.00    -0.021 A 
ATOM     22  C   UNL     1      49.545  20.901  18.696  0.00  0.00    +0.040 A 
ENDBRANCH  15  17
ENDBRANCH  12  14
ENDBRANCH  11  12
TORSDOF 4
ENDMDL
MODEL 4
REMARK VINA RESULT:      -5.9      3.863      5.061
REMARK  Name = ZINC00058188
REMARK  5 active torsions:
REMARK  status: ('A' for Active; 'I' for Inactive)
REMARK    1  A    between atoms: C1_1  and  O1_2
REMARK    2  A    between atoms: O1_2  and  C2_3
REMARK    3  A    between atoms: C9_11  and  C10_12
REMARK    4  A    between atoms: C10_12  and  C11_13
REMARK    5  A    between atoms: C12_14  and  C13_16
REMARK                            x       y       z     vdW  Elec       q    Type
REMARK                         _______ _______ _______ _____ _____    ______ ____
ROOT
ATOM      3  C   UNL     1      43.253  19.582  19.521  0.00  0.00    +0.177 A 
ATOM      4  C   UNL     1      42.024  20.226  19.342  0.00  0.00    -0.169 A 
ATOM      5  C   UNL     1      41.529  21.248  18.414  0.00  0.00    -0.037 A 
ATOM      6  C   UNL     1      40.247  21.461  18.743  0.00  0.00    +0.192 A 
ATOM      7  O   UNL     1      39.899  20.676  19.777  0.00  0.00    -0.197 OA
ATOM      8  C   UNL     1      40.937  19.913  20.174  0.00  0.00    +0.065 A 
ATOM      9  C   UNL     1      41.091  18.958  21.178  0.00  0.00    -0.001 A 
ATOM     10  C   UNL     1      42.287  18.329  21.356  0.00  0.00    +0.103 A 
ATOM     11  C   UNL     1      43.381  18.624  20.530  0.00  0.00    -0.156 A 
ENDROOT
BRANCH   3   2
ATOM      1  C   UNL     1      45.069  21.040  19.056  0.00  0.00    +0.227 C 
ATOM      2  O   UNL     1      44.305  19.881  18.719  0.00  0.00    -0.316 OA
ENDBRANCH   3   2
BRANCH  11  12
ATOM     12  C   UNL     1      44.667  17.929  20.732  0.00  0.00    +0.409 C 
ATOM     13  O   UNL     1      45.530  18.434  21.430  0.00  0.00    -0.486 OA
BRANCH  12  14
ATOM     14  C   UNL     1      44.900  16.681  20.114  0.00  0.00    -0.425 C 
ATOM     15  C   UNL     1      45.814  16.576  19.112  0.00  0.00    +0.320 C 
ATOM     16  O   UNL     1      46.499  17.669  18.706  0.00  0.00    -0.637 OA
BRANCH  15  17
ATOM     17  C   UNL     1      46.057  15.272  18.468  0.00  0.00    -0.074 A 
ATOM     18  C   UNL     1      46.772  15.203  17.270  0.00  0.00    +0.026 A 
ATOM     19  C   UNL     1      46.995  13.980  16.672  0.00  0.00    -0.021 A 
ATOM     20  C   UNL     1      46.513  12.822  17.257  0.00  0.00    -0.019 A 
ATOM     21  C   UNL     1      45.804  12.883  18.444  0.00  0.00    -0.021 A 
ATOM     22  C   UNL     1      45.577  14.098  19.056  0.00  0.00    +0.040 A 
ENDBRANCH  15  17
ENDBRANCH  12  14
ENDBRANCH  11  12
TORSDOF 4
ENDMDL
MODEL 5
REMARK VINA RESULT:      -5.7      3.620      7.592
REMARK  Name = ZINC00058188
REMARK  5 active torsions:
REMARK  status: ('A' for Active; 'I' for Inactive)
REMARK    1  A    between atoms: C1_1  and  O1_2
REMARK    2  A    between atoms: O1_2  and  C2_3
REMARK    3  A    between atoms: C9_11  and  C10_12
REMARK    4  A    between atoms: C10_12  and  C11_13
REMARK    5  A    between atoms: C12_14  and  C13_16
REMARK                            x       y       z     vdW  Elec       q    Type
REMARK                         _______ _______ _______ _____ _____    ______ ____
ROOT
ATOM      3  C   UNL     1      45.483  15.832  19.437  0.00  0.00    +0.177 A 
ATOM      4  C   UNL     1      45.754  14.634  18.768  0.00  0.00    -0.169 A 
ATOM      5  C   UNL     1      45.432  13.225  19.020  0.00  0.00    -0.037 A 
ATOM      6  C   UNL     1      45.974  12.533  18.009  0.00  0.00    +0.192 A 
ATOM      7  O   UNL     1      46.597  13.367  17.159  0.00  0.00    -0.197 OA
ATOM      8  C   UNL     1      46.493  14.645  17.574  0.00  0.00    +0.065 A 
ATOM      9  C   UNL     1      46.954  15.856  17.061  0.00  0.00    -0.001 A 
ATOM     10  C   UNL     1      46.693  17.026  17.709  0.00  0.00    +0.103 A 
ATOM     11  C   UNL     1      45.951  17.035  18.899  0.00  0.00    -0.156 A 
ENDROOT
BRANCH   3   2
ATOM      1  C   UNL     1      45.461  15.441  21.779  0.00  0.00    +0.227 C 
ATOM      2  O   UNL     1      44.769  15.827  20.590  0.00  0.00    -0.316 OA
ENDBRANCH   3   2
BRANCH  11  12
ATOM     12  C   UNL     1      45.671  18.311  19.586  0.00  0.00    +0.409 C 
ATOM     13  O   UNL     1      46.325  18.633  20.563  0.00  0.00    -0.486 OA
BRANCH  12  14
ATOM     14  C   UNL     1      44.644  19.157  19.113  0.00  0.00    -0.425 C 
ATOM     15  C   UNL     1      43.477  19.263  19.803  0.00  0.00    +0.320 C 
ATOM     16  O   UNL     1      43.299  18.556  20.942  0.00  0.00    -0.637 OA
BRANCH  15  17
ATOM     17  C   UNL     1      42.405  20.148  19.309  0.00  0.00    -0.074 A 
ATOM     18  C   UNL     1      41.177  19.611  18.915  0.00  0.00    +0.026 A 
ATOM     19  C   UNL     1      40.180  20.444  18.453  0.00  0.00    -0.021 A 
ATOM     20  C   UNL     1      40.392  21.809  18.381  0.00  0.00    -0.019 A 
ATOM     21  C   UNL     1      41.606  22.349  18.769  0.00  0.00    -0.021 A 
ATOM     22  C   UNL     1      42.611  21.529  19.238  0.00  0.00    +0.040 A 
ENDBRANCH  15  17
ENDBRANCH  12  14
ENDBRANCH  11  12
TORSDOF 4
ENDMDL
MODEL 6
REMARK VINA RESULT:      -5.5      2.197      3.600
REMARK  Name = ZINC00058188
REMARK  5 active torsions:
REMARK  status: ('A' for Active; 'I' for Inactive)
REMARK    1  A    between atoms: C1_1  and  O1_2
REMARK    2  A    between atoms: O1_2  and  C2_3
REMARK    3  A    between atoms: C9_11  and  C10_12
REMARK    4  A    between atoms: C10_12  and  C11_13
REMARK    5  A    between atoms: C12_14  and  C13_16
REMARK                            x       y       z     vdW  Elec       q    Type
REMARK                         _______ _______ _______ _____ _____    ______ ____
ROOT
ATOM      3  C   UNL     1      44.732  18.225  19.231  0.00  0.00    +0.177 A 
ATOM      4  C   UNL     1      43.922  18.233  20.370  0.00  0.00    -0.169 A 
ATOM      5  C   UNL     1      42.916  19.158  20.906  0.00  0.00    -0.037 A 
ATOM      6  C   UNL     1      42.480  18.612  22.049  0.00  0.00    +0.192 A 
ATOM      7  O   UNL     1      43.111  17.447  22.276  0.00  0.00    -0.197 OA
ATOM      8  C   UNL     1      43.991  17.175  21.292  0.00  0.00    +0.065 A 
ATOM      9  C   UNL     1      44.871  16.119  21.063  0.00  0.00    -0.001 A 
ATOM     10  C   UNL     1      45.662  16.107  19.953  0.00  0.00    +0.103 A 
ATOM     11  C   UNL     1      45.602  17.151  19.020  0.00  0.00    -0.156 A 
ENDROOT
BRANCH   3   2
ATOM      1  C   UNL     1      45.155  20.516  18.770  0.00  0.00    +0.227 C 
ATOM      2  O   UNL     1      44.669  19.244  18.338  0.00  0.00    -0.316 OA
ENDBRANCH   3   2
BRANCH  11  12
ATOM     12  C   UNL     1      46.461  17.121  17.820  0.00  0.00    +0.409 C 
ATOM     13  O   UNL     1      46.290  16.264  16.969  0.00  0.00    -0.486 OA
BRANCH  12  14
ATOM     14  C   UNL     1      47.482  18.083  17.657  0.00  0.00    -0.425 C 
ATOM     15  C   UNL     1      48.716  17.863  18.185  0.00  0.00    +0.320 C 
ATOM     16  O   UNL     1      48.965  16.722  18.866  0.00  0.00    -0.637 OA
BRANCH  15  17
ATOM     17  C   UNL     1      49.782  18.868  18.015  0.00  0.00    -0.074 A 
ATOM     18  C   UNL     1      49.745  20.061  18.740  0.00  0.00    +0.026 A 
ATOM     19  C   UNL     1      50.745  20.996  18.576  0.00  0.00    -0.021 A 
ATOM     20  C   UNL     1      51.784  20.755  17.695  0.00  0.00    -0.019 A 
ATOM     21  C   UNL     1      51.828  19.576  16.972  0.00  0.00    -0.021 A 
ATOM     22  C   UNL     1      50.838  18.629  17.130  0.00  0.00    +0.040 A 
ENDBRANCH  15  17
ENDBRANCH  12  14
ENDBRANCH  11  12
TORSDOF 4
ENDMDL
MODEL 7
REMARK VINA RESULT:      -5.5      3.150      7.694
REMARK  Name = ZINC00058188
REMARK  5 active torsions:
REMARK  status: ('A' for Active; 'I' for Inactive)
REMARK    1  A    between atoms: C1_1  and  O1_2
REMARK    2  A    between atoms: O1_2  and  C2_3
REMARK    3  A    between atoms: C9_11  and  C10_12
REMARK    4  A    between atoms: C10_12  and  C11_13
REMARK    5  A    between atoms: C12_14  and  C13_16
REMARK                            x       y       z     vdW  Elec       q    Type
REMARK                         _______ _______ _______ _____ _____    ______ ____
ROOT
ATOM      3  C   UNL     1      46.404  16.319  18.357  0.00  0.00    +0.177 A 
ATOM      4  C   UNL     1      46.461  15.030  17.818  0.00  0.00    -0.169 A 
ATOM      5  C   UNL     1      47.016  14.458  16.586  0.00  0.00    -0.037 A 
ATOM      6  C   UNL     1      46.755  13.145  16.635  0.00  0.00    +0.192 A 
ATOM      7  O   UNL     1      46.096  12.846  17.767  0.00  0.00    -0.197 OA
ATOM      8  C   UNL     1      45.894  13.950  18.514  0.00  0.00    +0.065 A 
ATOM      9  C   UNL     1      45.276  14.171  19.743  0.00  0.00    -0.001 A 
ATOM     10  C   UNL     1      45.218  15.426  20.272  0.00  0.00    +0.103 A 
ATOM     11  C   UNL     1      45.783  16.515  19.594  0.00  0.00    -0.156 A 
ENDROOT
BRANCH   3   2
ATOM      1  C   UNL     1      48.376  17.423  17.626  0.00  0.00    +0.227 C 
ATOM      2  O   UNL     1      46.950  17.366  17.689  0.00  0.00    -0.316 OA
ENDBRANCH   3   2
BRANCH  11  12
ATOM     12  C   UNL     1      45.718  17.867  20.183  0.00  0.00    +0.409 C 
ATOM     13  O   UNL     1      46.474  18.175  21.088  0.00  0.00    -0.486 OA
BRANCH  12  14
ATOM     14  C   UNL     1      44.779  18.804  19.698  0.00  0.00    -0.425 C 
ATOM     15  C   UNL     1      43.560  18.915  20.291  0.00  0.00    +0.320 C 
ATOM     16  O   UNL     1      43.247  18.127  21.345  0.00  0.00    -0.637 OA
BRANCH  15  17
ATOM     17  C   UNL     1      42.579  19.894  19.785  0.00  0.00    -0.074 A 
ATOM     18  C   UNL     1      41.220  19.573  19.752  0.00  0.00    +0.026 A 
ATOM     19  C   UNL     1      40.308  20.493  19.277  0.00  0.00    -0.021 A 
ATOM     20  C   UNL     1      40.738  21.732  18.834  0.00  0.00    -0.019 A 
ATOM     21  C   UNL     1      42.083  22.056  18.863  0.00  0.00    -0.021 A 
ATOM     22  C   UNL     1      43.005  21.149  19.341  0.00  0.00    +0.040 A 
ENDBRANCH  15  17
ENDBRANCH  12  14
ENDBRANCH  11  12
TORSDOF 4
ENDMDL
MODEL 8
REMARK VINA RESULT:      -5.4      1.970      7.017
REMARK  Name = ZINC00058188
REMARK  5 active torsions:
REMARK  status: ('A' for Active; 'I' for Inactive)
REMARK    1  A    between atoms: C1_1  and  O1_2
REMARK    2  A    between atoms: O1_2  and  C2_3
REMARK    3  A    between atoms: C9_11  and  C10_12
REMARK    4  A    between atoms: C10_12  and  C11_13
REMARK    5  A    between atoms: C12_14  and  C13_16
REMARK                            x       y       z     vdW  Elec       q    Type
REMARK                         _______ _______ _______ _____ _____    ______ ____
ROOT
ATOM      3  C   UNL     1      49.813  18.370  18.059  0.00  0.00    +0.177 A 
ATOM      4  C   UNL     1      50.733  19.059  17.263  0.00  0.00    -0.169 A 
ATOM      5  C   UNL     1      51.552  18.701  16.100  0.00  0.00    -0.037 A 
ATOM      6  C   UNL     1      52.244  19.802  15.777  0.00  0.00    +0.192 A 
ATOM      7  O   UNL     1      51.938  20.803  16.620  0.00  0.00    -0.197 OA
ATOM      8  C   UNL     1      51.032  20.404  17.534  0.00  0.00    +0.065 A 
ATOM      9  C   UNL     1      50.405  21.047  18.600  0.00  0.00    -0.001 A 
ATOM     10  C   UNL     1      49.507  20.380  19.378  0.00  0.00    +0.103 A 
ATOM     11  C   UNL     1      49.192  19.038  19.118  0.00  0.00    -0.156 A 
ENDROOT
BRANCH   3   2
ATOM      1  C   UNL     1      50.454  16.092  18.264  0.00  0.00    +0.227 C 
ATOM      2  O   UNL     1      49.521  17.071  17.801  0.00  0.00    -0.316 OA
ENDBRANCH   3   2
BRANCH  11  12
ATOM     12  C   UNL     1      48.213  18.331  19.966  0.00  0.00    +0.409 C 
ATOM     13  O   UNL     1      48.596  17.653  20.905  0.00  0.00    -0.486 OA
BRANCH  12  14
ATOM     14  C   UNL     1      46.832  18.438  19.691  0.00  0.00    -0.425 C 
ATOM     15  C   UNL     1      46.061  19.303  20.403  0.00  0.00    +0.320 C 
ATOM     16  O   UNL     1      46.616  20.060  21.376  0.00  0.00    -0.637 OA
BRANCH  15  17
ATOM     17  C   UNL     1      44.619  19.416  20.114  0.00  0.00    -0.074 A 
ATOM     18  C   UNL     1      44.181  20.089  18.971  0.00  0.00    +0.026 A 
ATOM     19  C   UNL     1      42.831  20.191  18.708  0.00  0.00    -0.021 A 
ATOM     20  C   UNL     1      41.910  19.626  19.573  0.00  0.00    -0.019 A 
ATOM     21  C   UNL     1      42.336  18.958  20.707  0.00  0.00    -0.021 A 
ATOM     22  C   UNL     1      43.683  18.843  20.980  0.00  0.00    +0.040 A 
ENDBRANCH  15  17
ENDBRANCH  12  14
ENDBRANCH  11  12
TORSDOF 4
ENDMDL
MODEL 9
REMARK VINA RESULT:      -5.4      2.252      2.986
REMARK  Name = ZINC00058188
REMARK  5 active torsions:
REMARK  status: ('A' for Active; 'I' for Inactive)
REMARK    1  A    between atoms: C1_1  and  O1_2
REMARK    2  A    between atoms: O1_2  and  C2_3
REMARK    3  A    between atoms: C9_11  and  C10_12
REMARK    4  A    between atoms: C10_12  and  C11_13
REMARK    5  A    between atoms: C12_14  and  C13_16
REMARK                            x       y       z     vdW  Elec       q    Type
REMARK                         _______ _______ _______ _____ _____    ______ ____
ROOT
ATOM      3  C   UNL     1      45.180  17.377  19.918  0.00  0.00    +0.177 A 
ATOM      4  C   UNL     1      44.105  17.908  20.637  0.00  0.00    -0.169 A 
ATOM      5  C   UNL     1      43.423  17.537  21.882  0.00  0.00    -0.037 A 
ATOM      6  C   UNL     1      42.450  18.442  22.057  0.00  0.00    +0.192 A 
ATOM      7  O   UNL     1      42.461  19.333  21.051  0.00  0.00    -0.197 OA
ATOM      8  C   UNL     1      43.440  19.053  20.169  0.00  0.00    +0.065 A 
ATOM      9  C   UNL     1      43.859  19.656  18.984  0.00  0.00    -0.001 A 
ATOM     10  C   UNL     1      44.906  19.142  18.280  0.00  0.00    +0.103 A 
ATOM     11  C   UNL     1      45.586  18.003  18.735  0.00  0.00    -0.156 A 
ENDROOT
BRANCH   3   2
ATOM      1  C   UNL     1      45.147  15.022  20.225  0.00  0.00    +0.227 C 
ATOM      2  O   UNL     1      45.826  16.272  20.366  0.00  0.00    -0.316 OA
ENDBRANCH   3   2
BRANCH  11  12
ATOM     12  C   UNL     1      46.722  17.462  17.965  0.00  0.00    +0.409 C 
ATOM     13  O   UNL     1      46.664  16.335  17.502  0.00  0.00    -0.486 OA
BRANCH  12  14
ATOM     14  C   UNL     1      47.877  18.249  17.763  0.00  0.00    -0.425 C 
ATOM     15  C   UNL     1      48.885  18.225  18.677  0.00  0.00    +0.320 C 
ATOM     16  O   UNL     1      48.780  17.449  19.779  0.00  0.00    -0.637 OA
BRANCH  15  17
ATOM     17  C   UNL     1      50.092  19.047  18.466  0.00  0.00    -0.074 A 
ATOM     18  C   UNL     1      50.064  20.417  18.736  0.00  0.00    +0.026 A 
ATOM     19  C   UNL     1      51.196  21.180  18.537  0.00  0.00    -0.021 A 
ATOM     20  C   UNL     1      52.358  20.590  18.070  0.00  0.00    -0.019 A 
ATOM     21  C   UNL     1      52.393  19.234  17.800  0.00  0.00    -0.021 A 
ATOM     22  C   UNL     1      51.271  18.457  18.000  0.00  0.00    +0.040 A 
ENDBRANCH  15  17
ENDBRANCH  12  14
ENDBRANCH  11  12
TORSDOF 4
ENDMDL
