MODEL 1
REMARK VINA RESULT:      -6.1      0.000      0.000
REMARK  Name = ZINC14763429
REMARK  4 active torsions:
REMARK  status: ('A' for Active; 'I' for Inactive)
REMARK    1  A    between atoms: C1_1  and  O1_2
REMARK    2  A    between atoms: O1_2  and  C2_3
REMARK    3  A    between atoms: C7_8  and  O2_9
REMARK    4  A    between atoms: O2_9  and  C8_10
REMARK                            x       y       z     vdW  Elec       q    Type
REMARK                         _______ _______ _______ _____ _____    ______ ____
ROOT
ATOM      3  C   UNL     1      50.938  19.501  17.771  0.00  0.00    +0.155 A 
ATOM      4  C   UNL     1      50.569  20.683  18.396  0.00  0.00    -0.085 A 
ATOM      5  C   UNL     1      49.351  20.778  19.035  0.00  0.00    +0.114 A 
ATOM      6  C   UNL     1      48.478  19.698  19.062  0.00  0.00    -0.193 A 
ATOM      7  C   UNL     1      48.843  18.520  18.433  0.00  0.00    +0.161 A 
ATOM      8  O   UNL     1      47.996  17.455  18.427  0.00  0.00    -0.293 OA
ATOM      9  C   UNL     1      46.602  17.777  18.464  0.00  0.00    +0.266 C 
ATOM     10  C   UNL     1      46.312  18.576  19.735  0.00  0.00    +0.017 C 
ATOM     11  C   UNL     1      44.918  19.147  19.651  0.00  0.00    -0.177 A 
ATOM     12  C   UNL     1      43.700  18.527  19.881  0.00  0.00    +0.123 A 
ATOM     13  C   UNL     1      42.587  19.355  19.725  0.00  0.00    -0.003 A 
ATOM     14  C   UNL     1      42.701  20.703  19.363  0.00  0.00    +0.072 A 
ATOM     15  O   UNL     1      41.460  21.240  19.291  0.00  0.00    -0.303 OA
ATOM     16  C   UNL     1      40.600  20.321  19.995  0.00  0.00    +0.434 C 
ATOM     17  C   UNL     1      43.929  21.321  19.131  0.00  0.00    +0.042 A 
ATOM     18  O   UNL     1      41.276  19.054  19.883  0.00  0.00    -0.304 OA
ATOM     19  C   UNL     1      45.048  20.491  19.286  0.00  0.00    +0.124 A 
ATOM     20  O   UNL     1      46.347  20.829  19.116  0.00  0.00    -0.285 OA
ATOM     21  C   UNL     1      47.171  19.852  19.777  0.00  0.00    +0.247 C 
ATOM     22  C   UNL     1      50.071  18.417  17.789  0.00  0.00    +0.034 A 
ENDROOT
BRANCH   3   2
ATOM      1  C   UNL     1      52.213  19.898  15.802  0.00  0.00    +0.247 C 
ATOM      2  O   UNL     1      52.140  19.406  17.142  0.00  0.00    -0.300 OA
ENDBRANCH   3   2
BRANCH  22  23
ATOM     23  O   UNL     1      50.424  17.252  17.179  0.00  0.00    -0.311 OA
ATOM     24  C   UNL     1      51.174  16.314  17.954  0.00  0.00    +0.220 C 
ENDBRANCH  22  23
TORSDOF 2
ENDMDL
MODEL 2
REMARK VINA RESULT:      -5.9      1.453      7.810
REMARK  Name = ZINC14763429
REMARK  4 active torsions:
REMARK  status: ('A' for Active; 'I' for Inactive)
REMARK    1  A    between atoms: C1_1  and  O1_2
REMARK    2  A    between atoms: O1_2  and  C2_3
REMARK    3  A    between atoms: C7_8  and  O2_9
REMARK    4  A    between atoms: O2_9  and  C8_10
REMARK                            x       y       z     vdW  Elec       q    Type
REMARK                         _______ _______ _______ _____ _____    ______ ____
ROOT
ATOM      3  C   UNL     1      42.460  18.922  20.781  0.00  0.00    +0.155 A 
ATOM      4  C   UNL     1      43.316  18.084  21.480  0.00  0.00    -0.085 A 
ATOM      5  C   UNL     1      44.678  18.297  21.444  0.00  0.00    +0.114 A 
ATOM      6  C   UNL     1      45.211  19.349  20.709  0.00  0.00    -0.193 A 
ATOM      7  C   UNL     1      44.358  20.182  20.006  0.00  0.00    +0.161 A 
ATOM      8  O   UNL     1      44.858  21.206  19.262  0.00  0.00    -0.293 OA
ATOM      9  C   UNL     1      46.164  20.990  18.718  0.00  0.00    +0.266 C 
ATOM     10  C   UNL     1      47.145  20.747  19.865  0.00  0.00    +0.017 C 
ATOM     11  C   UNL     1      48.454  20.254  19.298  0.00  0.00    -0.177 A 
ATOM     12  C   UNL     1      49.479  20.975  18.705  0.00  0.00    +0.123 A 
ATOM     13  C   UNL     1      50.569  20.205  18.295  0.00  0.00    -0.003 A 
ATOM     14  C   UNL     1      50.613  18.815  18.471  0.00  0.00    +0.072 A 
ATOM     15  O   UNL     1      51.787  18.352  17.978  0.00  0.00    -0.303 OA
ATOM     16  C   UNL     1      52.638  19.510  17.854  0.00  0.00    +0.434 C 
ATOM     17  C   UNL     1      49.577  18.097  19.066  0.00  0.00    +0.042 A 
ATOM     18  O   UNL     1      51.716  20.607  17.698  0.00  0.00    -0.304 OA
ATOM     19  C   UNL     1      48.483  18.868  19.478  0.00  0.00    +0.124 A 
ATOM     20  O   UNL     1      47.349  18.428  20.072  0.00  0.00    -0.285 OA
ATOM     21  C   UNL     1      46.697  19.541  20.709  0.00  0.00    +0.247 C 
ATOM     22  C   UNL     1      42.983  19.974  20.042  0.00  0.00    +0.034 A 
ENDROOT
BRANCH   3   2
ATOM      1  C   UNL     1      40.389  19.351  21.872  0.00  0.00    +0.247 C 
ATOM      2  O   UNL     1      41.116  18.714  20.819  0.00  0.00    -0.300 OA
ENDBRANCH   3   2
BRANCH  22  23
ATOM     23  O   UNL     1      42.152  20.803  19.353  0.00  0.00    -0.311 OA
ATOM     24  C   UNL     1      41.588  20.297  18.141  0.00  0.00    +0.220 C 
ENDBRANCH  22  23
TORSDOF 2
ENDMDL
MODEL 3
REMARK VINA RESULT:      -5.9      3.874      7.961
REMARK  Name = ZINC14763429
REMARK  4 active torsions:
REMARK  status: ('A' for Active; 'I' for Inactive)
REMARK    1  A    between atoms: C1_1  and  O1_2
REMARK    2  A    between atoms: O1_2  and  C2_3
REMARK    3  A    between atoms: C7_8  and  O2_9
REMARK    4  A    between atoms: O2_9  and  C8_10
REMARK                            x       y       z     vdW  Elec       q    Type
REMARK                         _______ _______ _______ _____ _____    ______ ____
ROOT
ATOM      3  C   UNL     1      43.887  18.675  20.251  0.00  0.00    +0.155 A 
ATOM      4  C   UNL     1      43.901  17.494  20.979  0.00  0.00    -0.085 A 
ATOM      5  C   UNL     1      44.714  16.450  20.590  0.00  0.00    +0.114 A 
ATOM      6  C   UNL     1      45.526  16.563  19.468  0.00  0.00    -0.193 A 
ATOM      7  C   UNL     1      45.506  17.738  18.737  0.00  0.00    +0.161 A 
ATOM      8  O   UNL     1      46.276  17.865  17.622  0.00  0.00    -0.293 OA
ATOM      9  C   UNL     1      46.530  16.650  16.910  0.00  0.00    +0.266 C 
ATOM     10  C   UNL     1      47.245  15.670  17.840  0.00  0.00    +0.017 C 
ATOM     11  C   UNL     1      47.274  14.307  17.193  0.00  0.00    -0.177 A 
ATOM     12  C   UNL     1      48.115  13.826  16.201  0.00  0.00    +0.123 A 
ATOM     13  C   UNL     1      47.878  12.500  15.832  0.00  0.00    -0.003 A 
ATOM     14  C   UNL     1      46.868  11.728  16.420  0.00  0.00    +0.072 A 
ATOM     15  O   UNL     1      46.882  10.495  15.860  0.00  0.00    -0.303 OA
ATOM     16  C   UNL     1      48.162  10.384  15.203  0.00  0.00    +0.434 C 
ATOM     17  C   UNL     1      46.024  12.220  17.415  0.00  0.00    +0.042 A 
ATOM     18  O   UNL     1      48.524  11.748  14.910  0.00  0.00    -0.304 OA
ATOM     19  C   UNL     1      46.260  13.550  17.787  0.00  0.00    +0.124 A 
ATOM     20  O   UNL     1      45.589  14.272  18.714  0.00  0.00    -0.285 OA
ATOM     21  C   UNL     1      46.394  15.402  19.094  0.00  0.00    +0.247 C 
ATOM     22  C   UNL     1      44.692  18.797  19.126  0.00  0.00    +0.034 A 
ENDROOT
BRANCH   3   2
ATOM      1  C   UNL     1      41.714  19.645  20.242  0.00  0.00    +0.247 C 
ATOM      2  O   UNL     1      43.087  19.706  20.635  0.00  0.00    -0.300 OA
ENDBRANCH   3   2
BRANCH  22  23
ATOM     23  O   UNL     1      44.685  19.951  18.405  0.00  0.00    -0.311 OA
ATOM     24  C   UNL     1      45.619  20.962  18.789  0.00  0.00    +0.220 C 
ENDBRANCH  22  23
TORSDOF 2
ENDMDL
MODEL 4
REMARK VINA RESULT:      -5.5      2.524      7.274
REMARK  Name = ZINC14763429
REMARK  4 active torsions:
REMARK  status: ('A' for Active; 'I' for Inactive)
REMARK    1  A    between atoms: C1_1  and  O1_2
REMARK    2  A    between atoms: O1_2  and  C2_3
REMARK    3  A    between atoms: C7_8  and  O2_9
REMARK    4  A    between atoms: O2_9  and  C8_10
REMARK                            x       y       z     vdW  Elec       q    Type
REMARK                         _______ _______ _______ _____ _____    ______ ____
ROOT
ATOM      3  C   UNL     1      44.931  20.806  20.535  0.00  0.00    +0.155 A 
ATOM      4  C   UNL     1      45.900  21.261  19.651  0.00  0.00    -0.085 A 
ATOM      5  C   UNL     1      46.460  20.398  18.733  0.00  0.00    +0.114 A 
ATOM      6  C   UNL     1      46.067  19.066  18.680  0.00  0.00    -0.193 A 
ATOM      7  C   UNL     1      45.106  18.610  19.565  0.00  0.00    +0.161 A 
ATOM      8  O   UNL     1      44.720  17.305  19.547  0.00  0.00    -0.293 OA
ATOM      9  C   UNL     1      45.722  16.374  19.125  0.00  0.00    +0.266 C 
ATOM     10  C   UNL     1      46.165  16.732  17.706  0.00  0.00    +0.017 C 
ATOM     11  C   UNL     1      47.398  15.934  17.360  0.00  0.00    -0.177 A 
ATOM     12  C   UNL     1      47.502  14.613  16.953  0.00  0.00    +0.123 A 
ATOM     13  C   UNL     1      48.806  14.183  16.698  0.00  0.00    -0.003 A 
ATOM     14  C   UNL     1      49.915  15.027  16.847  0.00  0.00    +0.072 A 
ATOM     15  O   UNL     1      51.034  14.333  16.530  0.00  0.00    -0.303 OA
ATOM     16  C   UNL     1      50.577  13.173  15.805  0.00  0.00    +0.434 C 
ATOM     17  C   UNL     1      49.803  16.354  17.259  0.00  0.00    +0.042 A 
ATOM     18  O   UNL     1      49.233  12.968  16.284  0.00  0.00    -0.304 OA
ATOM     19  C   UNL     1      48.495  16.787  17.515  0.00  0.00    +0.124 A 
ATOM     20  O   UNL     1      48.106  18.014  17.932  0.00  0.00    -0.285 OA
ATOM     21  C   UNL     1      46.702  18.173  17.659  0.00  0.00    +0.247 C 
ATOM     22  C   UNL     1      44.534  19.476  20.491  0.00  0.00    +0.034 A 
ENDROOT
BRANCH   3   2
ATOM      1  C   UNL     1      44.786  23.025  21.379  0.00  0.00    +0.247 C 
ATOM      2  O   UNL     1      44.376  21.657  21.439  0.00  0.00    -0.300 OA
ENDBRANCH   3   2
BRANCH  22  23
ATOM     23  O   UNL     1      43.585  19.020  21.353  0.00  0.00    -0.311 OA
ATOM     24  C   UNL     1      42.227  19.071  20.910  0.00  0.00    +0.220 C 
ENDBRANCH  22  23
TORSDOF 2
ENDMDL
MODEL 5
REMARK VINA RESULT:      -5.4      1.622      7.629
REMARK  Name = ZINC14763429
REMARK  4 active torsions:
REMARK  status: ('A' for Active; 'I' for Inactive)
REMARK    1  A    between atoms: C1_1  and  O1_2
REMARK    2  A    between atoms: O1_2  and  C2_3
REMARK    3  A    between atoms: C7_8  and  O2_9
REMARK    4  A    between atoms: O2_9  and  C8_10
REMARK                            x       y       z     vdW  Elec       q    Type
REMARK                         _______ _______ _______ _____ _____    ______ ____
ROOT
ATOM      3  C   UNL     1      42.811  21.354  19.215  0.00  0.00    +0.155 A 
ATOM      4  C   UNL     1      42.745  20.026  18.819  0.00  0.00    -0.085 A 
ATOM      5  C   UNL     1      43.855  19.215  18.923  0.00  0.00    +0.114 A 
ATOM      6  C   UNL     1      45.052  19.712  19.425  0.00  0.00    -0.193 A 
ATOM      7  C   UNL     1      45.121  21.039  19.814  0.00  0.00    +0.161 A 
ATOM      8  O   UNL     1      46.288  21.555  20.287  0.00  0.00    -0.293 OA
ATOM      9  C   UNL     1      47.480  20.959  19.765  0.00  0.00    +0.266 C 
ATOM     10  C   UNL     1      47.477  19.467  20.104  0.00  0.00    +0.017 C 
ATOM     11  C   UNL     1      48.581  18.785  19.334  0.00  0.00    -0.177 A 
ATOM     12  C   UNL     1      49.941  18.743  19.602  0.00  0.00    +0.123 A 
ATOM     13  C   UNL     1      50.691  18.006  18.684  0.00  0.00    -0.003 A 
ATOM     14  C   UNL     1      50.109  17.366  17.582  0.00  0.00    +0.072 A 
ATOM     15  O   UNL     1      51.082  16.737  16.881  0.00  0.00    -0.303 OA
ATOM     16  C   UNL     1      52.213  16.662  17.772  0.00  0.00    +0.434 C 
ATOM     17  C   UNL     1      48.741  17.415  17.317  0.00  0.00    +0.042 A 
ATOM     18  O   UNL     1      52.025  17.772  18.672  0.00  0.00    -0.304 OA
ATOM     19  C   UNL     1      47.986  18.154  18.237  0.00  0.00    +0.124 A 
ATOM     20  O   UNL     1      46.650  18.369  18.214  0.00  0.00    -0.285 OA
ATOM     21  C   UNL     1      46.225  18.787  19.524  0.00  0.00    +0.247 C 
ATOM     22  C   UNL     1      44.004  21.861  19.714  0.00  0.00    +0.034 A 
ENDROOT
BRANCH   3   2
ATOM      1  C   UNL     1      40.484  21.526  18.755  0.00  0.00    +0.247 C 
ATOM      2  O   UNL     1      41.716  22.155  19.115  0.00  0.00    -0.300 OA
ENDBRANCH   3   2
BRANCH  22  23
ATOM     23  O   UNL     1      44.080  23.162  20.106  0.00  0.00    -0.311 OA
ATOM     24  C   UNL     1      44.515  24.111  19.131  0.00  0.00    +0.220 C 
ENDBRANCH  22  23
TORSDOF 2
ENDMDL
MODEL 6
REMARK VINA RESULT:      -5.3      1.648      2.847
REMARK  Name = ZINC14763429
REMARK  4 active torsions:
REMARK  status: ('A' for Active; 'I' for Inactive)
REMARK    1  A    between atoms: C1_1  and  O1_2
REMARK    2  A    between atoms: O1_2  and  C2_3
REMARK    3  A    between atoms: C7_8  and  O2_9
REMARK    4  A    between atoms: O2_9  and  C8_10
REMARK                            x       y       z     vdW  Elec       q    Type
REMARK                         _______ _______ _______ _____ _____    ______ ____
ROOT
ATOM      3  C   UNL     1      51.397  17.721  19.622  0.00  0.00    +0.155 A 
ATOM      4  C   UNL     1      50.573  16.611  19.505  0.00  0.00    -0.085 A 
ATOM      5  C   UNL     1      49.240  16.768  19.191  0.00  0.00    +0.114 A 
ATOM      6  C   UNL     1      48.703  18.033  18.990  0.00  0.00    -0.193 A 
ATOM      7  C   UNL     1      49.522  19.142  19.114  0.00  0.00    +0.161 A 
ATOM      8  O   UNL     1      49.015  20.393  18.942  0.00  0.00    -0.293 OA
ATOM      9  C   UNL     1      47.637  20.551  19.295  0.00  0.00    +0.266 C 
ATOM     10  C   UNL     1      46.795  19.603  18.440  0.00  0.00    +0.017 C 
ATOM     11  C   UNL     1      45.389  19.564  18.986  0.00  0.00    -0.177 A 
ATOM     12  C   UNL     1      44.357  20.475  18.817  0.00  0.00    +0.123 A 
ATOM     13  C   UNL     1      43.165  20.128  19.455  0.00  0.00    -0.003 A 
ATOM     14  C   UNL     1      43.032  18.952  20.207  0.00  0.00    +0.072 A 
ATOM     15  O   UNL     1      41.772  18.892  20.699  0.00  0.00    -0.303 OA
ATOM     16  C   UNL     1      41.008  19.837  19.923  0.00  0.00    +0.434 C 
ATOM     17  C   UNL     1      44.075  18.042  20.375  0.00  0.00    +0.042 A 
ATOM     18  O   UNL     1      41.987  20.795  19.475  0.00  0.00    -0.304 OA
ATOM     19  C   UNL     1      45.272  18.389  19.735  0.00  0.00    +0.124 A 
ATOM     20  O   UNL     1      46.434  17.695  19.740  0.00  0.00    -0.285 OA
ATOM     21  C   UNL     1      47.250  18.147  18.644  0.00  0.00    +0.247 C 
ATOM     22  C   UNL     1      50.869  18.990  19.426  0.00  0.00    +0.034 A 
ENDROOT
BRANCH   3   2
ATOM      1  C   UNL     1      53.449  16.606  19.170  0.00  0.00    +0.247 C 
ATOM      2  O   UNL     1      52.713  17.568  19.929  0.00  0.00    -0.300 OA
ENDBRANCH   3   2
BRANCH  22  23
ATOM     23  O   UNL     1      51.669  20.086  19.538  0.00  0.00    -0.311 OA
ATOM     24  C   UNL     1      52.368  20.503  18.364  0.00  0.00    +0.220 C 
ENDBRANCH  22  23
TORSDOF 2
ENDMDL
MODEL 7
REMARK VINA RESULT:      -5.2      3.466      5.063
REMARK  Name = ZINC14763429
REMARK  4 active torsions:
REMARK  status: ('A' for Active; 'I' for Inactive)
REMARK    1  A    between atoms: C1_1  and  O1_2
REMARK    2  A    between atoms: O1_2  and  C2_3
REMARK    3  A    between atoms: C7_8  and  O2_9
REMARK    4  A    between atoms: O2_9  and  C8_10
REMARK                            x       y       z     vdW  Elec       q    Type
REMARK                         _______ _______ _______ _____ _____    ______ ____
ROOT
ATOM      3  C   UNL     1      46.900  13.271  18.545  0.00  0.00    +0.155 A 
ATOM      4  C   UNL     1      46.148  13.436  19.700  0.00  0.00    -0.085 A 
ATOM      5  C   UNL     1      45.568  14.655  19.980  0.00  0.00    +0.114 A 
ATOM      6  C   UNL     1      45.726  15.731  19.115  0.00  0.00    -0.193 A 
ATOM      7  C   UNL     1      46.482  15.569  17.967  0.00  0.00    +0.161 A 
ATOM      8  O   UNL     1      46.669  16.614  17.116  0.00  0.00    -0.293 OA
ATOM      9  C   UNL     1      46.665  17.910  17.723  0.00  0.00    +0.266 C 
ATOM     10  C   UNL     1      45.319  18.129  18.414  0.00  0.00    +0.017 C 
ATOM     11  C   UNL     1      45.403  19.364  19.278  0.00  0.00    -0.177 A 
ATOM     12  C   UNL     1      45.320  20.698  18.910  0.00  0.00    +0.123 A 
ATOM     13  C   UNL     1      45.427  21.601  19.970  0.00  0.00    -0.003 A 
ATOM     14  C   UNL     1      45.606  21.182  21.295  0.00  0.00    +0.072 A 
ATOM     15  O   UNL     1      45.674  22.277  22.090  0.00  0.00    -0.303 OA
ATOM     16  C   UNL     1      45.140  23.360  21.302  0.00  0.00    +0.434 C 
ATOM     17  C   UNL     1      45.692  19.839  21.657  0.00  0.00    +0.042 A 
ATOM     18  O   UNL     1      45.378  22.953  19.940  0.00  0.00    -0.304 OA
ATOM     19  C   UNL     1      45.585  18.931  20.595  0.00  0.00    +0.124 A 
ATOM     20  O   UNL     1      45.641  17.581  20.663  0.00  0.00    -0.285 OA
ATOM     21  C   UNL     1      45.068  17.031  19.463  0.00  0.00    +0.247 C 
ATOM     22  C   UNL     1      47.067  14.341  17.677  0.00  0.00    +0.034 A 
ENDROOT
BRANCH   3   2
ATOM      1  C   UNL     1      48.546  11.649  19.111  0.00  0.00    +0.247 C 
ATOM      2  O   UNL     1      47.471  12.068  18.267  0.00  0.00    -0.300 OA
ENDBRANCH   3   2
BRANCH  22  23
ATOM     23  O   UNL     1      47.802  14.189  16.541  0.00  0.00    -0.311 OA
ATOM     24  C   UNL     1      49.208  14.419  16.642  0.00  0.00    +0.220 C 
ENDBRANCH  22  23
TORSDOF 2
ENDMDL
MODEL 8
REMARK VINA RESULT:      -5.1      3.181      7.408
REMARK  Name = ZINC14763429
REMARK  4 active torsions:
REMARK  status: ('A' for Active; 'I' for Inactive)
REMARK    1  A    between atoms: C1_1  and  O1_2
REMARK    2  A    between atoms: O1_2  and  C2_3
REMARK    3  A    between atoms: C7_8  and  O2_9
REMARK    4  A    between atoms: O2_9  and  C8_10
REMARK                            x       y       z     vdW  Elec       q    Type
REMARK                         _______ _______ _______ _____ _____    ______ ____
ROOT
ATOM      3  C   UNL     1      42.728  21.024  19.511  0.00  0.00    +0.155 A 
ATOM      4  C   UNL     1      42.046  19.868  19.864  0.00  0.00    -0.085 A 
ATOM      5  C   UNL     1      42.742  18.750  20.271  0.00  0.00    +0.114 A 
ATOM      6  C   UNL     1      44.130  18.762  20.335  0.00  0.00    -0.193 A 
ATOM      7  C   UNL     1      44.811  19.912  19.976  0.00  0.00    +0.161 A 
ATOM      8  O   UNL     1      46.171  19.942  20.009  0.00  0.00    -0.293 OA
ATOM      9  C   UNL     1      46.820  18.690  19.764  0.00  0.00    +0.266 C 
ATOM     10  C   UNL     1      46.366  17.683  20.822  0.00  0.00    +0.017 C 
ATOM     11  C   UNL     1      46.827  16.303  20.418  0.00  0.00    -0.177 A 
ATOM     12  C   UNL     1      48.080  15.725  20.546  0.00  0.00    +0.123 A 
ATOM     13  C   UNL     1      48.165  14.412  20.076  0.00  0.00    -0.003 A 
ATOM     14  C   UNL     1      47.067  13.743  19.520  0.00  0.00    +0.072 A 
ATOM     15  O   UNL     1      47.455  12.497  19.158  0.00  0.00    -0.303 OA
ATOM     16  C   UNL     1      48.696  12.262  19.855  0.00  0.00    +0.434 C 
ATOM     17  C   UNL     1      45.810  14.333  19.391  0.00  0.00    +0.042 A 
ATOM     18  O   UNL     1      49.234  13.582  20.067  0.00  0.00    -0.304 OA
ATOM     19  C   UNL     1      45.723  15.649  19.862  0.00  0.00    +0.124 A 
ATOM     20  O   UNL     1      44.632  16.452  19.852  0.00  0.00    -0.285 OA
ATOM     21  C   UNL     1      44.836  17.523  20.791  0.00  0.00    +0.247 C 
ATOM     22  C   UNL     1      44.115  21.045  19.567  0.00  0.00    +0.034 A 
ENDROOT
BRANCH   3   2
ATOM      1  C   UNL     1      40.767  21.915  18.502  0.00  0.00    +0.247 C 
ATOM      2  O   UNL     1      42.042  22.128  19.111  0.00  0.00    -0.300 OA
ENDBRANCH   3   2
BRANCH  22  23
ATOM     23  O   UNL     1      44.794  22.173  19.224  0.00  0.00    -0.311 OA
ATOM     24  C   UNL     1      45.043  23.123  20.263  0.00  0.00    +0.220 C 
ENDBRANCH  22  23
TORSDOF 2
ENDMDL
MODEL 9
REMARK VINA RESULT:      -5.1      3.314      8.121
REMARK  Name = ZINC14763429
REMARK  4 active torsions:
REMARK  status: ('A' for Active; 'I' for Inactive)
REMARK    1  A    between atoms: C1_1  and  O1_2
REMARK    2  A    between atoms: O1_2  and  C2_3
REMARK    3  A    between atoms: C7_8  and  O2_9
REMARK    4  A    between atoms: O2_9  and  C8_10
REMARK                            x       y       z     vdW  Elec       q    Type
REMARK                         _______ _______ _______ _____ _____    ______ ____
ROOT
ATOM      3  C   UNL     1      44.874  18.741  19.525  0.00  0.00    +0.155 A 
ATOM      4  C   UNL     1      45.583  19.109  18.390  0.00  0.00    -0.085 A 
ATOM      5  C   UNL     1      46.220  18.152  17.631  0.00  0.00    +0.114 A 
ATOM      6  C   UNL     1      46.164  16.810  17.988  0.00  0.00    -0.193 A 
ATOM      7  C   UNL     1      45.464  16.443  19.124  0.00  0.00    +0.161 A 
ATOM      8  O   UNL     1      45.412  15.138  19.506  0.00  0.00    -0.293 OA
ATOM      9  C   UNL     1      46.552  14.348  19.152  0.00  0.00    +0.266 C 
ATOM     10  C   UNL     1      46.714  14.365  17.632  0.00  0.00    +0.017 C 
ATOM     11  C   UNL     1      48.052  13.769  17.271  0.00  0.00    -0.177 A 
ATOM     12  C   UNL     1      48.428  12.437  17.198  0.00  0.00    +0.123 A 
ATOM     13  C   UNL     1      49.755  12.226  16.819  0.00  0.00    -0.003 A 
ATOM     14  C   UNL     1      50.631  13.284  16.540  0.00  0.00    +0.072 A 
ATOM     15  O   UNL     1      51.838  12.770  16.204  0.00  0.00    -0.303 OA
ATOM     16  C   UNL     1      51.595  11.384  15.892  0.00  0.00    +0.434 C 
ATOM     17  C   UNL     1      50.247  14.622  16.619  0.00  0.00    +0.042 A 
ATOM     18  O   UNL     1      50.414  11.056  16.652  0.00  0.00    -0.304 OA
ATOM     19  C   UNL     1      48.916  14.835  16.999  0.00  0.00    +0.124 A 
ATOM     20  O   UNL     1      48.290  16.025  17.159  0.00  0.00    -0.285 OA
ATOM     21  C   UNL     1      46.868  15.809  17.123  0.00  0.00    +0.247 C 
ATOM     22  C   UNL     1      44.815  17.404  19.892  0.00  0.00    +0.034 A 
ENDROOT
BRANCH   3   2
ATOM      1  C   UNL     1      43.588  20.742  19.570  0.00  0.00    +0.247 C 
ATOM      2  O   UNL     1      44.243  19.685  20.274  0.00  0.00    -0.300 OA
ENDBRANCH   3   2
BRANCH  22  23
ATOM     23  O   UNL     1      44.123  17.032  21.003  0.00  0.00    -0.311 OA
ATOM     24  C   UNL     1      44.842  17.000  22.237  0.00  0.00    +0.220 C 
ENDBRANCH  22  23
TORSDOF 2
ENDMDL
