MODEL 1
REMARK VINA RESULT:      -6.2      0.000      0.000
REMARK  Name = ZINC95486284
REMARK  11 active torsions:
REMARK  status: ('A' for Active; 'I' for Inactive)
REMARK    1  A    between atoms: C1_1  and  C2_2
REMARK    2  A    between atoms: C4_4  and  O2_9
REMARK    3  A    between atoms: C7_7  and  O1_8
REMARK    4  A    between atoms: O2_9  and  C8_10
REMARK    5  A    between atoms: C9_11  and  O7_26
REMARK    6  A    between atoms: C12_15  and  O6_25
REMARK    7  A    between atoms: C13_16  and  C19_24
REMARK    8  A    between atoms: C14_17  and  O5_22
REMARK    9  A    between atoms: C15_18  and  C17_21
REMARK   10  A    between atoms: O5_22  and  C18_23
REMARK   11  A    between atoms: O7_26  and  C20_27
REMARK                            x       y       z     vdW  Elec       q    Type
REMARK                         _______ _______ _______ _____ _____    ______ ____
ROOT
ATOM      6  C   UNL     1      46.386  18.913  19.957  0.00  0.00    +0.226 A 
ATOM      7  C   UNL     1      46.054  17.735  19.368  0.00  0.00    -0.080 A 
ATOM     10  C   UNL     1      46.971  17.111  18.491  0.00  0.00    +0.441 A 
ATOM     11  C   UNL     1      48.259  17.787  18.263  0.00  0.00    -0.245 A 
ATOM     12  C   UNL     1      49.227  17.242  17.411  0.00  0.00    +0.213 A 
ATOM     15  C   UNL     1      50.422  17.909  17.224  0.00  0.00    -0.153 A 
ATOM     16  C   UNL     1      51.472  17.331  16.309  0.00  0.00    +0.121 C 
ATOM     17  C   UNL     1      50.662  19.113  17.878  0.00  0.00    +0.174 A 
ATOM     20  C   UNL     1      49.708  19.658  18.723  0.00  0.00    -0.131 A 
ATOM     21  C   UNL     1      49.981  20.964  19.425  0.00  0.00    +0.121 C 
ATOM     22  C   UNL     1      48.501  19.004  18.923  0.00  0.00    +0.181 A 
ATOM     23  O   UNL     1      46.706  16.050  17.944  0.00  0.00    -0.427 OA
ATOM     24  O   UNL     1      47.560  19.523  19.738  0.00  0.00    -0.229 OA
ENDROOT
BRANCH   7   8
ATOM      8  O   UNL     1      44.845  17.157  19.621  0.00  0.00    -0.285 OA
ATOM      9  C   UNL     1      44.784  16.231  20.708  0.00  0.00    +0.258 C 
ENDBRANCH   7   8
BRANCH  12  13
ATOM     13  O   UNL     1      48.993  16.066  16.775  0.00  0.00    -0.467 OA
ATOM     14  H   UNL     1      48.854  16.157  15.822  0.00  0.00    +0.402 HD
ENDBRANCH  12  13
BRANCH  17  18
ATOM     18  O   UNL     1      51.840  19.760  17.688  0.00  0.00    -0.325 OA
ATOM     19  C   UNL     1      51.891  20.714  16.625  0.00  0.00    +0.241 C 
ENDBRANCH  17  18
BRANCH   6   5
ATOM      5  O   UNL     1      45.496  19.496  20.791  0.00  0.00    -0.205 OA
BRANCH   5   4
ATOM      1  C   UNL     1      41.502  21.502  18.830  0.00  0.00    +0.109 C 
ATOM      2  C   UNL     1      42.895  21.622  19.392  0.00  0.00    -0.097 A 
ATOM      3  C   UNL     1      43.559  20.495  19.836  0.00  0.00    +0.045 A 
ATOM      4  C   UNL     1      44.842  20.605  20.353  0.00  0.00    +0.047 A 
ATOM     25  C   UNL     1      45.458  21.847  20.425  0.00  0.00    +0.030 A 
ATOM     26  C   UNL     1      44.793  22.973  19.980  0.00  0.00    +0.013 A 
ATOM     27  C   UNL     1      43.513  22.862  19.457  0.00  0.00    +0.119 A 
BRANCH  27  28
ATOM     28  O   UNL     1      42.861  23.970  19.014  0.00  0.00    -0.491 OA
ATOM     29  H   UNL     1      41.950  24.042  19.328  0.00  0.00    +0.394 HD
ENDBRANCH  27  28
ENDBRANCH   5   4
ENDBRANCH   6   5
TORSDOF 6
ENDMDL
MODEL 2
REMARK VINA RESULT:      -5.8      2.104      5.562
REMARK  Name = ZINC95486284
REMARK  11 active torsions:
REMARK  status: ('A' for Active; 'I' for Inactive)
REMARK    1  A    between atoms: C1_1  and  C2_2
REMARK    2  A    between atoms: C4_4  and  O2_9
REMARK    3  A    between atoms: C7_7  and  O1_8
REMARK    4  A    between atoms: O2_9  and  C8_10
REMARK    5  A    between atoms: C9_11  and  O7_26
REMARK    6  A    between atoms: C12_15  and  O6_25
REMARK    7  A    between atoms: C13_16  and  C19_24
REMARK    8  A    between atoms: C14_17  and  O5_22
REMARK    9  A    between atoms: C15_18  and  C17_21
REMARK   10  A    between atoms: O5_22  and  C18_23
REMARK   11  A    between atoms: O7_26  and  C20_27
REMARK                            x       y       z     vdW  Elec       q    Type
REMARK                         _______ _______ _______ _____ _____    ______ ____
ROOT
ATOM      6  C   UNL     1      47.376  19.304  19.889  0.00  0.00    +0.226 A 
ATOM      7  C   UNL     1      46.285  18.912  20.598  0.00  0.00    -0.080 A 
ATOM     10  C   UNL     1      45.733  17.629  20.374  0.00  0.00    +0.441 A 
ATOM     11  C   UNL     1      46.385  16.777  19.366  0.00  0.00    -0.245 A 
ATOM     12  C   UNL     1      45.906  15.492  19.079  0.00  0.00    +0.213 A 
ATOM     15  C   UNL     1      46.547  14.724  18.126  0.00  0.00    -0.153 A 
ATOM     16  C   UNL     1      46.040  13.340  17.809  0.00  0.00    +0.121 C 
ATOM     17  C   UNL     1      47.660  15.224  17.457  0.00  0.00    +0.174 A 
ATOM     20  C   UNL     1      48.139  16.494  17.737  0.00  0.00    -0.131 A 
ATOM     21  C   UNL     1      49.346  17.022  17.003  0.00  0.00    +0.121 C 
ATOM     22  C   UNL     1      47.509  17.280  18.689  0.00  0.00    +0.181 A 
ATOM     23  O   UNL     1      44.752  17.243  20.993  0.00  0.00    -0.427 OA
ATOM     24  O   UNL     1      47.959  18.521  18.970  0.00  0.00    -0.229 OA
ENDROOT
BRANCH   7   8
ATOM      8  O   UNL     1      45.727  19.748  21.518  0.00  0.00    -0.285 OA
ATOM      9  C   UNL     1      44.658  20.585  21.069  0.00  0.00    +0.258 C 
ENDBRANCH   7   8
BRANCH  12  13
ATOM     13  O   UNL     1      44.821  15.005  19.733  0.00  0.00    -0.467 OA
ATOM     14  H   UNL     1      44.255  14.441  19.189  0.00  0.00    +0.402 HD
ENDBRANCH  12  13
BRANCH  17  18
ATOM     18  O   UNL     1      48.283  14.461  16.523  0.00  0.00    -0.325 OA
ATOM     19  C   UNL     1      49.354  13.629  16.975  0.00  0.00    +0.241 C 
ENDBRANCH  17  18
BRANCH   6   5
ATOM      5  O   UNL     1      47.890  20.534  20.115  0.00  0.00    -0.205 OA
BRANCH   5   4
ATOM      1  C   UNL     1      51.425  21.229  16.822  0.00  0.00    +0.109 C 
ATOM      2  C   UNL     1      50.966  21.080  18.251  0.00  0.00    -0.097 A 
ATOM      3  C   UNL     1      49.629  20.874  18.527  0.00  0.00    +0.045 A 
ATOM      4  C   UNL     1      49.206  20.736  19.842  0.00  0.00    +0.047 A 
ATOM     25  C   UNL     1      50.127  20.806  20.878  0.00  0.00    +0.030 A 
ATOM     26  C   UNL     1      51.464  21.012  20.600  0.00  0.00    +0.013 A 
ATOM     27  C   UNL     1      51.887  21.143  19.285  0.00  0.00    +0.119 A 
BRANCH  27  28
ATOM     28  O   UNL     1      53.205  21.340  19.012  0.00  0.00    -0.491 OA
ATOM     29  H   UNL     1      53.780  20.624  19.313  0.00  0.00    +0.394 HD
ENDBRANCH  27  28
ENDBRANCH   5   4
ENDBRANCH   6   5
TORSDOF 6
ENDMDL
MODEL 3
REMARK VINA RESULT:      -5.7      1.664      6.509
REMARK  Name = ZINC95486284
REMARK  11 active torsions:
REMARK  status: ('A' for Active; 'I' for Inactive)
REMARK    1  A    between atoms: C1_1  and  C2_2
REMARK    2  A    between atoms: C4_4  and  O2_9
REMARK    3  A    between atoms: C7_7  and  O1_8
REMARK    4  A    between atoms: O2_9  and  C8_10
REMARK    5  A    between atoms: C9_11  and  O7_26
REMARK    6  A    between atoms: C12_15  and  O6_25
REMARK    7  A    between atoms: C13_16  and  C19_24
REMARK    8  A    between atoms: C14_17  and  O5_22
REMARK    9  A    between atoms: C15_18  and  C17_21
REMARK   10  A    between atoms: O5_22  and  C18_23
REMARK   11  A    between atoms: O7_26  and  C20_27
REMARK                            x       y       z     vdW  Elec       q    Type
REMARK                         _______ _______ _______ _____ _____    ______ ____
ROOT
ATOM      6  C   UNL     1      48.930  18.148  19.952  0.00  0.00    +0.226 A 
ATOM      7  C   UNL     1      48.407  16.897  19.862  0.00  0.00    -0.080 A 
ATOM     10  C   UNL     1      47.009  16.716  19.982  0.00  0.00    +0.441 A 
ATOM     11  C   UNL     1      46.186  17.917  20.202  0.00  0.00    -0.245 A 
ATOM     12  C   UNL     1      44.795  17.832  20.332  0.00  0.00    +0.213 A 
ATOM     15  C   UNL     1      44.059  18.983  20.538  0.00  0.00    -0.153 A 
ATOM     16  C   UNL     1      42.560  18.903  20.680  0.00  0.00    +0.121 C 
ATOM     17  C   UNL     1      44.697  20.217  20.613  0.00  0.00    +0.174 A 
ATOM     20  C   UNL     1      46.073  20.308  20.485  0.00  0.00    -0.131 A 
ATOM     21  C   UNL     1      46.750  21.653  20.570  0.00  0.00    +0.121 C 
ATOM     22  C   UNL     1      46.829  19.164  20.279  0.00  0.00    +0.181 A 
ATOM     23  O   UNL     1      46.504  15.606  19.906  0.00  0.00    -0.427 OA
ATOM     24  O   UNL     1      48.171  19.234  20.157  0.00  0.00    -0.229 OA
ENDROOT
BRANCH   7   8
ATOM      8  O   UNL     1      49.222  15.825  19.657  0.00  0.00    -0.285 OA
ATOM      9  C   UNL     1      49.324  15.334  18.318  0.00  0.00    +0.258 C 
ENDBRANCH   7   8
BRANCH  12  13
ATOM     13  O   UNL     1      44.174  16.628  20.256  0.00  0.00    -0.467 OA
ATOM     14  H   UNL     1      43.831  16.308  21.103  0.00  0.00    +0.402 HD
ENDBRANCH  12  13
BRANCH  17  18
ATOM     18  O   UNL     1      43.964  21.342  20.815  0.00  0.00    -0.325 OA
ATOM     19  C   UNL     1      43.544  22.059  19.652  0.00  0.00    +0.241 C 
ENDBRANCH  17  18
BRANCH   6   5
ATOM      5  O   UNL     1      50.268  18.302  19.836  0.00  0.00    -0.205 OA
BRANCH   5   4
ATOM      1  C   UNL     1      52.213  18.737  15.380  0.00  0.00    +0.109 C 
ATOM      2  C   UNL     1      51.689  19.349  16.655  0.00  0.00    -0.097 A 
ATOM      3  C   UNL     1      51.216  18.537  17.666  0.00  0.00    +0.045 A 
ATOM      4  C   UNL     1      50.735  19.101  18.840  0.00  0.00    +0.047 A 
ATOM     25  C   UNL     1      50.729  20.480  18.996  0.00  0.00    +0.030 A 
ATOM     26  C   UNL     1      51.203  21.291  17.983  0.00  0.00    +0.013 A 
ATOM     27  C   UNL     1      51.690  20.727  16.813  0.00  0.00    +0.119 A 
BRANCH  27  28
ATOM     28  O   UNL     1      52.161  21.526  15.818  0.00  0.00    -0.491 OA
ATOM     29  H   UNL     1      51.781  21.339  14.950  0.00  0.00    +0.394 HD
ENDBRANCH  27  28
ENDBRANCH   5   4
ENDBRANCH   6   5
TORSDOF 6
ENDMDL
MODEL 4
REMARK VINA RESULT:      -5.7      1.966      6.562
REMARK  Name = ZINC95486284
REMARK  11 active torsions:
REMARK  status: ('A' for Active; 'I' for Inactive)
REMARK    1  A    between atoms: C1_1  and  C2_2
REMARK    2  A    between atoms: C4_4  and  O2_9
REMARK    3  A    between atoms: C7_7  and  O1_8
REMARK    4  A    between atoms: O2_9  and  C8_10
REMARK    5  A    between atoms: C9_11  and  O7_26
REMARK    6  A    between atoms: C12_15  and  O6_25
REMARK    7  A    between atoms: C13_16  and  C19_24
REMARK    8  A    between atoms: C14_17  and  O5_22
REMARK    9  A    between atoms: C15_18  and  C17_21
REMARK   10  A    between atoms: O5_22  and  C18_23
REMARK   11  A    between atoms: O7_26  and  C20_27
REMARK                            x       y       z     vdW  Elec       q    Type
REMARK                         _______ _______ _______ _____ _____    ______ ____
ROOT
ATOM      6  C   UNL     1      48.034  17.329  19.279  0.00  0.00    +0.226 A 
ATOM      7  C   UNL     1      47.720  16.256  20.051  0.00  0.00    -0.080 A 
ATOM     10  C   UNL     1      46.465  16.210  20.703  0.00  0.00    +0.441 A 
ATOM     11  C   UNL     1      45.555  17.348  20.503  0.00  0.00    -0.245 A 
ATOM     12  C   UNL     1      44.293  17.387  21.109  0.00  0.00    +0.213 A 
ATOM     15  C   UNL     1      43.468  18.475  20.896  0.00  0.00    -0.153 A 
ATOM     16  C   UNL     1      42.108  18.527  21.544  0.00  0.00    +0.121 C 
ATOM     17  C   UNL     1      43.889  19.523  20.084  0.00  0.00    +0.174 A 
ATOM     20  C   UNL     1      45.136  19.491  19.481  0.00  0.00    -0.131 A 
ATOM     21  C   UNL     1      45.578  20.636  18.604  0.00  0.00    +0.121 C 
ATOM     22  C   UNL     1      45.978  18.409  19.683  0.00  0.00    +0.181 A 
ATOM     23  O   UNL     1      46.150  15.260  21.405  0.00  0.00    -0.427 OA
ATOM     24  O   UNL     1      47.198  18.364  19.108  0.00  0.00    -0.229 OA
ENDROOT
BRANCH   7   8
ATOM      8  O   UNL     1      48.607  15.232  20.196  0.00  0.00    -0.285 OA
ATOM      9  C   UNL     1      48.484  14.134  19.289  0.00  0.00    +0.258 C 
ENDBRANCH   7   8
BRANCH  12  13
ATOM     13  O   UNL     1      43.883  16.363  21.900  0.00  0.00    -0.467 OA
ATOM     14  H   UNL     1      42.923  16.300  21.995  0.00  0.00    +0.402 HD
ENDBRANCH  12  13
BRANCH  17  18
ATOM     18  O   UNL     1      43.070  20.587  19.881  0.00  0.00    -0.325 OA
ATOM     19  C   UNL     1      42.159  20.503  18.783  0.00  0.00    +0.241 C 
ENDBRANCH  17  18
BRANCH   6   5
ATOM      5  O   UNL     1      49.238  17.358  18.664  0.00  0.00    -0.205 OA
BRANCH   5   4
ATOM      1  C   UNL     1      51.464  21.151  16.548  0.00  0.00    +0.109 C 
ATOM      2  C   UNL     1      51.092  20.359  17.776  0.00  0.00    -0.097 A 
ATOM      3  C   UNL     1      50.330  19.215  17.653  0.00  0.00    +0.045 A 
ATOM      4  C   UNL     1      49.988  18.485  18.784  0.00  0.00    +0.047 A 
ATOM     25  C   UNL     1      50.413  18.906  20.036  0.00  0.00    +0.030 A 
ATOM     26  C   UNL     1      51.176  20.051  20.157  0.00  0.00    +0.013 A 
ATOM     27  C   UNL     1      51.522  20.777  19.026  0.00  0.00    +0.119 A 
BRANCH  27  28
ATOM     28  O   UNL     1      52.278  21.901  19.146  0.00  0.00    -0.491 OA
ATOM     29  H   UNL     1      52.516  22.306  18.301  0.00  0.00    +0.394 HD
ENDBRANCH  27  28
ENDBRANCH   5   4
ENDBRANCH   6   5
TORSDOF 6
ENDMDL
MODEL 5
REMARK VINA RESULT:      -5.7      3.804      7.102
REMARK  Name = ZINC95486284
REMARK  11 active torsions:
REMARK  status: ('A' for Active; 'I' for Inactive)
REMARK    1  A    between atoms: C1_1  and  C2_2
REMARK    2  A    between atoms: C4_4  and  O2_9
REMARK    3  A    between atoms: C7_7  and  O1_8
REMARK    4  A    between atoms: O2_9  and  C8_10
REMARK    5  A    between atoms: C9_11  and  O7_26
REMARK    6  A    between atoms: C12_15  and  O6_25
REMARK    7  A    between atoms: C13_16  and  C19_24
REMARK    8  A    between atoms: C14_17  and  O5_22
REMARK    9  A    between atoms: C15_18  and  C17_21
REMARK   10  A    between atoms: O5_22  and  C18_23
REMARK   11  A    between atoms: O7_26  and  C20_27
REMARK                            x       y       z     vdW  Elec       q    Type
REMARK                         _______ _______ _______ _____ _____    ______ ____
ROOT
ATOM      6  C   UNL     1      50.089  15.916  18.119  0.00  0.00    +0.226 A 
ATOM      7  C   UNL     1      48.793  16.014  18.515  0.00  0.00    -0.080 A 
ATOM     10  C   UNL     1      47.821  15.164  17.938  0.00  0.00    +0.441 A 
ATOM     11  C   UNL     1      48.279  14.203  16.921  0.00  0.00    -0.245 A 
ATOM     12  C   UNL     1      47.386  13.323  16.297  0.00  0.00    +0.213 A 
ATOM     15  C   UNL     1      47.857  12.437  15.347  0.00  0.00    -0.153 A 
ATOM     16  C   UNL     1      46.904  11.485  14.668  0.00  0.00    +0.121 C 
ATOM     17  C   UNL     1      49.208  12.419  15.014  0.00  0.00    +0.174 A 
ATOM     20  C   UNL     1      50.096  13.287  15.628  0.00  0.00    -0.131 A 
ATOM     21  C   UNL     1      51.557  13.256  15.257  0.00  0.00    +0.121 C 
ATOM     22  C   UNL     1      49.643  14.184  16.583  0.00  0.00    +0.181 A 
ATOM     23  O   UNL     1      46.646  15.225  18.270  0.00  0.00    -0.427 OA
ATOM     24  O   UNL     1      50.494  15.040  17.188  0.00  0.00    -0.229 OA
ENDROOT
BRANCH   7   8
ATOM      8  O   UNL     1      48.432  16.925  19.463  0.00  0.00    -0.285 OA
ATOM      9  C   UNL     1      47.831  18.137  19.001  0.00  0.00    +0.258 C 
ENDBRANCH   7   8
BRANCH  12  13
ATOM     13  O   UNL     1      46.069  13.340  16.623  0.00  0.00    -0.467 OA
ATOM     14  H   UNL     1      45.518  13.837  16.003  0.00  0.00    +0.402 HD
ENDBRANCH  12  13
BRANCH  17  18
ATOM     18  O   UNL     1      49.660  11.543  14.080  0.00  0.00    -0.325 OA
ATOM     19  C   UNL     1      50.126  10.277  14.551  0.00  0.00    +0.241 C 
ENDBRANCH  17  18
BRANCH   6   5
ATOM      5  O   UNL     1      51.004  16.737  18.680  0.00  0.00    -0.205 OA
BRANCH   5   4
ATOM      1  C   UNL     1      51.881  21.537  18.823  0.00  0.00    +0.109 C 
ATOM      2  C   UNL     1      51.755  20.243  18.060  0.00  0.00    -0.097 A 
ATOM      3  C   UNL     1      51.435  19.077  18.727  0.00  0.00    +0.045 A 
ATOM      4  C   UNL     1      51.319  17.886  18.024  0.00  0.00    +0.047 A 
ATOM     25  C   UNL     1      51.525  17.867  16.652  0.00  0.00    +0.030 A 
ATOM     26  C   UNL     1      51.844  19.033  15.985  0.00  0.00    +0.013 A 
ATOM     27  C   UNL     1      51.955  20.225  16.687  0.00  0.00    +0.119 A 
BRANCH  27  28
ATOM     28  O   UNL     1      52.264  21.375  16.030  0.00  0.00    -0.491 OA
ATOM     29  H   UNL     1      51.663  22.108  16.216  0.00  0.00    +0.394 HD
ENDBRANCH  27  28
ENDBRANCH   5   4
ENDBRANCH   6   5
TORSDOF 6
ENDMDL
MODEL 6
REMARK VINA RESULT:      -5.6      3.068      6.305
REMARK  Name = ZINC95486284
REMARK  11 active torsions:
REMARK  status: ('A' for Active; 'I' for Inactive)
REMARK    1  A    between atoms: C1_1  and  C2_2
REMARK    2  A    between atoms: C4_4  and  O2_9
REMARK    3  A    between atoms: C7_7  and  O1_8
REMARK    4  A    between atoms: O2_9  and  C8_10
REMARK    5  A    between atoms: C9_11  and  O7_26
REMARK    6  A    between atoms: C12_15  and  O6_25
REMARK    7  A    between atoms: C13_16  and  C19_24
REMARK    8  A    between atoms: C14_17  and  O5_22
REMARK    9  A    between atoms: C15_18  and  C17_21
REMARK   10  A    between atoms: O5_22  and  C18_23
REMARK   11  A    between atoms: O7_26  and  C20_27
REMARK                            x       y       z     vdW  Elec       q    Type
REMARK                         _______ _______ _______ _____ _____    ______ ____
ROOT
ATOM      6  C   UNL     1      49.180  17.300  19.646  0.00  0.00    +0.226 A 
ATOM      7  C   UNL     1      47.983  17.422  20.278  0.00  0.00    -0.080 A 
ATOM     10  C   UNL     1      46.947  16.503  19.991  0.00  0.00    +0.441 A 
ATOM     11  C   UNL     1      47.231  15.447  19.006  0.00  0.00    -0.245 A 
ATOM     12  C   UNL     1      46.265  14.495  18.660  0.00  0.00    +0.213 A 
ATOM     15  C   UNL     1      46.572  13.520  17.730  0.00  0.00    -0.153 A 
ATOM     16  C   UNL     1      45.538  12.489  17.351  0.00  0.00    +0.121 C 
ATOM     17  C   UNL     1      47.832  13.485  17.142  0.00  0.00    +0.174 A 
ATOM     20  C   UNL     1      48.793  14.425  17.480  0.00  0.00    -0.131 A 
ATOM     21  C   UNL     1      50.155  14.375  16.834  0.00  0.00    +0.121 C 
ATOM     22  C   UNL     1      48.504  15.411  18.410  0.00  0.00    +0.181 A 
ATOM     23  O   UNL     1      45.858  16.582  20.540  0.00  0.00    -0.427 OA
ATOM     24  O   UNL     1      49.426  16.337  18.746  0.00  0.00    -0.229 OA
ENDROOT
BRANCH   7   8
ATOM      8  O   UNL     1      47.782  18.422  21.182  0.00  0.00    -0.285 OA
ATOM      9  C   UNL     1      47.124  19.600  20.710  0.00  0.00    +0.258 C 
ENDBRANCH   7   8
BRANCH  12  13
ATOM     13  O   UNL     1      45.036  14.528  19.235  0.00  0.00    -0.467 OA
ATOM     14  H   UNL     1      44.360  14.039  18.746  0.00  0.00    +0.402 HD
ENDBRANCH  12  13
BRANCH  17  18
ATOM     18  O   UNL     1      48.123  12.523  16.230  0.00  0.00    -0.325 OA
ATOM     19  C   UNL     1      47.863  12.830  14.859  0.00  0.00    +0.241 C 
ENDBRANCH  17  18
BRANCH   6   5
ATOM      5  O   UNL     1      50.159  18.188  19.932  0.00  0.00    -0.205 OA
BRANCH   5   4
ATOM      1  C   UNL     1      52.125  18.899  15.522  0.00  0.00    +0.109 C 
ATOM      2  C   UNL     1      51.508  19.431  16.790  0.00  0.00    -0.097 A 
ATOM      3  C   UNL     1      51.115  18.558  17.784  0.00  0.00    +0.045 A 
ATOM      4  C   UNL     1      50.547  19.047  18.953  0.00  0.00    +0.047 A 
ATOM     25  C   UNL     1      50.374  20.414  19.120  0.00  0.00    +0.030 A 
ATOM     26  C   UNL     1      50.769  21.287  18.125  0.00  0.00    +0.013 A 
ATOM     27  C   UNL     1      51.342  20.798  16.960  0.00  0.00    +0.119 A 
BRANCH  27  28
ATOM     28  O   UNL     1      51.735  21.658  15.983  0.00  0.00    -0.491 OA
ATOM     29  H   UNL     1      51.072  22.322  15.754  0.00  0.00    +0.394 HD
ENDBRANCH  27  28
ENDBRANCH   5   4
ENDBRANCH   6   5
TORSDOF 6
ENDMDL
MODEL 7
REMARK VINA RESULT:      -5.3      3.348      7.279
REMARK  Name = ZINC95486284
REMARK  11 active torsions:
REMARK  status: ('A' for Active; 'I' for Inactive)
REMARK    1  A    between atoms: C1_1  and  C2_2
REMARK    2  A    between atoms: C4_4  and  O2_9
REMARK    3  A    between atoms: C7_7  and  O1_8
REMARK    4  A    between atoms: O2_9  and  C8_10
REMARK    5  A    between atoms: C9_11  and  O7_26
REMARK    6  A    between atoms: C12_15  and  O6_25
REMARK    7  A    between atoms: C13_16  and  C19_24
REMARK    8  A    between atoms: C14_17  and  O5_22
REMARK    9  A    between atoms: C15_18  and  C17_21
REMARK   10  A    between atoms: O5_22  and  C18_23
REMARK   11  A    between atoms: O7_26  and  C20_27
REMARK                            x       y       z     vdW  Elec       q    Type
REMARK                         _______ _______ _______ _____ _____    ______ ____
ROOT
ATOM      6  C   UNL     1      48.012  15.196  17.702  0.00  0.00    +0.226 A 
ATOM      7  C   UNL     1      47.039  15.885  18.353  0.00  0.00    -0.080 A 
ATOM     10  C   UNL     1      47.259  17.238  18.703  0.00  0.00    +0.441 A 
ATOM     11  C   UNL     1      48.554  17.832  18.334  0.00  0.00    -0.245 A 
ATOM     12  C   UNL     1      48.858  19.164  18.640  0.00  0.00    +0.213 A 
ATOM     15  C   UNL     1      50.086  19.683  18.277  0.00  0.00    -0.153 A 
ATOM     16  C   UNL     1      50.423  21.117  18.602  0.00  0.00    +0.121 C 
ATOM     17  C   UNL     1      51.012  18.888  17.610  0.00  0.00    +0.174 A 
ATOM     20  C   UNL     1      50.717  17.569  17.304  0.00  0.00    -0.131 A 
ATOM     21  C   UNL     1      51.732  16.719  16.581  0.00  0.00    +0.121 C 
ATOM     22  C   UNL     1      49.491  17.029  17.661  0.00  0.00    +0.181 A 
ATOM     23  O   UNL     1      46.406  17.889  19.290  0.00  0.00    -0.427 OA
ATOM     24  O   UNL     1      49.190  15.746  17.375  0.00  0.00    -0.229 OA
ENDROOT
BRANCH   7   8
ATOM      8  O   UNL     1      45.860  15.279  18.667  0.00  0.00    -0.285 OA
ATOM      9  C   UNL     1      45.765  14.674  19.960  0.00  0.00    +0.258 C 
ENDBRANCH   7   8
BRANCH  12  13
ATOM     13  O   UNL     1      47.952  19.940  19.289  0.00  0.00    -0.467 OA
ATOM     14  H   UNL     1      47.428  20.505  18.705  0.00  0.00    +0.402 HD
ENDBRANCH  12  13
BRANCH  17  18
ATOM     18  O   UNL     1      52.215  19.408  17.256  0.00  0.00    -0.325 OA
ATOM     19  C   UNL     1      52.298  20.035  15.974  0.00  0.00    +0.241 C 
ENDBRANCH  17  18
BRANCH   6   5
ATOM      5  O   UNL     1      47.785  13.903  17.377  0.00  0.00    -0.205 OA
BRANCH   5   4
ATOM      1  C   UNL     1      51.845  12.366  15.145  0.00  0.00    +0.109 C 
ATOM      2  C   UNL     1      50.364  12.648  15.138  0.00  0.00    -0.097 A 
ATOM      3  C   UNL     1      49.752  13.149  16.269  0.00  0.00    +0.045 A 
ATOM      4  C   UNL     1      48.389  13.410  16.263  0.00  0.00    +0.047 A 
ATOM     25  C   UNL     1      47.641  13.166  15.120  0.00  0.00    +0.030 A 
ATOM     26  C   UNL     1      48.254  12.665  13.988  0.00  0.00    +0.013 A 
ATOM     27  C   UNL     1      49.618  12.411  13.993  0.00  0.00    +0.119 A 
BRANCH  27  28
ATOM     28  O   UNL     1      50.223  11.922  12.876  0.00  0.00    -0.491 OA
ATOM     29  H   UNL     1      51.167  12.121  12.822  0.00  0.00    +0.394 HD
ENDBRANCH  27  28
ENDBRANCH   5   4
ENDBRANCH   6   5
TORSDOF 6
ENDMDL
MODEL 8
REMARK VINA RESULT:      -5.3      2.034      6.467
REMARK  Name = ZINC95486284
REMARK  11 active torsions:
REMARK  status: ('A' for Active; 'I' for Inactive)
REMARK    1  A    between atoms: C1_1  and  C2_2
REMARK    2  A    between atoms: C4_4  and  O2_9
REMARK    3  A    between atoms: C7_7  and  O1_8
REMARK    4  A    between atoms: O2_9  and  C8_10
REMARK    5  A    between atoms: C9_11  and  O7_26
REMARK    6  A    between atoms: C12_15  and  O6_25
REMARK    7  A    between atoms: C13_16  and  C19_24
REMARK    8  A    between atoms: C14_17  and  O5_22
REMARK    9  A    between atoms: C15_18  and  C17_21
REMARK   10  A    between atoms: O5_22  and  C18_23
REMARK   11  A    between atoms: O7_26  and  C20_27
REMARK                            x       y       z     vdW  Elec       q    Type
REMARK                         _______ _______ _______ _____ _____    ______ ____
ROOT
ATOM      6  C   UNL     1      47.505  19.334  21.142  0.00  0.00    +0.226 A 
ATOM      7  C   UNL     1      46.790  18.252  20.736  0.00  0.00    -0.080 A 
ATOM     10  C   UNL     1      45.494  18.432  20.202  0.00  0.00    +0.441 A 
ATOM     11  C   UNL     1      44.983  19.810  20.113  0.00  0.00    -0.245 A 
ATOM     12  C   UNL     1      43.710  20.082  19.597  0.00  0.00    +0.213 A 
ATOM     15  C   UNL     1      43.268  21.390  19.532  0.00  0.00    -0.153 A 
ATOM     16  C   UNL     1      41.899  21.695  18.978  0.00  0.00    +0.121 C 
ATOM     17  C   UNL     1      44.082  22.427  19.975  0.00  0.00    +0.174 A 
ATOM     20  C   UNL     1      45.343  22.164  20.486  0.00  0.00    -0.131 A 
ATOM     21  C   UNL     1      46.214  23.299  20.963  0.00  0.00    +0.121 C 
ATOM     22  C   UNL     1      45.804  20.859  20.561  0.00  0.00    +0.181 A 
ATOM     23  O   UNL     1      44.823  17.481  19.827  0.00  0.00    -0.427 OA
ATOM     24  O   UNL     1      47.027  20.584  21.061  0.00  0.00    -0.229 OA
ENDROOT
BRANCH   7   8
ATOM      8  O   UNL     1      47.320  17.000  20.844  0.00  0.00    -0.285 OA
ATOM      9  C   UNL     1      48.048  16.505  19.717  0.00  0.00    +0.258 C 
ENDBRANCH   7   8
BRANCH  12  13
ATOM     13  O   UNL     1      42.917  19.070  19.164  0.00  0.00    -0.467 OA
ATOM     14  H   UNL     1      43.266  18.188  19.354  0.00  0.00    +0.402 HD
ENDBRANCH  12  13
BRANCH  17  18
ATOM     18  O   UNL     1      43.638  23.708  19.905  0.00  0.00    -0.325 OA
ATOM     19  C   UNL     1      44.074  24.485  18.788  0.00  0.00    +0.241 C 
ENDBRANCH  17  18
BRANCH   6   5
ATOM      5  O   UNL     1      48.742  19.142  21.652  0.00  0.00    -0.205 OA
BRANCH   5   4
ATOM      1  C   UNL     1      51.037  21.019  17.774  0.00  0.00    +0.109 C 
ATOM      2  C   UNL     1      50.913  20.822  19.263  0.00  0.00    -0.097 A 
ATOM      3  C   UNL     1      49.876  20.067  19.775  0.00  0.00    +0.045 A 
ATOM      4  C   UNL     1      49.762  19.885  21.147  0.00  0.00    +0.047 A 
ATOM     25  C   UNL     1      50.690  20.462  22.002  0.00  0.00    +0.030 A 
ATOM     26  C   UNL     1      51.727  21.217  21.489  0.00  0.00    +0.013 A 
ATOM     27  C   UNL     1      51.844  21.393  20.118  0.00  0.00    +0.119 A 
BRANCH  27  28
ATOM     28  O   UNL     1      52.868  22.132  19.612  0.00  0.00    -0.491 OA
ATOM     29  H   UNL     1      52.901  22.149  18.647  0.00  0.00    +0.394 HD
ENDBRANCH  27  28
ENDBRANCH   5   4
ENDBRANCH   6   5
TORSDOF 6
ENDMDL
MODEL 9
REMARK VINA RESULT:      -5.2     20.100     22.840
REMARK  Name = ZINC95486284
REMARK  11 active torsions:
REMARK  status: ('A' for Active; 'I' for Inactive)
REMARK    1  A    between atoms: C1_1  and  C2_2
REMARK    2  A    between atoms: C4_4  and  O2_9
REMARK    3  A    between atoms: C7_7  and  O1_8
REMARK    4  A    between atoms: O2_9  and  C8_10
REMARK    5  A    between atoms: C9_11  and  O7_26
REMARK    6  A    between atoms: C12_15  and  O6_25
REMARK    7  A    between atoms: C13_16  and  C19_24
REMARK    8  A    between atoms: C14_17  and  O5_22
REMARK    9  A    between atoms: C15_18  and  C17_21
REMARK   10  A    between atoms: O5_22  and  C18_23
REMARK   11  A    between atoms: O7_26  and  C20_27
REMARK                            x       y       z     vdW  Elec       q    Type
REMARK                         _______ _______ _______ _____ _____    ______ ____
ROOT
ATOM      6  C   UNL     1      56.815  32.308   2.933  0.00  0.00    +0.226 A 
ATOM      7  C   UNL     1      57.407  32.919   3.992  0.00  0.00    -0.080 A 
ATOM     10  C   UNL     1      56.605  33.438   5.035  0.00  0.00    +0.441 A 
ATOM     11  C   UNL     1      55.147  33.283   4.910  0.00  0.00    -0.245 A 
ATOM     12  C   UNL     1      54.276  33.766   5.895  0.00  0.00    +0.213 A 
ATOM     15  C   UNL     1      52.913  33.601   5.739  0.00  0.00    -0.153 A 
ATOM     16  C   UNL     1      51.967  34.118   6.793  0.00  0.00    +0.121 C 
ATOM     17  C   UNL     1      52.410  32.957   4.613  0.00  0.00    +0.174 A 
ATOM     20  C   UNL     1      53.266  32.477   3.635  0.00  0.00    -0.131 A 
ATOM     21  C   UNL     1      52.706  31.782   2.419  0.00  0.00    +0.121 C 
ATOM     22  C   UNL     1      54.637  32.634   3.772  0.00  0.00    +0.181 A 
ATOM     23  O   UNL     1      57.104  33.994   6.002  0.00  0.00    -0.427 OA
ATOM     24  O   UNL     1      55.484  32.177   2.827  0.00  0.00    -0.229 OA
ENDROOT
BRANCH   7   8
ATOM      8  O   UNL     1      58.764  33.031   4.050  0.00  0.00    -0.285 OA
ATOM      9  C   UNL     1      59.338  34.231   3.527  0.00  0.00    +0.258 C 
ENDBRANCH   7   8
BRANCH  12  13
ATOM     13  O   UNL     1      54.768  34.392   6.994  0.00  0.00    -0.467 OA
ATOM     14  H   UNL     1      55.318  33.827   7.555  0.00  0.00    +0.402 HD
ENDBRANCH  12  13
BRANCH  17  18
ATOM     18  O   UNL     1      51.070  32.799   4.470  0.00  0.00    -0.325 OA
ATOM     19  C   UNL     1      50.359  33.852   3.815  0.00  0.00    +0.241 C 
ENDBRANCH  17  18
BRANCH   6   5
ATOM      5  O   UNL     1      57.597  31.818   1.944  0.00  0.00    -0.205 OA
BRANCH   5   4
ATOM      1  C   UNL     1      57.457  27.629  -0.557  0.00  0.00    +0.109 C 
ATOM      2  C   UNL     1      57.754  28.402   0.703  0.00  0.00    -0.097 A 
ATOM      3  C   UNL     1      57.537  29.765   0.744  0.00  0.00    +0.045 A 
ATOM      4  C   UNL     1      57.809  30.476   1.904  0.00  0.00    +0.047 A 
ATOM     25  C   UNL     1      58.300  29.818   3.022  0.00  0.00    +0.030 A 
ATOM     26  C   UNL     1      58.516  28.454   2.981  0.00  0.00    +0.013 A 
ATOM     27  C   UNL     1      58.238  27.742   1.823  0.00  0.00    +0.119 A 
BRANCH  27  28
ATOM     28  O   UNL     1      58.446  26.399   1.785  0.00  0.00    -0.491 OA
ATOM     29  H   UNL     1      58.129  25.929   2.568  0.00  0.00    +0.394 HD
ENDBRANCH  27  28
ENDBRANCH   5   4
ENDBRANCH   6   5
TORSDOF 6
ENDMDL
