MODEL 1
REMARK VINA RESULT:      -6.0      0.000      0.000
REMARK  Name = ZINC95486122
REMARK  5 active torsions:
REMARK  status: ('A' for Active; 'I' for Inactive)
REMARK    1  A    between atoms: C1_1  and  C2_2
REMARK    2  A    between atoms: C6_9  and  O3_22
REMARK    3  A    between atoms: C7_11  and  C12_21
REMARK    4  A    between atoms: C9_14  and  O2_20
REMARK    5  A    between atoms: C11_17  and  O1_19
REMARK                            x       y       z     vdW  Elec       q    Type
REMARK                         _______ _______ _______ _____ _____    ______ ____
ROOT
ATOM      1  C   UNL     1      43.532  17.012  22.351  0.00  0.00    +0.031 C 
ATOM      2  C   UNL     1      43.450  18.257  21.465  0.00  0.00    -0.012 C 
ATOM      3  C   UNL     1      41.983  18.582  21.173  0.00  0.00    +0.053 C 
ATOM      4  C   UNL     1      41.900  19.459  19.933  0.00  0.00    +0.188 C 
ATOM      5  C   UNL     1      42.919  20.569  19.877  0.00  0.00    -0.020 C 
ATOM      6  C   UNL     1      42.155  21.733  19.272  0.00  0.00    -0.229 C 
ATOM      7  C   UNL     1      40.790  21.205  19.050  0.00  0.00    +0.513 C 
ATOM      8  O   UNL     1      39.959  21.682  18.303  0.00  0.00    -0.444 OA
ATOM      9  C   UNL     1      42.611  22.955  19.002  0.00  0.00    +0.184 C 
ATOM     10  C   UNL     1      44.169  20.260  19.093  0.00  0.00    +0.210 C 
ATOM     13  C   UNL     1      45.054  19.286  19.863  0.00  0.00    -0.057 C 
ATOM     14  C   UNL     1      45.577  19.913  21.158  0.00  0.00    +0.066 C 
ATOM     15  C   UNL     1      46.206  18.776  18.984  0.00  0.00    +0.174 C 
ATOM     18  C   UNL     1      46.322  17.219  19.286  0.00  0.00    -0.041 C 
ATOM     19  C   UNL     1      45.233  16.883  20.327  0.00  0.00    +0.174 C 
ATOM     22  O   UNL     1      40.628  20.117  19.830  0.00  0.00    -0.334 OA
ATOM     23  C   UNL     1      44.177  17.993  20.144  0.00  0.00    +0.042 C 
ENDROOT
BRANCH  10  11
ATOM     11  O   UNL     1      43.809  19.677  17.840  0.00  0.00    -0.523 OA
ATOM     12  H   UNL     1      44.413  18.983  17.541  0.00  0.00    +0.366 HD
ENDBRANCH  10  11
BRANCH  15  16
ATOM     16  O   UNL     1      45.899  18.991  17.605  0.00  0.00    -0.526 OA
ATOM     17  H   UNL     1      45.067  19.461  17.456  0.00  0.00    +0.366 HD
ENDBRANCH  15  16
BRANCH  19  20
ATOM     20  O   UNL     1      44.662  15.601  20.060  0.00  0.00    -0.557 OA
ATOM     21  H   UNL     1      44.380  15.479  19.143  0.00  0.00    +0.376 HD
ENDBRANCH  19  20
TORSDOF 3
ENDMDL
MODEL 2
REMARK VINA RESULT:      -5.5      1.481      2.215
REMARK  Name = ZINC95486122
REMARK  5 active torsions:
REMARK  status: ('A' for Active; 'I' for Inactive)
REMARK    1  A    between atoms: C1_1  and  C2_2
REMARK    2  A    between atoms: C6_9  and  O3_22
REMARK    3  A    between atoms: C7_11  and  C12_21
REMARK    4  A    between atoms: C9_14  and  O2_20
REMARK    5  A    between atoms: C11_17  and  O1_19
REMARK                            x       y       z     vdW  Elec       q    Type
REMARK                         _______ _______ _______ _____ _____    ______ ____
ROOT
ATOM      1  C   UNL     1      44.807  15.595  21.862  0.00  0.00    +0.031 C 
ATOM      2  C   UNL     1      44.983  16.913  21.104  0.00  0.00    -0.012 C 
ATOM      3  C   UNL     1      43.700  17.742  21.213  0.00  0.00    +0.053 C 
ATOM      4  C   UNL     1      43.667  18.768  20.092  0.00  0.00    +0.188 C 
ATOM      5  C   UNL     1      44.976  19.476  19.848  0.00  0.00    -0.020 C 
ATOM      6  C   UNL     1      44.564  20.902  19.529  0.00  0.00    -0.229 C 
ATOM      7  C   UNL     1      43.086  20.891  19.629  0.00  0.00    +0.513 C 
ATOM      8  O   UNL     1      42.338  21.719  19.147  0.00  0.00    -0.444 OA
ATOM      9  C   UNL     1      45.352  21.931  19.228  0.00  0.00    +0.184 C 
ATOM     10  C   UNL     1      45.834  18.892  18.755  0.00  0.00    +0.210 C 
ATOM     13  C   UNL     1      46.460  17.579  19.215  0.00  0.00    -0.057 C 
ATOM     14  C   UNL     1      47.438  17.803  20.370  0.00  0.00    +0.066 C 
ATOM     15  C   UNL     1      47.137  16.853  18.042  0.00  0.00    +0.174 C 
ATOM     18  C   UNL     1      46.756  15.318  18.209  0.00  0.00    -0.041 C 
ATOM     19  C   UNL     1      45.871  15.211  19.469  0.00  0.00    +0.174 C 
ATOM     22  O   UNL     1      42.722  19.815  20.355  0.00  0.00    -0.334 OA
ATOM     23  C   UNL     1      45.265  16.621  19.628  0.00  0.00    +0.042 C 
ENDROOT
BRANCH  10  11
ATOM     11  O   UNL     1      45.029  18.649  17.600  0.00  0.00    -0.523 OA
ATOM     12  H   UNL     1      45.376  19.045  16.789  0.00  0.00    +0.366 HD
ENDBRANCH  10  11
BRANCH  15  16
ATOM     16  O   UNL     1      46.637  17.355  16.802  0.00  0.00    -0.526 OA
ATOM     17  H   UNL     1      45.851  17.912  16.892  0.00  0.00    +0.366 HD
ENDBRANCH  15  16
BRANCH  19  20
ATOM     20  O   UNL     1      44.839  14.242  19.277  0.00  0.00    -0.557 OA
ATOM     21  H   UNL     1      45.126  13.450  18.801  0.00  0.00    +0.376 HD
ENDBRANCH  19  20
TORSDOF 3
ENDMDL
MODEL 3
REMARK VINA RESULT:      -5.4      1.930      5.619
REMARK  Name = ZINC95486122
REMARK  5 active torsions:
REMARK  status: ('A' for Active; 'I' for Inactive)
REMARK    1  A    between atoms: C1_1  and  C2_2
REMARK    2  A    between atoms: C6_9  and  O3_22
REMARK    3  A    between atoms: C7_11  and  C12_21
REMARK    4  A    between atoms: C9_14  and  O2_20
REMARK    5  A    between atoms: C11_17  and  O1_19
REMARK                            x       y       z     vdW  Elec       q    Type
REMARK                         _______ _______ _______ _____ _____    ______ ____
ROOT
ATOM      1  C   UNL     1      46.103  23.022  21.278  0.00  0.00    +0.031 C 
ATOM      2  C   UNL     1      45.912  21.611  20.717  0.00  0.00    -0.012 C 
ATOM      3  C   UNL     1      47.226  21.122  20.101  0.00  0.00    +0.053 C 
ATOM      4  C   UNL     1      46.934  19.994  19.126  0.00  0.00    +0.188 C 
ATOM      5  C   UNL     1      45.935  18.977  19.619  0.00  0.00    -0.020 C 
ATOM      6  C   UNL     1      46.479  17.655  19.106  0.00  0.00    -0.229 C 
ATOM      7  C   UNL     1      47.722  18.019  18.390  0.00  0.00    +0.513 C 
ATOM      8  O   UNL     1      48.294  17.331  17.567  0.00  0.00    -0.444 OA
ATOM      9  C   UNL     1      45.955  16.442  19.265  0.00  0.00    +0.184 C 
ATOM     10  C   UNL     1      44.512  19.199  19.174  0.00  0.00    +0.210 C 
ATOM     13  C   UNL     1      43.900  20.381  19.919  0.00  0.00    -0.057 C 
ATOM     14  C   UNL     1      43.777  20.091  21.417  0.00  0.00    +0.066 C 
ATOM     15  C   UNL     1      42.544  20.772  19.312  0.00  0.00    +0.174 C 
ATOM     18  C   UNL     1      42.533  22.361  19.268  0.00  0.00    -0.041 C 
ATOM     19  C   UNL     1      43.883  22.834  19.849  0.00  0.00    +0.174 C 
ATOM     22  O   UNL     1      48.114  19.236  18.819  0.00  0.00    -0.334 OA
ATOM     23  C   UNL     1      44.830  21.635  19.634  0.00  0.00    +0.042 C 
ENDROOT
BRANCH  10  11
ATOM     11  O   UNL     1      44.492  19.468  17.771  0.00  0.00    -0.523 OA
ATOM     12  H   UNL     1      44.904  18.778  17.233  0.00  0.00    +0.366 HD
ENDBRANCH  10  11
BRANCH  15  16
ATOM     16  O   UNL     1      42.430  20.240  17.991  0.00  0.00    -0.526 OA
ATOM     17  H   UNL     1      42.662  19.303  17.923  0.00  0.00    +0.366 HD
ENDBRANCH  15  16
BRANCH  19  20
ATOM     20  O   UNL     1      44.360  23.981  19.144  0.00  0.00    -0.557 OA
ATOM     21  H   UNL     1      44.971  24.530  19.654  0.00  0.00    +0.376 HD
ENDBRANCH  19  20
TORSDOF 3
ENDMDL
MODEL 4
REMARK VINA RESULT:      -5.3      2.435      3.785
REMARK  Name = ZINC95486122
REMARK  5 active torsions:
REMARK  status: ('A' for Active; 'I' for Inactive)
REMARK    1  A    between atoms: C1_1  and  C2_2
REMARK    2  A    between atoms: C6_9  and  O3_22
REMARK    3  A    between atoms: C7_11  and  C12_21
REMARK    4  A    between atoms: C9_14  and  O2_20
REMARK    5  A    between atoms: C11_17  and  O1_19
REMARK                            x       y       z     vdW  Elec       q    Type
REMARK                         _______ _______ _______ _____ _____    ______ ____
ROOT
ATOM      1  C   UNL     1      45.272  14.367  21.332  0.00  0.00    +0.031 C 
ATOM      2  C   UNL     1      45.670  15.660  20.617  0.00  0.00    -0.012 C 
ATOM      3  C   UNL     1      44.652  16.757  20.938  0.00  0.00    +0.053 C 
ATOM      4  C   UNL     1      44.733  17.844  19.878  0.00  0.00    +0.188 C 
ATOM      5  C   UNL     1      46.135  18.240  19.489  0.00  0.00    -0.020 C 
ATOM      6  C   UNL     1      46.047  19.744  19.294  0.00  0.00    -0.229 C 
ATOM      7  C   UNL     1      44.635  20.074  19.594  0.00  0.00    +0.513 C 
ATOM      8  O   UNL     1      44.058  21.088  19.257  0.00  0.00    -0.444 OA
ATOM      9  C   UNL     1      47.020  20.578  18.934  0.00  0.00    +0.184 C 
ATOM     10  C   UNL     1      46.685  17.555  18.264  0.00  0.00    +0.210 C 
ATOM     13  C   UNL     1      47.023  16.101  18.575  0.00  0.00    -0.057 C 
ATOM     14  C   UNL     1      48.160  16.000  19.594  0.00  0.00    +0.066 C 
ATOM     15  C   UNL     1      47.354  15.327  17.289  0.00  0.00    +0.174 C 
ATOM     18  C   UNL     1      46.634  13.917  17.438  0.00  0.00    -0.041 C 
ATOM     19  C   UNL     1      45.910  13.926  18.801  0.00  0.00    +0.174 C 
ATOM     22  O   UNL     1      44.111  19.062  20.314  0.00  0.00    -0.334 OA
ATOM     23  C   UNL     1      45.690  15.423  19.105  0.00  0.00    +0.042 C 
ENDROOT
BRANCH  10  11
ATOM     11  O   UNL     1      45.710  17.597  17.221  0.00  0.00    -0.523 OA
ATOM     12  H   UNL     1      44.803  17.721  17.534  0.00  0.00    +0.366 HD
ENDBRANCH  10  11
BRANCH  15  16
ATOM     16  O   UNL     1      46.844  16.027  16.153  0.00  0.00    -0.526 OA
ATOM     17  H   UNL     1      46.832  16.988  16.256  0.00  0.00    +0.366 HD
ENDBRANCH  15  16
BRANCH  19  20
ATOM     20  O   UNL     1      44.658  13.245  18.709  0.00  0.00    -0.557 OA
ATOM     21  H   UNL     1      44.185  13.176  19.550  0.00  0.00    +0.376 HD
ENDBRANCH  19  20
TORSDOF 3
ENDMDL
MODEL 5
REMARK VINA RESULT:      -5.1     21.108     23.517
REMARK  Name = ZINC95486122
REMARK  5 active torsions:
REMARK  status: ('A' for Active; 'I' for Inactive)
REMARK    1  A    between atoms: C1_1  and  C2_2
REMARK    2  A    between atoms: C6_9  and  O3_22
REMARK    3  A    between atoms: C7_11  and  C12_21
REMARK    4  A    between atoms: C9_14  and  O2_20
REMARK    5  A    between atoms: C11_17  and  O1_19
REMARK                            x       y       z     vdW  Elec       q    Type
REMARK                         _______ _______ _______ _____ _____    ______ ____
ROOT
ATOM      1  C   UNL     1      50.959  32.388   3.004  0.00  0.00    +0.031 C 
ATOM      2  C   UNL     1      52.379  32.834   3.361  0.00  0.00    -0.012 C 
ATOM      3  C   UNL     1      53.381  31.778   2.888  0.00  0.00    +0.053 C 
ATOM      4  C   UNL     1      54.683  31.942   3.655  0.00  0.00    +0.188 C 
ATOM      5  C   UNL     1      55.145  33.369   3.813  0.00  0.00    -0.020 C 
ATOM      6  C   UNL     1      56.654  33.281   3.662  0.00  0.00    -0.229 C 
ATOM      7  C   UNL     1      56.919  31.844   3.423  0.00  0.00    +0.513 C 
ATOM      8  O   UNL     1      57.990  31.288   3.566  0.00  0.00    -0.444 OA
ATOM      9  C   UNL     1      57.539  34.273   3.729  0.00  0.00    +0.184 C 
ATOM     10  C   UNL     1      54.757  34.035   5.108  0.00  0.00    +0.210 C 
ATOM     13  C   UNL     1      53.267  34.361   5.114  0.00  0.00    -0.057 C 
ATOM     14  C   UNL     1      52.922  35.401   4.047  0.00  0.00    +0.066 C 
ATOM     15  C   UNL     1      52.809  34.816   6.508  0.00  0.00    +0.174 C 
ATOM     18  C   UNL     1      51.411  34.102   6.756  0.00  0.00    -0.041 C 
ATOM     19  C   UNL     1      51.110  33.257   5.499  0.00  0.00    +0.174 C 
ATOM     22  O   UNL     1      55.773  31.269   3.007  0.00  0.00    -0.334 OA
ATOM     23  C   UNL     1      52.498  32.993   4.878  0.00  0.00    +0.042 C 
ENDROOT
BRANCH  10  11
ATOM     11  O   UNL     1      55.050  33.158   6.198  0.00  0.00    -0.523 OA
ATOM     12  H   UNL     1      54.530  32.342   6.196  0.00  0.00    +0.366 HD
ENDBRANCH  10  11
BRANCH  15  16
ATOM     16  O   UNL     1      53.758  34.402   7.493  0.00  0.00    -0.526 OA
ATOM     17  H   UNL     1      53.644  33.488   7.789  0.00  0.00    +0.366 HD
ENDBRANCH  15  16
BRANCH  19  20
ATOM     20  O   UNL     1      50.481  32.026   5.859  0.00  0.00    -0.557 OA
ATOM     21  H   UNL     1      51.006  31.241   5.653  0.00  0.00    +0.376 HD
ENDBRANCH  19  20
TORSDOF 3
ENDMDL
MODEL 6
REMARK VINA RESULT:      -5.1      2.647      5.195
REMARK  Name = ZINC95486122
REMARK  5 active torsions:
REMARK  status: ('A' for Active; 'I' for Inactive)
REMARK    1  A    between atoms: C1_1  and  C2_2
REMARK    2  A    between atoms: C6_9  and  O3_22
REMARK    3  A    between atoms: C7_11  and  C12_21
REMARK    4  A    between atoms: C9_14  and  O2_20
REMARK    5  A    between atoms: C11_17  and  O1_19
REMARK                            x       y       z     vdW  Elec       q    Type
REMARK                         _______ _______ _______ _____ _____    ______ ____
ROOT
ATOM      1  C   UNL     1      42.996  22.133  19.666  0.00  0.00    +0.031 C 
ATOM      2  C   UNL     1      43.928  20.952  19.944  0.00  0.00    -0.012 C 
ATOM      3  C   UNL     1      43.109  19.759  20.441  0.00  0.00    +0.053 C 
ATOM      4  C   UNL     1      44.022  18.795  21.181  0.00  0.00    +0.188 C 
ATOM      5  C   UNL     1      45.348  18.541  20.507  0.00  0.00    -0.020 C 
ATOM      6  C   UNL     1      45.601  17.064  20.749  0.00  0.00    -0.229 C 
ATOM      7  C   UNL     1      44.418  16.605  21.512  0.00  0.00    +0.513 C 
ATOM      8  O   UNL     1      44.355  15.592  22.180  0.00  0.00    -0.444 OA
ATOM      9  C   UNL     1      46.650  16.342  20.361  0.00  0.00    +0.184 C 
ATOM     10  C   UNL     1      46.495  19.386  20.998  0.00  0.00    +0.210 C 
ATOM     13  C   UNL     1      46.350  20.821  20.503  0.00  0.00    -0.057 C 
ATOM     14  C   UNL     1      46.463  20.897  18.978  0.00  0.00    +0.066 C 
ATOM     15  C   UNL     1      47.370  21.745  21.186  0.00  0.00    +0.174 C 
ATOM     18  C   UNL     1      46.577  23.077  21.537  0.00  0.00    -0.041 C 
ATOM     19  C   UNL     1      45.127  22.877  21.048  0.00  0.00    +0.174 C 
ATOM     22  O   UNL     1      43.425  17.498  21.325  0.00  0.00    -0.334 OA
ATOM     23  C   UNL     1      44.944  21.345  21.019  0.00  0.00    +0.042 C 
ENDROOT
BRANCH  10  11
ATOM     11  O   UNL     1      46.508  19.383  22.427  0.00  0.00    -0.523 OA
ATOM     12  H   UNL     1      45.641  19.236  22.828  0.00  0.00    +0.366 HD
ENDBRANCH  10  11
BRANCH  15  16
ATOM     16  O   UNL     1      47.862  21.132  22.379  0.00  0.00    -0.526 OA
ATOM     17  H   UNL     1      48.812  20.946  22.363  0.00  0.00    +0.366 HD
ENDBRANCH  15  16
BRANCH  19  20
ATOM     20  O   UNL     1      44.203  23.473  21.960  0.00  0.00    -0.557 OA
ATOM     21  H   UNL     1      43.677  24.188  21.575  0.00  0.00    +0.376 HD
ENDBRANCH  19  20
TORSDOF 3
ENDMDL
MODEL 7
REMARK VINA RESULT:      -4.9      2.425      4.635
REMARK  Name = ZINC95486122
REMARK  5 active torsions:
REMARK  status: ('A' for Active; 'I' for Inactive)
REMARK    1  A    between atoms: C1_1  and  C2_2
REMARK    2  A    between atoms: C6_9  and  O3_22
REMARK    3  A    between atoms: C7_11  and  C12_21
REMARK    4  A    between atoms: C9_14  and  O2_20
REMARK    5  A    between atoms: C11_17  and  O1_19
REMARK                            x       y       z     vdW  Elec       q    Type
REMARK                         _______ _______ _______ _____ _____    ______ ____
ROOT
ATOM      1  C   UNL     1      42.483  17.572  22.048  0.00  0.00    +0.031 C 
ATOM      2  C   UNL     1      43.416  18.572  21.362  0.00  0.00    -0.012 C 
ATOM      3  C   UNL     1      44.502  19.016  22.345  0.00  0.00    +0.053 C 
ATOM      4  C   UNL     1      45.098  20.333  21.875  0.00  0.00    +0.188 C 
ATOM      5  C   UNL     1      45.379  20.405  20.395  0.00  0.00    -0.020 C 
ATOM      6  C   UNL     1      46.684  21.176  20.310  0.00  0.00    -0.229 C 
ATOM      7  C   UNL     1      47.037  21.463  21.719  0.00  0.00    +0.513 C 
ATOM      8  O   UNL     1      47.814  22.319  22.094  0.00  0.00    -0.444 OA
ATOM      9  C   UNL     1      47.359  21.518  19.215  0.00  0.00    +0.184 C 
ATOM     10  C   UNL     1      44.300  21.049  19.562  0.00  0.00    +0.210 C 
ATOM     13  C   UNL     1      43.096  20.120  19.439  0.00  0.00    -0.057 C 
ATOM     14  C   UNL     1      43.451  18.849  18.664  0.00  0.00    +0.066 C 
ATOM     15  C   UNL     1      41.903  20.848  18.803  0.00  0.00    +0.174 C 
ATOM     18  C   UNL     1      40.627  20.395  19.638  0.00  0.00    -0.041 C 
ATOM     19  C   UNL     1      41.129  19.424  20.729  0.00  0.00    +0.174 C 
ATOM     22  O   UNL     1      46.358  20.604  22.505  0.00  0.00    -0.334 OA
ATOM     23  C   UNL     1      42.614  19.797  20.916  0.00  0.00    +0.042 C 
ENDROOT
BRANCH  10  11
ATOM     11  O   UNL     1      43.890  22.269  20.181  0.00  0.00    -0.523 OA
ATOM     12  H   UNL     1      43.036  22.600  19.870  0.00  0.00    +0.366 HD
ENDBRANCH  10  11
BRANCH  15  16
ATOM     16  O   UNL     1      42.084  22.262  18.903  0.00  0.00    -0.526 OA
ATOM     17  H   UNL     1      42.085  22.595  19.812  0.00  0.00    +0.366 HD
ENDBRANCH  15  16
BRANCH  19  20
ATOM     20  O   UNL     1      40.406  19.619  21.946  0.00  0.00    -0.557 OA
ATOM     21  H   UNL     1      39.523  19.227  21.946  0.00  0.00    +0.376 HD
ENDBRANCH  19  20
TORSDOF 3
ENDMDL
MODEL 8
REMARK VINA RESULT:      -4.8      4.292      6.283
REMARK  Name = ZINC95486122
REMARK  5 active torsions:
REMARK  status: ('A' for Active; 'I' for Inactive)
REMARK    1  A    between atoms: C1_1  and  C2_2
REMARK    2  A    between atoms: C6_9  and  O3_22
REMARK    3  A    between atoms: C7_11  and  C12_21
REMARK    4  A    between atoms: C9_14  and  O2_20
REMARK    5  A    between atoms: C11_17  and  O1_19
REMARK                            x       y       z     vdW  Elec       q    Type
REMARK                         _______ _______ _______ _____ _____    ______ ____
ROOT
ATOM      1  C   UNL     1      50.287  16.089  18.846  0.00  0.00    +0.031 C 
ATOM      2  C   UNL     1      49.742  17.463  19.240  0.00  0.00    -0.012 C 
ATOM      3  C   UNL     1      48.284  17.585  18.788  0.00  0.00    +0.053 C 
ATOM      4  C   UNL     1      47.904  19.055  18.708  0.00  0.00    +0.188 C 
ATOM      5  C   UNL     1      48.382  19.893  19.868  0.00  0.00    -0.020 C 
ATOM      6  C   UNL     1      47.236  20.858  20.116  0.00  0.00    -0.229 C 
ATOM      7  C   UNL     1      46.217  20.489  19.107  0.00  0.00    +0.513 C 
ATOM      8  O   UNL     1      45.297  21.193  18.740  0.00  0.00    -0.444 OA
ATOM      9  C   UNL     1      47.164  21.819  21.034  0.00  0.00    +0.184 C 
ATOM     10  C   UNL     1      49.682  20.623  19.646  0.00  0.00    +0.210 C 
ATOM     13  C   UNL     1      50.853  19.647  19.677  0.00  0.00    -0.057 C 
ATOM     14  C   UNL     1      51.017  19.017  21.062  0.00  0.00    +0.066 C 
ATOM     15  C   UNL     1      52.150  20.330  19.216  0.00  0.00    +0.174 C 
ATOM     18  C   UNL     1      52.879  19.278  18.273  0.00  0.00    -0.041 C 
ATOM     19  C   UNL     1      51.978  18.026  18.219  0.00  0.00    +0.174 C 
ATOM     22  O   UNL     1      46.481  19.237  18.681  0.00  0.00    -0.334 OA
ATOM     23  C   UNL     1      50.570  18.556  18.560  0.00  0.00    +0.042 C 
ENDROOT
BRANCH  10  11
ATOM     11  O   UNL     1      49.647  21.275  18.375  0.00  0.00    -0.523 OA
ATOM     12  H   UNL     1      49.782  20.681  17.625  0.00  0.00    +0.366 HD
ENDBRANCH  10  11
BRANCH  15  16
ATOM     16  O   UNL     1      51.843  21.520  18.486  0.00  0.00    -0.526 OA
ATOM     17  H   UNL     1      51.097  21.426  17.878  0.00  0.00    +0.366 HD
ENDBRANCH  15  16
BRANCH  19  20
ATOM     20  O   UNL     1      51.994  17.452  16.911  0.00  0.00    -0.557 OA
ATOM     21  H   UNL     1      51.631  16.556  16.870  0.00  0.00    +0.376 HD
ENDBRANCH  19  20
TORSDOF 3
ENDMDL
MODEL 9
REMARK VINA RESULT:      -4.7      2.440      5.580
REMARK  Name = ZINC95486122
REMARK  5 active torsions:
REMARK  status: ('A' for Active; 'I' for Inactive)
REMARK    1  A    between atoms: C1_1  and  C2_2
REMARK    2  A    between atoms: C6_9  and  O3_22
REMARK    3  A    between atoms: C7_11  and  C12_21
REMARK    4  A    between atoms: C9_14  and  O2_20
REMARK    5  A    between atoms: C11_17  and  O1_19
REMARK                            x       y       z     vdW  Elec       q    Type
REMARK                         _______ _______ _______ _____ _____    ______ ____
ROOT
ATOM      1  C   UNL     1      48.023  20.560  19.073  0.00  0.00    +0.031 C 
ATOM      2  C   UNL     1      47.217  19.455  19.759  0.00  0.00    -0.012 C 
ATOM      3  C   UNL     1      47.270  18.181  18.912  0.00  0.00    +0.053 C 
ATOM      4  C   UNL     1      46.108  17.277  19.290  0.00  0.00    +0.188 C 
ATOM      5  C   UNL     1      45.860  17.158  20.773  0.00  0.00    -0.020 C 
ATOM      6  C   UNL     1      45.477  15.701  20.962  0.00  0.00    -0.229 C 
ATOM      7  C   UNL     1      45.550  15.120  19.603  0.00  0.00    +0.513 C 
ATOM      8  O   UNL     1      45.022  14.085  19.245  0.00  0.00    -0.444 OA
ATOM      9  C   UNL     1      45.149  15.085  22.096  0.00  0.00    +0.184 C 
ATOM     10  C   UNL     1      44.807  18.083  21.329  0.00  0.00    +0.210 C 
ATOM     13  C   UNL     1      45.330  19.515  21.381  0.00  0.00    -0.057 C 
ATOM     14  C   UNL     1      46.493  19.647  22.366  0.00  0.00    +0.066 C 
ATOM     15  C   UNL     1      44.200  20.501  21.714  0.00  0.00    +0.174 C 
ATOM     18  C   UNL     1      44.420  21.749  20.754  0.00  0.00    -0.041 C 
ATOM     19  C   UNL     1      45.667  21.440  19.898  0.00  0.00    +0.174 C 
ATOM     22  O   UNL     1      46.311  15.930  18.840  0.00  0.00    -0.334 OA
ATOM     23  C   UNL     1      45.759  19.900  19.903  0.00  0.00    +0.042 C 
ENDROOT
BRANCH  10  11
ATOM     11  O   UNL     1      43.648  18.037  20.495  0.00  0.00    -0.523 OA
ATOM     12  H   UNL     1      42.840  17.777  20.958  0.00  0.00    +0.366 HD
ENDBRANCH  10  11
BRANCH  15  16
ATOM     16  O   UNL     1      42.931  19.896  21.456  0.00  0.00    -0.526 OA
ATOM     17  H   UNL     1      42.177  20.478  21.624  0.00  0.00    +0.366 HD
ENDBRANCH  15  16
BRANCH  19  20
ATOM     20  O   UNL     1      45.496  21.927  18.566  0.00  0.00    -0.557 OA
ATOM     21  H   UNL     1      45.894  22.794  18.410  0.00  0.00    +0.376 HD
ENDBRANCH  19  20
TORSDOF 3
ENDMDL
