MODEL 1
REMARK VINA RESULT:      -7.1      0.000      0.000
REMARK  Name = ZINC95486042
REMARK  16 active torsions:
REMARK  status: ('A' for Active; 'I' for Inactive)
REMARK    1  A    between atoms: C1_1  and  C2_2
REMARK    2  A    between atoms: C3_4  and  C4_6
REMARK    3  A    between atoms: C3_4  and  C33_57
REMARK    4  A    between atoms: C6_9  and  C8_14
REMARK    5  A    between atoms: C9_16  and  O10_56
REMARK    6  A    between atoms: C12_21  and  C32_55
REMARK    7  A    between atoms: C20_31  and  C31_54
REMARK    8  A    between atoms: C23_34  and  O4_37
REMARK    9  A    between atoms: O4_37  and  C25_38
REMARK   10  A    between atoms: C26_40  and  O9_53
REMARK   11  A    between atoms: C27_42  and  O8_52
REMARK   12  A    between atoms: C28_44  and  O7_51
REMARK   13  A    between atoms: C29_46  and  C30_49
REMARK   14  A    between atoms: C30_49  and  O6_50
REMARK   15  A    between atoms: C33_57  and  C34_58
REMARK   16  A    between atoms: C33_57  and  C35_59
REMARK                            x       y       z     vdW  Elec       q    Type
REMARK                         _______ _______ _______ _____ _____    ______ ____
ROOT
ATOM     10  C   UNL     1      46.410  21.821  20.259  0.00  0.00    +0.039 C 
ATOM     11  C   UNL     1      45.749  21.491  21.622  0.00  0.00    +0.170 C 
ATOM     14  C   UNL     1      46.522  20.274  22.202  0.00  0.00    +0.005 C 
ATOM     15  C   UNL     1      47.884  20.379  21.509  0.00  0.00    +0.031 C 
ATOM     16  C   UNL     1      48.678  19.106  21.401  0.00  0.00    -0.086 C 
ATOM     17  C   UNL     1      48.319  18.050  22.062  0.00  0.00    -0.062 C 
ATOM     18  C   UNL     1      49.059  16.746  21.986  0.00  0.00    +0.060 C 
ATOM     19  C   UNL     1      50.522  17.016  21.616  0.00  0.00    +0.005 C 
ATOM     20  C   UNL     1      50.549  17.825  20.283  0.00  0.00    -0.043 C 
ATOM     21  C   UNL     1      49.828  17.055  19.175  0.00  0.00    +0.026 C 
ATOM     22  C   UNL     1      52.003  18.044  19.851  0.00  0.00    +0.020 C 
ATOM     23  C   UNL     1      52.683  16.694  19.625  0.00  0.00    +0.021 C 
ATOM     24  C   UNL     1      52.662  15.894  20.929  0.00  0.00    +0.144 C 
ATOM     41  C   UNL     1      51.227  15.672  21.413  0.00  0.00    +0.025 C 
ATOM     42  C   UNL     1      49.875  19.173  20.476  0.00  0.00    +0.027 C 
ATOM     43  C   UNL     1      49.527  19.790  19.124  0.00  0.00    +0.028 C 
ATOM     44  C   UNL     1      48.709  21.084  19.283  0.00  0.00    +0.030 C 
ATOM     45  C   UNL     1      47.458  20.739  20.056  0.00  0.00    -0.051 C 
ATOM     46  C   UNL     1      46.803  19.518  19.409  0.00  0.00    +0.029 C 
ENDROOT
BRANCH  10   9
ATOM      7  C   UNL     1      43.118  21.003  18.929  0.00  0.00    +0.213 C 
ATOM      8  C   UNL     1      44.544  20.462  19.221  0.00  0.00    +0.058 C 
ATOM      9  C   UNL     1      45.371  21.771  19.137  0.00  0.00    -0.025 C 
ATOM     47  C   UNL     1      44.338  22.868  19.314  0.00  0.00    +0.484 C 
ATOM     48  O   UNL     1      44.558  24.054  19.252  0.00  0.00    -0.426 OA
ATOM     49  O   UNL     1      43.134  22.307  19.548  0.00  0.00    -0.333 OA
BRANCH   7   3
ATOM      1  C   UNL     1      40.279  21.679  18.461  0.00  0.00    +0.071 C 
ATOM      2  C   UNL     1      40.587  20.460  19.331  0.00  0.00    +0.134 C 
ATOM      3  C   UNL     1      42.056  20.110  19.573  0.00  0.00    +0.025 C 
ATOM     50  O   UNL     1      41.218  19.339  18.708  0.00  0.00    -0.329 OA
BRANCH   3   4
ATOM      4  C   UNL     1      42.431  19.504  20.927  0.00  0.00    +0.023 C 
ATOM      5  C   UNL     1      43.445  18.376  20.718  0.00  0.00    +0.030 C 
ATOM      6  C   UNL     1      41.177  18.944  21.601  0.00  0.00    +0.036 C 
ENDBRANCH   3   4
ENDBRANCH   7   3
ENDBRANCH  10   9
BRANCH  11  12
ATOM     12  O   UNL     1      45.859  22.610  22.505  0.00  0.00    -0.561 OA
ATOM     13  H   UNL     1      45.023  23.065  22.670  0.00  0.00    +0.379 HD
ENDBRANCH  11  12
BRANCH  24  25
ATOM     25  O   UNL     1      53.310  14.637  20.729  0.00  0.00    -0.360 OA
BRANCH  25  26
ATOM     26  C   UNL     1      54.091  14.202  21.844  0.00  0.00    +0.316 C 
ATOM     27  C   UNL     1      54.527  12.750  21.628  0.00  0.00    +0.140 C 
ATOM     30  C   UNL     1      55.412  12.673  20.380  0.00  0.00    +0.153 C 
ATOM     33  C   UNL     1      56.606  13.618  20.555  0.00  0.00    +0.166 C 
ATOM     36  C   UNL     1      56.090  15.036  20.813  0.00  0.00    +0.200 C 
ATOM     40  O   UNL     1      55.248  15.032  21.968  0.00  0.00    -0.372 OA
BRANCH  27  28
ATOM     28  O   UNL     1      53.373  11.927  21.447  0.00  0.00    -0.548 OA
ATOM     29  H   UNL     1      52.865  11.779  22.256  0.00  0.00    +0.386 HD
ENDBRANCH  27  28
BRANCH  30  31
ATOM     31  O   UNL     1      54.657  13.061  19.231  0.00  0.00    -0.529 OA
ATOM     32  H   UNL     1      54.167  12.337  18.821  0.00  0.00    +0.384 HD
ENDBRANCH  30  31
BRANCH  33  34
ATOM     34  O   UNL     1      57.402  13.607  19.369  0.00  0.00    -0.543 OA
ATOM     35  H   UNL     1      58.287  13.977  19.486  0.00  0.00    +0.384 HD
ENDBRANCH  33  34
BRANCH  36  37
ATOM     37  C   UNL     1      57.274  15.975  21.049  0.00  0.00    +0.207 C 
BRANCH  37  38
ATOM     38  O   UNL     1      57.641  16.598  19.817  0.00  0.00    -0.562 OA
ATOM     39  H   UNL     1      58.327  16.125  19.326  0.00  0.00    +0.380 HD
ENDBRANCH  37  38
ENDBRANCH  36  37
ENDBRANCH  25  26
ENDBRANCH  24  25
TORSDOF 11
ENDMDL
MODEL 2
REMARK VINA RESULT:      -6.6      0.985      2.053
REMARK  Name = ZINC95486042
REMARK  16 active torsions:
REMARK  status: ('A' for Active; 'I' for Inactive)
REMARK    1  A    between atoms: C1_1  and  C2_2
REMARK    2  A    between atoms: C3_4  and  C4_6
REMARK    3  A    between atoms: C3_4  and  C33_57
REMARK    4  A    between atoms: C6_9  and  C8_14
REMARK    5  A    between atoms: C9_16  and  O10_56
REMARK    6  A    between atoms: C12_21  and  C32_55
REMARK    7  A    between atoms: C20_31  and  C31_54
REMARK    8  A    between atoms: C23_34  and  O4_37
REMARK    9  A    between atoms: O4_37  and  C25_38
REMARK   10  A    between atoms: C26_40  and  O9_53
REMARK   11  A    between atoms: C27_42  and  O8_52
REMARK   12  A    between atoms: C28_44  and  O7_51
REMARK   13  A    between atoms: C29_46  and  C30_49
REMARK   14  A    between atoms: C30_49  and  O6_50
REMARK   15  A    between atoms: C33_57  and  C34_58
REMARK   16  A    between atoms: C33_57  and  C35_59
REMARK                            x       y       z     vdW  Elec       q    Type
REMARK                         _______ _______ _______ _____ _____    ______ ____
ROOT
ATOM     10  C   UNL     1      46.533  21.696  20.273  0.00  0.00    +0.039 C 
ATOM     11  C   UNL     1      45.888  21.333  21.635  0.00  0.00    +0.170 C 
ATOM     14  C   UNL     1      46.746  20.184  22.235  0.00  0.00    +0.005 C 
ATOM     15  C   UNL     1      48.102  20.383  21.551  0.00  0.00    +0.031 C 
ATOM     16  C   UNL     1      48.989  19.172  21.464  0.00  0.00    -0.086 C 
ATOM     17  C   UNL     1      48.706  18.100  22.135  0.00  0.00    -0.062 C 
ATOM     18  C   UNL     1      49.542  16.855  22.080  0.00  0.00    +0.060 C 
ATOM     19  C   UNL     1      50.984  17.230  21.717  0.00  0.00    +0.005 C 
ATOM     20  C   UNL     1      50.961  18.023  20.375  0.00  0.00    -0.043 C 
ATOM     21  C   UNL     1      50.308  17.188  19.271  0.00  0.00    +0.026 C 
ATOM     22  C   UNL     1      52.397  18.345  19.950  0.00  0.00    +0.020 C 
ATOM     23  C   UNL     1      53.179  17.048  19.745  0.00  0.00    +0.021 C 
ATOM     24  C   UNL     1      53.207  16.264  21.059  0.00  0.00    +0.144 C 
ATOM     41  C   UNL     1      51.790  15.940  21.535  0.00  0.00    +0.025 C 
ATOM     42  C   UNL     1      50.186  19.319  20.547  0.00  0.00    +0.027 C 
ATOM     43  C   UNL     1      49.803  19.892  19.185  0.00  0.00    +0.028 C 
ATOM     44  C   UNL     1      48.889  21.122  19.322  0.00  0.00    +0.030 C 
ATOM     45  C   UNL     1      47.661  20.693  20.090  0.00  0.00    -0.051 C 
ATOM     46  C   UNL     1      47.105  19.418  19.454  0.00  0.00    +0.029 C 
ENDROOT
BRANCH  10   9
ATOM      7  C   UNL     1      43.257  20.779  18.969  0.00  0.00    +0.213 C 
ATOM      8  C   UNL     1      44.676  20.260  19.326  0.00  0.00    +0.058 C 
ATOM      9  C   UNL     1      45.510  21.554  19.144  0.00  0.00    -0.025 C 
ATOM     47  C   UNL     1      44.480  22.665  19.214  0.00  0.00    +0.484 C 
ATOM     48  O   UNL     1      44.705  23.842  19.055  0.00  0.00    -0.426 OA
ATOM     49  O   UNL     1      43.270  22.130  19.477  0.00  0.00    -0.333 OA
BRANCH   7   3
ATOM      1  C   UNL     1      40.429  21.516  18.520  0.00  0.00    +0.071 C 
ATOM      2  C   UNL     1      40.719  20.327  19.439  0.00  0.00    +0.134 C 
ATOM      3  C   UNL     1      42.182  19.946  19.672  0.00  0.00    +0.025 C 
ATOM     50  O   UNL     1      41.306  19.162  18.856  0.00  0.00    -0.329 OA
BRANCH   3   4
ATOM      4  C   UNL     1      42.565  19.391  21.045  0.00  0.00    +0.023 C 
ATOM      5  C   UNL     1      43.500  18.192  20.868  0.00  0.00    +0.030 C 
ATOM      6  C   UNL     1      41.302  18.947  21.786  0.00  0.00    +0.036 C 
ENDBRANCH   3   4
ENDBRANCH   7   3
ENDBRANCH  10   9
BRANCH  11  12
ATOM     12  O   UNL     1      45.907  22.467  22.505  0.00  0.00    -0.561 OA
ATOM     13  H   UNL     1      45.563  22.289  23.390  0.00  0.00    +0.379 HD
ENDBRANCH  11  12
BRANCH  24  25
ATOM     25  O   UNL     1      53.949  15.057  20.879  0.00  0.00    -0.360 OA
BRANCH  25  26
ATOM     26  C   UNL     1      54.276  14.773  19.517  0.00  0.00    +0.316 C 
ATOM     27  C   UNL     1      55.793  14.623  19.376  0.00  0.00    +0.140 C 
ATOM     30  C   UNL     1      56.261  13.436  20.223  0.00  0.00    +0.153 C 
ATOM     33  C   UNL     1      55.508  12.177  19.780  0.00  0.00    +0.166 C 
ATOM     36  C   UNL     1      54.002  12.422  19.906  0.00  0.00    +0.200 C 
ATOM     40  O   UNL     1      53.639  13.558  19.118  0.00  0.00    -0.372 OA
BRANCH  27  28
ATOM     28  O   UNL     1      56.436  15.816  19.827  0.00  0.00    -0.548 OA
ATOM     29  H   UNL     1      57.159  16.112  19.257  0.00  0.00    +0.386 HD
ENDBRANCH  27  28
BRANCH  30  31
ATOM     31  O   UNL     1      55.991  13.696  21.602  0.00  0.00    -0.529 OA
ATOM     32  H   UNL     1      56.733  13.504  22.191  0.00  0.00    +0.384 HD
ENDBRANCH  30  31
BRANCH  33  34
ATOM     34  O   UNL     1      55.885  11.077  20.611  0.00  0.00    -0.543 OA
ATOM     35  H   UNL     1      56.592  10.530  20.243  0.00  0.00    +0.384 HD
ENDBRANCH  33  34
BRANCH  36  37
ATOM     37  C   UNL     1      53.242  11.192  19.408  0.00  0.00    +0.207 C 
BRANCH  37  38
ATOM     38  O   UNL     1      53.921  10.634  18.282  0.00  0.00    -0.562 OA
ATOM     39  H   UNL     1      54.175   9.707  18.395  0.00  0.00    +0.380 HD
ENDBRANCH  37  38
ENDBRANCH  36  37
ENDBRANCH  25  26
ENDBRANCH  24  25
TORSDOF 11
ENDMDL
MODEL 3
REMARK VINA RESULT:      -6.1      1.701     11.602
REMARK  Name = ZINC95486042
REMARK  16 active torsions:
REMARK  status: ('A' for Active; 'I' for Inactive)
REMARK    1  A    between atoms: C1_1  and  C2_2
REMARK    2  A    between atoms: C3_4  and  C4_6
REMARK    3  A    between atoms: C3_4  and  C33_57
REMARK    4  A    between atoms: C6_9  and  C8_14
REMARK    5  A    between atoms: C9_16  and  O10_56
REMARK    6  A    between atoms: C12_21  and  C32_55
REMARK    7  A    between atoms: C20_31  and  C31_54
REMARK    8  A    between atoms: C23_34  and  O4_37
REMARK    9  A    between atoms: O4_37  and  C25_38
REMARK   10  A    between atoms: C26_40  and  O9_53
REMARK   11  A    between atoms: C27_42  and  O8_52
REMARK   12  A    between atoms: C28_44  and  O7_51
REMARK   13  A    between atoms: C29_46  and  C30_49
REMARK   14  A    between atoms: C30_49  and  O6_50
REMARK   15  A    between atoms: C33_57  and  C34_58
REMARK   16  A    between atoms: C33_57  and  C35_59
REMARK                            x       y       z     vdW  Elec       q    Type
REMARK                         _______ _______ _______ _____ _____    ______ ____
ROOT
ATOM     10  C   UNL     1      54.039  16.171  20.896  0.00  0.00    +0.039 C 
ATOM     11  C   UNL     1      54.152  15.445  19.530  0.00  0.00    +0.170 C 
ATOM     14  C   UNL     1      52.878  15.825  18.725  0.00  0.00    +0.005 C 
ATOM     15  C   UNL     1      52.462  17.155  19.360  0.00  0.00    +0.031 C 
ATOM     16  C   UNL     1      51.013  17.536  19.222  0.00  0.00    -0.086 C 
ATOM     17  C   UNL     1      50.236  16.883  18.417  0.00  0.00    -0.062 C 
ATOM     18  C   UNL     1      48.780  17.203  18.245  0.00  0.00    +0.060 C 
ATOM     19  C   UNL     1      48.543  18.680  18.583  0.00  0.00    +0.005 C 
ATOM     20  C   UNL     1      49.071  18.941  20.027  0.00  0.00    -0.043 C 
ATOM     21  C   UNL     1      48.371  18.022  21.029  0.00  0.00    +0.026 C 
ATOM     22  C   UNL     1      48.780  20.393  20.420  0.00  0.00    +0.020 C 
ATOM     23  C   UNL     1      47.272  20.643  20.392  0.00  0.00    +0.021 C 
ATOM     24  C   UNL     1      46.746  20.389  18.977  0.00  0.00    +0.144 C 
ATOM     41  C   UNL     1      47.038  18.954  18.532  0.00  0.00    +0.025 C 
ATOM     42  C   UNL     1      50.570  18.697  20.087  0.00  0.00    +0.027 C 
ATOM     43  C   UNL     1      51.025  18.544  21.537  0.00  0.00    +0.028 C 
ATOM     44  C   UNL     1      52.508  18.146  21.629  0.00  0.00    +0.030 C 
ATOM     45  C   UNL     1      52.679  16.851  20.871  0.00  0.00    -0.051 C 
ATOM     46  C   UNL     1      51.612  15.862  21.341  0.00  0.00    +0.029 C 
ENDROOT
BRANCH  10   9
ATOM      7  C   UNL     1      54.181  12.779  22.219  0.00  0.00    +0.213 C 
ATOM      8  C   UNL     1      53.245  13.912  21.718  0.00  0.00    +0.058 C 
ATOM      9  C   UNL     1      54.106  15.160  22.043  0.00  0.00    -0.025 C 
ATOM     47  C   UNL     1      55.510  14.608  22.189  0.00  0.00    +0.484 C 
ATOM     48  O   UNL     1      56.486  15.247  22.504  0.00  0.00    -0.426 OA
ATOM     49  O   UNL     1      55.496  13.288  21.913  0.00  0.00    -0.333 OA
BRANCH   7   3
ATOM      1  C   UNL     1      56.141  10.585  22.505  0.00  0.00    +0.071 C 
ATOM      2  C   UNL     1      54.926  10.343  21.608  0.00  0.00    +0.134 C 
ATOM      3  C   UNL     1      53.912  11.478  21.460  0.00  0.00    +0.025 C 
ATOM     50  O   UNL     1      53.638  10.302  22.227  0.00  0.00    -0.329 OA
BRANCH   3   4
ATOM      4  C   UNL     1      53.204  11.631  20.112  0.00  0.00    +0.023 C 
ATOM      5  C   UNL     1      52.267  10.440  19.890  0.00  0.00    +0.030 C 
ATOM      6  C   UNL     1      54.244  11.677  18.991  0.00  0.00    +0.036 C 
ENDBRANCH   3   4
ENDBRANCH   7   3
ENDBRANCH  10   9
BRANCH  11  12
ATOM     12  O   UNL     1      55.322  15.884  18.836  0.00  0.00    -0.561 OA
ATOM     13  H   UNL     1      56.142  15.766  19.334  0.00  0.00    +0.379 HD
ENDBRANCH  11  12
BRANCH  24  25
ATOM     25  O   UNL     1      45.340  20.635  18.939  0.00  0.00    -0.360 OA
BRANCH  25  26
ATOM     26  C   UNL     1      44.796  21.093  20.179  0.00  0.00    +0.316 C 
ATOM     27  C   UNL     1      43.535  21.919  19.911  0.00  0.00    +0.140 C 
ATOM     30  C   UNL     1      42.484  21.028  19.243  0.00  0.00    +0.153 C 
ATOM     33  C   UNL     1      42.207  19.819  20.145  0.00  0.00    +0.166 C 
ATOM     36  C   UNL     1      43.519  19.075  20.404  0.00  0.00    +0.200 C 
ATOM     40  O   UNL     1      44.463  19.969  20.997  0.00  0.00    -0.372 OA
BRANCH  27  28
ATOM     28  O   UNL     1      43.854  23.012  19.048  0.00  0.00    -0.548 OA
ATOM     29  H   UNL     1      43.603  22.870  18.125  0.00  0.00    +0.386 HD
ENDBRANCH  27  28
BRANCH  30  31
ATOM     31  O   UNL     1      42.971  20.579  17.977  0.00  0.00    -0.529 OA
ATOM     32  H   UNL     1      42.486  19.826  17.614  0.00  0.00    +0.384 HD
ENDBRANCH  30  31
BRANCH  33  34
ATOM     34  O   UNL     1      41.280  18.944  19.500  0.00  0.00    -0.543 OA
ATOM     35  H   UNL     1      40.443  18.840  19.973  0.00  0.00    +0.384 HD
ENDBRANCH  33  34
BRANCH  36  37
ATOM     37  C   UNL     1      43.262  17.902  21.352  0.00  0.00    +0.207 C 
BRANCH  37  38
ATOM     38  O   UNL     1      42.049  18.127  22.071  0.00  0.00    -0.562 OA
ATOM     39  H   UNL     1      42.175  18.540  22.937  0.00  0.00    +0.380 HD
ENDBRANCH  37  38
ENDBRANCH  36  37
ENDBRANCH  25  26
ENDBRANCH  24  25
TORSDOF 11
ENDMDL
MODEL 4
REMARK VINA RESULT:      -6.0      1.648     12.258
REMARK  Name = ZINC95486042
REMARK  16 active torsions:
REMARK  status: ('A' for Active; 'I' for Inactive)
REMARK    1  A    between atoms: C1_1  and  C2_2
REMARK    2  A    between atoms: C3_4  and  C4_6
REMARK    3  A    between atoms: C3_4  and  C33_57
REMARK    4  A    between atoms: C6_9  and  C8_14
REMARK    5  A    between atoms: C9_16  and  O10_56
REMARK    6  A    between atoms: C12_21  and  C32_55
REMARK    7  A    between atoms: C20_31  and  C31_54
REMARK    8  A    between atoms: C23_34  and  O4_37
REMARK    9  A    between atoms: O4_37  and  C25_38
REMARK   10  A    between atoms: C26_40  and  O9_53
REMARK   11  A    between atoms: C27_42  and  O8_52
REMARK   12  A    between atoms: C28_44  and  O7_51
REMARK   13  A    between atoms: C29_46  and  C30_49
REMARK   14  A    between atoms: C30_49  and  O6_50
REMARK   15  A    between atoms: C33_57  and  C34_58
REMARK   16  A    between atoms: C33_57  and  C35_59
REMARK                            x       y       z     vdW  Elec       q    Type
REMARK                         _______ _______ _______ _____ _____    ______ ____
ROOT
ATOM     10  C   UNL     1      52.790  14.610  20.445  0.00  0.00    +0.039 C 
ATOM     11  C   UNL     1      52.110  13.823  21.594  0.00  0.00    +0.170 C 
ATOM     14  C   UNL     1      50.792  14.580  21.924  0.00  0.00    +0.005 C 
ATOM     15  C   UNL     1      50.491  15.318  20.616  0.00  0.00    +0.031 C 
ATOM     16  C   UNL     1      49.628  16.545  20.726  0.00  0.00    -0.086 C 
ATOM     17  C   UNL     1      49.000  16.810  21.828  0.00  0.00    -0.062 C 
ATOM     18  C   UNL     1      48.136  18.024  22.007  0.00  0.00    +0.060 C 
ATOM     19  C   UNL     1      47.604  18.472  20.640  0.00  0.00    +0.005 C 
ATOM     20  C   UNL     1      48.821  18.708  19.694  0.00  0.00    -0.043 C 
ATOM     21  C   UNL     1      49.769  19.751  20.291  0.00  0.00    +0.026 C 
ATOM     22  C   UNL     1      48.322  19.228  18.343  0.00  0.00    +0.020 C 
ATOM     23  C   UNL     1      47.584  20.552  18.540  0.00  0.00    +0.021 C 
ATOM     24  C   UNL     1      46.386  20.329  19.467  0.00  0.00    +0.144 C 
ATOM     41  C   UNL     1      46.837  19.784  20.824  0.00  0.00    +0.025 C 
ATOM     42  C   UNL     1      49.578  17.407  19.482  0.00  0.00    +0.027 C 
ATOM     43  C   UNL     1      50.969  17.689  18.918  0.00  0.00    +0.028 C 
ATOM     44  C   UNL     1      51.818  16.409  18.831  0.00  0.00    +0.030 C 
ATOM     45  C   UNL     1      51.908  15.829  20.223  0.00  0.00    -0.051 C 
ATOM     46  C   UNL     1      52.327  16.937  21.191  0.00  0.00    +0.029 C 
ENDROOT
BRANCH  10   9
ATOM      7  C   UNL     1      56.322  13.968  21.067  0.00  0.00    +0.213 C 
ATOM      8  C   UNL     1      54.894  13.923  21.673  0.00  0.00    +0.058 C 
ATOM      9  C   UNL     1      54.199  15.043  20.857  0.00  0.00    -0.025 C 
ATOM     47  C   UNL     1      55.086  15.210  19.638  0.00  0.00    +0.484 C 
ATOM     48  O   UNL     1      54.933  16.033  18.767  0.00  0.00    -0.426 OA
ATOM     49  O   UNL     1      56.075  14.295  19.683  0.00  0.00    -0.333 OA
BRANCH   7   3
ATOM      1  C   UNL     1      59.048  13.891  22.208  0.00  0.00    +0.071 C 
ATOM      2  C   UNL     1      58.417  12.566  21.779  0.00  0.00    +0.134 C 
ATOM      3  C   UNL     1      57.007  12.605  21.189  0.00  0.00    +0.025 C 
ATOM     50  O   UNL     1      57.273  12.107  22.503  0.00  0.00    -0.329 OA
BRANCH   3   4
ATOM      4  C   UNL     1      56.662  11.589  20.098  0.00  0.00    +0.023 C 
ATOM      5  C   UNL     1      55.176  11.229  20.188  0.00  0.00    +0.030 C 
ATOM      6  C   UNL     1      57.505  10.326  20.291  0.00  0.00    +0.036 C 
ENDBRANCH   3   4
ENDBRANCH   7   3
ENDBRANCH  10   9
BRANCH  11  12
ATOM     12  O   UNL     1      51.818  12.489  21.170  0.00  0.00    -0.561 OA
ATOM     13  H   UNL     1      51.372  12.437  20.315  0.00  0.00    +0.379 HD
ENDBRANCH  11  12
BRANCH  24  25
ATOM     25  O   UNL     1      45.683  21.559  19.644  0.00  0.00    -0.360 OA
BRANCH  25  26
ATOM     26  C   UNL     1      44.748  21.544  20.724  0.00  0.00    +0.316 C 
ATOM     27  C   UNL     1      44.331  22.979  21.060  0.00  0.00    +0.140 C 
ATOM     30  C   UNL     1      43.629  23.595  19.845  0.00  0.00    +0.153 C 
ATOM     33  C   UNL     1      42.433  22.717  19.460  0.00  0.00    +0.166 C 
ATOM     36  C   UNL     1      42.923  21.292  19.187  0.00  0.00    +0.200 C 
ATOM     40  O   UNL     1      43.594  20.790  20.345  0.00  0.00    -0.372 OA
BRANCH  27  28
ATOM     28  O   UNL     1      45.489  23.749  21.384  0.00  0.00    -0.548 OA
ATOM     29  H   UNL     1      46.319  23.364  21.071  0.00  0.00    +0.386 HD
ENDBRANCH  27  28
BRANCH  30  31
ATOM     31  O   UNL     1      44.543  23.667  18.749  0.00  0.00    -0.529 OA
ATOM     32  H   UNL     1      45.394  23.241  18.919  0.00  0.00    +0.384 HD
ENDBRANCH  30  31
BRANCH  33  34
ATOM     34  O   UNL     1      41.813  23.243  18.286  0.00  0.00    -0.543 OA
ATOM     35  H   UNL     1      41.302  24.049  18.439  0.00  0.00    +0.384 HD
ENDBRANCH  33  34
BRANCH  36  37
ATOM     37  C   UNL     1      41.728  20.395  18.861  0.00  0.00    +0.207 C 
BRANCH  37  38
ATOM     38  O   UNL     1      40.559  20.906  19.502  0.00  0.00    -0.562 OA
ATOM     39  H   UNL     1      40.543  20.770  20.460  0.00  0.00    +0.380 HD
ENDBRANCH  37  38
ENDBRANCH  36  37
ENDBRANCH  25  26
ENDBRANCH  24  25
TORSDOF 11
ENDMDL
MODEL 5
REMARK VINA RESULT:      -5.2      1.853     11.852
REMARK  Name = ZINC95486042
REMARK  16 active torsions:
REMARK  status: ('A' for Active; 'I' for Inactive)
REMARK    1  A    between atoms: C1_1  and  C2_2
REMARK    2  A    between atoms: C3_4  and  C4_6
REMARK    3  A    between atoms: C3_4  and  C33_57
REMARK    4  A    between atoms: C6_9  and  C8_14
REMARK    5  A    between atoms: C9_16  and  O10_56
REMARK    6  A    between atoms: C12_21  and  C32_55
REMARK    7  A    between atoms: C20_31  and  C31_54
REMARK    8  A    between atoms: C23_34  and  O4_37
REMARK    9  A    between atoms: O4_37  and  C25_38
REMARK   10  A    between atoms: C26_40  and  O9_53
REMARK   11  A    between atoms: C27_42  and  O8_52
REMARK   12  A    between atoms: C28_44  and  O7_51
REMARK   13  A    between atoms: C29_46  and  C30_49
REMARK   14  A    between atoms: C30_49  and  O6_50
REMARK   15  A    between atoms: C33_57  and  C34_58
REMARK   16  A    between atoms: C33_57  and  C35_59
REMARK                            x       y       z     vdW  Elec       q    Type
REMARK                         _______ _______ _______ _____ _____    ______ ____
ROOT
ATOM     10  C   UNL     1      54.928  16.198  21.190  0.00  0.00    +0.039 C 
ATOM     11  C   UNL     1      54.962  15.549  19.782  0.00  0.00    +0.170 C 
ATOM     14  C   UNL     1      53.635  15.954  19.081  0.00  0.00    +0.005 C 
ATOM     15  C   UNL     1      53.246  17.242  19.812  0.00  0.00    +0.031 C 
ATOM     16  C   UNL     1      51.787  17.609  19.787  0.00  0.00    -0.086 C 
ATOM     17  C   UNL     1      50.968  16.989  18.997  0.00  0.00    -0.062 C 
ATOM     18  C   UNL     1      49.500  17.298  18.935  0.00  0.00    +0.060 C 
ATOM     19  C   UNL     1      49.270  18.750  19.369  0.00  0.00    +0.005 C 
ATOM     20  C   UNL     1      49.885  18.941  20.789  0.00  0.00    -0.043 C 
ATOM     21  C   UNL     1      49.260  17.958  21.781  0.00  0.00    +0.026 C 
ATOM     22  C   UNL     1      49.604  20.364  21.279  0.00  0.00    +0.020 C 
ATOM     23  C   UNL     1      48.095  20.594  21.359  0.00  0.00    +0.021 C 
ATOM     24  C   UNL     1      47.482  20.410  19.969  0.00  0.00    +0.144 C 
ATOM     41  C   UNL     1      47.761  19.006  19.428  0.00  0.00    +0.025 C 
ATOM     42  C   UNL     1      51.388  18.715  20.742  0.00  0.00    +0.027 C 
ATOM     43  C   UNL     1      51.935  18.489  22.149  0.00  0.00    +0.028 C 
ATOM     44  C   UNL     1      53.425  18.109  22.126  0.00  0.00    +0.030 C 
ATOM     45  C   UNL     1      53.562  16.859  21.288  0.00  0.00    -0.051 C 
ATOM     46  C   UNL     1      52.538  15.831  21.769  0.00  0.00    +0.029 C 
ENDROOT
BRANCH  10   9
ATOM      7  C   UNL     1      55.109  12.740  22.321  0.00  0.00    +0.213 C 
ATOM      8  C   UNL     1      54.159  13.916  21.971  0.00  0.00    +0.058 C 
ATOM      9  C   UNL     1      55.078  15.128  22.273  0.00  0.00    -0.025 C 
ATOM     47  C   UNL     1      56.476  14.540  22.254  0.00  0.00    +0.484 C 
ATOM     48  O   UNL     1      57.494  15.141  22.505  0.00  0.00    -0.426 OA
ATOM     49  O   UNL     1      56.402  13.236  21.915  0.00  0.00    -0.333 OA
BRANCH   7   3
ATOM      1  C   UNL     1      56.912  10.404  22.504  0.00  0.00    +0.071 C 
ATOM      2  C   UNL     1      55.668  10.278  21.622  0.00  0.00    +0.134 C 
ATOM      3  C   UNL     1      54.735  11.486  21.527  0.00  0.00    +0.025 C 
ATOM     50  O   UNL     1      54.391  10.308  22.263  0.00  0.00    -0.329 OA
BRANCH   3   4
ATOM      4  C   UNL     1      54.019  11.732  20.198  0.00  0.00    +0.023 C 
ATOM      5  C   UNL     1      53.127  10.531  19.870  0.00  0.00    +0.030 C 
ATOM      6  C   UNL     1      55.055  11.917  19.087  0.00  0.00    +0.036 C 
ENDBRANCH   3   4
ENDBRANCH   7   3
ENDBRANCH  10   9
BRANCH  11  12
ATOM     12  O   UNL     1      56.081  16.043  19.041  0.00  0.00    -0.561 OA
ATOM     13  H   UNL     1      56.927  15.657  19.304  0.00  0.00    +0.379 HD
ENDBRANCH  11  12
BRANCH  24  25
ATOM     25  O   UNL     1      46.074  20.638  20.033  0.00  0.00    -0.360 OA
BRANCH  25  26
ATOM     26  C   UNL     1      45.442  20.736  18.755  0.00  0.00    +0.316 C 
ATOM     27  C   UNL     1      44.005  20.218  18.854  0.00  0.00    +0.140 C 
ATOM     30  C   UNL     1      43.219  21.098  19.831  0.00  0.00    +0.153 C 
ATOM     33  C   UNL     1      43.281  22.553  19.353  0.00  0.00    +0.166 C 
ATOM     36  C   UNL     1      44.746  22.981  19.234  0.00  0.00    +0.200 C 
ATOM     40  O   UNL     1      45.426  22.103  18.336  0.00  0.00    -0.372 OA
BRANCH  27  28
ATOM     28  O   UNL     1      44.014  18.870  19.327  0.00  0.00    -0.548 OA
ATOM     29  H   UNL     1      44.888  18.457  19.321  0.00  0.00    +0.386 HD
ENDBRANCH  27  28
BRANCH  30  31
ATOM     31  O   UNL     1      43.794  20.998  21.135  0.00  0.00    -0.529 OA
ATOM     32  H   UNL     1      44.246  20.160  21.302  0.00  0.00    +0.384 HD
ENDBRANCH  30  31
BRANCH  33  34
ATOM     34  O   UNL     1      42.611  23.395  20.294  0.00  0.00    -0.543 OA
ATOM     35  H   UNL     1      41.659  23.240  20.351  0.00  0.00    +0.384 HD
ENDBRANCH  33  34
BRANCH  36  37
ATOM     37  C   UNL     1      44.818  24.413  18.700  0.00  0.00    +0.207 C 
BRANCH  37  38
ATOM     38  O   UNL     1      44.823  25.331  19.794  0.00  0.00    -0.562 OA
ATOM     39  H   UNL     1      44.469  24.965  20.617  0.00  0.00    +0.380 HD
ENDBRANCH  37  38
ENDBRANCH  36  37
ENDBRANCH  25  26
ENDBRANCH  24  25
TORSDOF 11
ENDMDL
MODEL 6
REMARK VINA RESULT:      -5.1      2.109     12.336
REMARK  Name = ZINC95486042
REMARK  16 active torsions:
REMARK  status: ('A' for Active; 'I' for Inactive)
REMARK    1  A    between atoms: C1_1  and  C2_2
REMARK    2  A    between atoms: C3_4  and  C4_6
REMARK    3  A    between atoms: C3_4  and  C33_57
REMARK    4  A    between atoms: C6_9  and  C8_14
REMARK    5  A    between atoms: C9_16  and  O10_56
REMARK    6  A    between atoms: C12_21  and  C32_55
REMARK    7  A    between atoms: C20_31  and  C31_54
REMARK    8  A    between atoms: C23_34  and  O4_37
REMARK    9  A    between atoms: O4_37  and  C25_38
REMARK   10  A    between atoms: C26_40  and  O9_53
REMARK   11  A    between atoms: C27_42  and  O8_52
REMARK   12  A    between atoms: C28_44  and  O7_51
REMARK   13  A    between atoms: C29_46  and  C30_49
REMARK   14  A    between atoms: C30_49  and  O6_50
REMARK   15  A    between atoms: C33_57  and  C34_58
REMARK   16  A    between atoms: C33_57  and  C35_59
REMARK                            x       y       z     vdW  Elec       q    Type
REMARK                         _______ _______ _______ _____ _____    ______ ____
ROOT
ATOM     10  C   UNL     1      52.213  13.304  20.300  0.00  0.00    +0.039 C 
ATOM     11  C   UNL     1      51.401  12.336  21.198  0.00  0.00    +0.170 C 
ATOM     14  C   UNL     1      49.977  12.948  21.326  0.00  0.00    +0.005 C 
ATOM     15  C   UNL     1      49.867  13.812  20.067  0.00  0.00    +0.031 C 
ATOM     16  C   UNL     1      48.884  14.950  20.123  0.00  0.00    -0.086 C 
ATOM     17  C   UNL     1      48.031  15.033  21.094  0.00  0.00    -0.062 C 
ATOM     18  C   UNL     1      47.035  16.150  21.215  0.00  0.00    +0.060 C 
ATOM     19  C   UNL     1      46.739  16.717  19.821  0.00  0.00    +0.005 C 
ATOM     20  C   UNL     1      48.089  17.155  19.174  0.00  0.00    -0.043 C 
ATOM     21  C   UNL     1      48.796  18.186  20.056  0.00  0.00    +0.026 C 
ATOM     22  C   UNL     1      47.815  17.794  17.810  0.00  0.00    +0.020 C 
ATOM     23  C   UNL     1      46.928  19.027  17.985  0.00  0.00    +0.021 C 
ATOM     24  C   UNL     1      45.600  18.605  18.619  0.00  0.00    +0.144 C 
ATOM     41  C   UNL     1      45.828  17.937  19.977  0.00  0.00    +0.025 C 
ATOM     42  C   UNL     1      48.995  15.949  18.990  0.00  0.00    +0.027 C 
ATOM     43  C   UNL     1      50.435  16.399  18.755  0.00  0.00    +0.028 C 
ATOM     44  C   UNL     1      51.405  15.205  18.714  0.00  0.00    +0.030 C 
ATOM     45  C   UNL     1      51.277  14.471  20.028  0.00  0.00    -0.051 C 
ATOM     46  C   UNL     1      51.389  15.483  21.169  0.00  0.00    +0.029 C 
ENDROOT
BRANCH  10   9
ATOM      7  C   UNL     1      55.541  12.808  21.698  0.00  0.00    +0.213 C 
ATOM      8  C   UNL     1      54.017  12.672  21.959  0.00  0.00    +0.058 C 
ATOM      9  C   UNL     1      53.465  13.787  21.034  0.00  0.00    -0.025 C 
ATOM     47  C   UNL     1      54.596  14.041  20.055  0.00  0.00    +0.484 C 
ATOM     48  O   UNL     1      54.600  14.888  19.193  0.00  0.00    -0.426 OA
ATOM     49  O   UNL     1      55.597  13.173  20.303  0.00  0.00    -0.333 OA
BRANCH   7   3
ATOM      1  C   UNL     1      53.893  10.490  22.504  0.00  0.00    +0.071 C 
ATOM      2  C   UNL     1      55.401  10.277  22.356  0.00  0.00    +0.134 C 
ATOM      3  C   UNL     1      56.253  11.476  21.939  0.00  0.00    +0.025 C 
ATOM     50  O   UNL     1      55.965  10.393  21.049  0.00  0.00    -0.329 OA
BRANCH   3   4
ATOM      4  C   UNL     1      57.671  11.574  22.505  0.00  0.00    +0.023 C 
ATOM      5  C   UNL     1      58.149  13.027  22.436  0.00  0.00    +0.030 C 
ATOM      6  C   UNL     1      58.611  10.689  21.684  0.00  0.00    +0.036 C 
ENDBRANCH   3   4
ENDBRANCH   7   3
ENDBRANCH  10   9
BRANCH  11  12
ATOM     12  O   UNL     1      51.328  11.044  20.590  0.00  0.00    -0.561 OA
ATOM     13  H   UNL     1      52.189  10.634  20.437  0.00  0.00    +0.379 HD
ENDBRANCH  11  12
BRANCH  24  25
ATOM     25  O   UNL     1      44.760  19.750  18.772  0.00  0.00    -0.360 OA
BRANCH  25  26
ATOM     26  C   UNL     1      43.890  19.685  19.905  0.00  0.00    +0.316 C 
ATOM     27  C   UNL     1      44.026  20.968  20.728  0.00  0.00    +0.140 C 
ATOM     30  C   UNL     1      43.589  22.162  19.873  0.00  0.00    +0.153 C 
ATOM     33  C   UNL     1      42.153  21.932  19.389  0.00  0.00    +0.166 C 
ATOM     36  C   UNL     1      42.090  20.611  18.618  0.00  0.00    +0.200 C 
ATOM     40  O   UNL     1      42.538  19.547  19.460  0.00  0.00    -0.372 OA
BRANCH  27  28
ATOM     28  O   UNL     1      45.387  21.138  21.127  0.00  0.00    -0.548 OA
ATOM     29  H   UNL     1      46.029  20.793  20.492  0.00  0.00    +0.386 HD
ENDBRANCH  27  28
BRANCH  30  31
ATOM     31  O   UNL     1      44.460  22.290  18.748  0.00  0.00    -0.529 OA
ATOM     32  H   UNL     1      44.209  22.993  18.135  0.00  0.00    +0.384 HD
ENDBRANCH  30  31
BRANCH  33  34
ATOM     34  O   UNL     1      41.760  23.006  18.533  0.00  0.00    -0.543 OA
ATOM     35  H   UNL     1      40.937  23.438  18.798  0.00  0.00    +0.384 HD
ENDBRANCH  33  34
BRANCH  36  37
ATOM     37  C   UNL     1      40.648  20.343  18.182  0.00  0.00    +0.207 C 
BRANCH  37  38
ATOM     38  O   UNL     1      39.769  21.237  18.866  0.00  0.00    -0.562 OA
ATOM     39  H   UNL     1      39.801  21.160  19.830  0.00  0.00    +0.380 HD
ENDBRANCH  37  38
ENDBRANCH  36  37
ENDBRANCH  25  26
ENDBRANCH  24  25
TORSDOF 11
ENDMDL
MODEL 7
REMARK VINA RESULT:      -5.1      1.914     11.388
REMARK  Name = ZINC95486042
REMARK  16 active torsions:
REMARK  status: ('A' for Active; 'I' for Inactive)
REMARK    1  A    between atoms: C1_1  and  C2_2
REMARK    2  A    between atoms: C3_4  and  C4_6
REMARK    3  A    between atoms: C3_4  and  C33_57
REMARK    4  A    between atoms: C6_9  and  C8_14
REMARK    5  A    between atoms: C9_16  and  O10_56
REMARK    6  A    between atoms: C12_21  and  C32_55
REMARK    7  A    between atoms: C20_31  and  C31_54
REMARK    8  A    between atoms: C23_34  and  O4_37
REMARK    9  A    between atoms: O4_37  and  C25_38
REMARK   10  A    between atoms: C26_40  and  O9_53
REMARK   11  A    between atoms: C27_42  and  O8_52
REMARK   12  A    between atoms: C28_44  and  O7_51
REMARK   13  A    between atoms: C29_46  and  C30_49
REMARK   14  A    between atoms: C30_49  and  O6_50
REMARK   15  A    between atoms: C33_57  and  C34_58
REMARK   16  A    between atoms: C33_57  and  C35_59
REMARK                            x       y       z     vdW  Elec       q    Type
REMARK                         _______ _______ _______ _____ _____    ______ ____
ROOT
ATOM     10  C   UNL     1      53.571  16.299  21.068  0.00  0.00    +0.039 C 
ATOM     11  C   UNL     1      53.799  16.071  19.551  0.00  0.00    +0.170 C 
ATOM     14  C   UNL     1      52.514  16.574  18.835  0.00  0.00    +0.005 C 
ATOM     15  C   UNL     1      51.941  17.580  19.837  0.00  0.00    +0.031 C 
ATOM     16  C   UNL     1      50.464  17.850  19.741  0.00  0.00    -0.086 C 
ATOM     17  C   UNL     1      49.784  17.427  18.723  0.00  0.00    -0.062 C 
ATOM     18  C   UNL     1      48.307  17.650  18.575  0.00  0.00    +0.060 C 
ATOM     19  C   UNL     1      47.905  18.907  19.355  0.00  0.00    +0.005 C 
ATOM     20  C   UNL     1      48.362  18.731  20.836  0.00  0.00    -0.043 C 
ATOM     21  C   UNL     1      47.736  17.474  21.444  0.00  0.00    +0.026 C 
ATOM     22  C   UNL     1      47.906  19.942  21.656  0.00  0.00    +0.020 C 
ATOM     23  C   UNL     1      46.382  20.048  21.618  0.00  0.00    +0.021 C 
ATOM     24  C   UNL     1      45.925  20.222  20.168  0.00  0.00    +0.144 C 
ATOM     41  C   UNL     1      46.381  19.044  19.304  0.00  0.00    +0.025 C 
ATOM     42  C   UNL     1      49.876  18.619  20.906  0.00  0.00    +0.027 C 
ATOM     43  C   UNL     1      50.304  18.044  22.254  0.00  0.00    +0.028 C 
ATOM     44  C   UNL     1      51.818  17.776  22.303  0.00  0.00    +0.030 C 
ATOM     45  C   UNL     1      52.148  16.821  21.181  0.00  0.00    -0.051 C 
ATOM     46  C   UNL     1      51.180  15.639  21.242  0.00  0.00    +0.029 C 
ENDROOT
BRANCH  10   9
ATOM      7  C   UNL     1      53.321  12.674  21.344  0.00  0.00    +0.213 C 
ATOM      8  C   UNL     1      52.552  14.017  21.473  0.00  0.00    +0.058 C 
ATOM      9  C   UNL     1      53.714  14.979  21.831  0.00  0.00    -0.025 C 
ATOM     47  C   UNL     1      54.957  14.234  21.385  0.00  0.00    +0.484 C 
ATOM     48  O   UNL     1      56.094  14.612  21.539  0.00  0.00    -0.426 OA
ATOM     49  O   UNL     1      54.590  13.080  20.791  0.00  0.00    -0.333 OA
BRANCH   7   3
ATOM      1  C   UNL     1      52.038  10.277  22.505  0.00  0.00    +0.071 C 
ATOM      2  C   UNL     1      51.930  10.482  20.993  0.00  0.00    +0.134 C 
ATOM      3  C   UNL     1      52.594  11.722  20.392  0.00  0.00    +0.025 C 
ATOM     50  O   UNL     1      51.174  11.601  20.525  0.00  0.00    -0.329 OA
BRANCH   3   4
ATOM      4  C   UNL     1      53.191  11.602  18.989  0.00  0.00    +0.023 C 
ATOM      5  C   UNL     1      52.067  11.639  17.951  0.00  0.00    +0.030 C 
ATOM      6  C   UNL     1      53.952  10.280  18.870  0.00  0.00    +0.036 C 
ENDBRANCH   3   4
ENDBRANCH   7   3
ENDBRANCH  10   9
BRANCH  11  12
ATOM     12  O   UNL     1      54.934  16.819  19.108  0.00  0.00    -0.561 OA
ATOM     13  H   UNL     1      54.788  17.774  19.077  0.00  0.00    +0.379 HD
ENDBRANCH  11  12
BRANCH  24  25
ATOM     25  O   UNL     1      44.502  20.336  20.126  0.00  0.00    -0.360 OA
BRANCH  25  26
ATOM     26  C   UNL     1      43.870  19.411  19.239  0.00  0.00    +0.316 C 
ATOM     27  C   UNL     1      43.189  18.307  20.052  0.00  0.00    +0.140 C 
ATOM     30  C   UNL     1      42.099  18.930  20.929  0.00  0.00    +0.153 C 
ATOM     33  C   UNL     1      41.110  19.688  20.036  0.00  0.00    +0.166 C 
ATOM     36  C   UNL     1      41.872  20.738  19.224  0.00  0.00    +0.200 C 
ATOM     40  O   UNL     1      42.891  20.096  18.454  0.00  0.00    -0.372 OA
BRANCH  27  28
ATOM     28  O   UNL     1      44.155  17.657  20.879  0.00  0.00    -0.548 OA
ATOM     29  H   UNL     1      44.686  18.263  21.414  0.00  0.00    +0.386 HD
ENDBRANCH  27  28
BRANCH  30  31
ATOM     31  O   UNL     1      42.693  19.834  21.862  0.00  0.00    -0.529 OA
ATOM     32  H   UNL     1      42.092  20.521  22.180  0.00  0.00    +0.384 HD
ENDBRANCH  30  31
BRANCH  33  34
ATOM     34  O   UNL     1      40.128  20.332  20.850  0.00  0.00    -0.543 OA
ATOM     35  H   UNL     1      40.035  19.948  21.732  0.00  0.00    +0.384 HD
ENDBRANCH  33  34
BRANCH  36  37
ATOM     37  C   UNL     1      40.903  21.459  18.285  0.00  0.00    +0.207 C 
BRANCH  37  38
ATOM     38  O   UNL     1      41.289  22.828  18.161  0.00  0.00    -0.562 OA
ATOM     39  H   UNL     1      41.912  23.125  18.838  0.00  0.00    +0.380 HD
ENDBRANCH  37  38
ENDBRANCH  36  37
ENDBRANCH  25  26
ENDBRANCH  24  25
TORSDOF 11
ENDMDL
MODEL 8
REMARK VINA RESULT:      -5.0      1.736      3.544
REMARK  Name = ZINC95486042
REMARK  16 active torsions:
REMARK  status: ('A' for Active; 'I' for Inactive)
REMARK    1  A    between atoms: C1_1  and  C2_2
REMARK    2  A    between atoms: C3_4  and  C4_6
REMARK    3  A    between atoms: C3_4  and  C33_57
REMARK    4  A    between atoms: C6_9  and  C8_14
REMARK    5  A    between atoms: C9_16  and  O10_56
REMARK    6  A    between atoms: C12_21  and  C32_55
REMARK    7  A    between atoms: C20_31  and  C31_54
REMARK    8  A    between atoms: C23_34  and  O4_37
REMARK    9  A    between atoms: O4_37  and  C25_38
REMARK   10  A    between atoms: C26_40  and  O9_53
REMARK   11  A    between atoms: C27_42  and  O8_52
REMARK   12  A    between atoms: C28_44  and  O7_51
REMARK   13  A    between atoms: C29_46  and  C30_49
REMARK   14  A    between atoms: C30_49  and  O6_50
REMARK   15  A    between atoms: C33_57  and  C34_58
REMARK   16  A    between atoms: C33_57  and  C35_59
REMARK                            x       y       z     vdW  Elec       q    Type
REMARK                         _______ _______ _______ _____ _____    ______ ____
ROOT
ATOM     10  C   UNL     1      46.226  19.181  19.542  0.00  0.00    +0.039 C 
ATOM     11  C   UNL     1      46.621  20.676  19.652  0.00  0.00    +0.170 C 
ATOM     14  C   UNL     1      48.160  20.708  19.870  0.00  0.00    +0.005 C 
ATOM     15  C   UNL     1      48.613  19.375  19.267  0.00  0.00    +0.031 C 
ATOM     16  C   UNL     1      49.919  18.824  19.772  0.00  0.00    -0.086 C 
ATOM     17  C   UNL     1      50.705  19.557  20.495  0.00  0.00    -0.062 C 
ATOM     18  C   UNL     1      52.013  19.063  21.041  0.00  0.00    +0.060 C 
ATOM     19  C   UNL     1      52.546  17.943  20.140  0.00  0.00    +0.005 C 
ATOM     20  C   UNL     1      51.455  16.834  20.039  0.00  0.00    -0.043 C 
ATOM     21  C   UNL     1      51.098  16.305  21.429  0.00  0.00    +0.026 C 
ATOM     22  C   UNL     1      51.992  15.668  19.203  0.00  0.00    +0.020 C 
ATOM     23  C   UNL     1      53.234  15.080  19.872  0.00  0.00    +0.021 C 
ATOM     24  C   UNL     1      54.311  16.163  19.975  0.00  0.00    +0.144 C 
ATOM     41  C   UNL     1      53.808  17.362  20.783  0.00  0.00    +0.025 C 
ATOM     42  C   UNL     1      50.204  17.390  19.378  0.00  0.00    +0.027 C 
ATOM     43  C   UNL     1      49.013  16.471  19.640  0.00  0.00    +0.028 C 
ATOM     44  C   UNL     1      47.701  17.077  19.115  0.00  0.00    +0.030 C 
ATOM     45  C   UNL     1      47.512  18.412  19.798  0.00  0.00    -0.051 C 
ATOM     46  C   UNL     1      47.696  18.223  21.304  0.00  0.00    +0.029 C 
ENDROOT
BRANCH  10   9
ATOM      7  C   UNL     1      42.799  18.978  20.764  0.00  0.00    +0.213 C 
ATOM      8  C   UNL     1      44.047  19.890  20.619  0.00  0.00    +0.058 C 
ATOM      9  C   UNL     1      45.178  18.829  20.601  0.00  0.00    -0.025 C 
ATOM     47  C   UNL     1      44.464  17.541  20.239  0.00  0.00    +0.484 C 
ATOM     48  O   UNL     1      44.976  16.448  20.177  0.00  0.00    -0.426 OA
ATOM     49  O   UNL     1      43.163  17.808  20.001  0.00  0.00    -0.333 OA
BRANCH   7   3
ATOM      1  C   UNL     1      40.158  17.790  21.359  0.00  0.00    +0.071 C 
ATOM      2  C   UNL     1      40.196  19.038  20.474  0.00  0.00    +0.134 C 
ATOM      3  C   UNL     1      41.562  19.652  20.166  0.00  0.00    +0.025 C 
ATOM     50  O   UNL     1      40.633  20.262  21.067  0.00  0.00    -0.329 OA
BRANCH   3   4
ATOM      4  C   UNL     1      41.759  20.304  18.795  0.00  0.00    +0.023 C 
ATOM      5  C   UNL     1      41.605  21.821  18.925  0.00  0.00    +0.030 C 
ATOM      6  C   UNL     1      40.711  19.766  17.819  0.00  0.00    +0.036 C 
ENDBRANCH   3   4
ENDBRANCH   7   3
ENDBRANCH  10   9
BRANCH  11  12
ATOM     12  O   UNL     1      46.281  21.364  18.445  0.00  0.00    -0.561 OA
ATOM     13  H   UNL     1      45.376  21.205  18.144  0.00  0.00    +0.379 HD
ENDBRANCH  11  12
BRANCH  24  25
ATOM     25  O   UNL     1      55.480  15.618  20.586  0.00  0.00    -0.360 OA
BRANCH  25  26
ATOM     26  C   UNL     1      56.379  14.993  19.668  0.00  0.00    +0.316 C 
ATOM     27  C   UNL     1      57.802  15.042  20.231  0.00  0.00    +0.140 C 
ATOM     30  C   UNL     1      57.851  14.250  21.541  0.00  0.00    +0.153 C 
ATOM     33  C   UNL     1      57.379  12.816  21.277  0.00  0.00    +0.166 C 
ATOM     36  C   UNL     1      55.973  12.853  20.673  0.00  0.00    +0.200 C 
ATOM     40  O   UNL     1      55.991  13.630  19.474  0.00  0.00    -0.372 OA
BRANCH  27  28
ATOM     28  O   UNL     1      58.171  16.399  20.478  0.00  0.00    -0.548 OA
ATOM     29  H   UNL     1      57.513  17.045  20.187  0.00  0.00    +0.386 HD
ENDBRANCH  27  28
BRANCH  30  31
ATOM     31  O   UNL     1      56.995  14.866  22.505  0.00  0.00    -0.529 OA
ATOM     32  H   UNL     1      57.284  14.747  23.420  0.00  0.00    +0.384 HD
ENDBRANCH  30  31
BRANCH  33  34
ATOM     34  O   UNL     1      57.354  12.087  22.505  0.00  0.00    -0.543 OA
ATOM     35  H   UNL     1      58.138  12.216  23.056  0.00  0.00    +0.384 HD
ENDBRANCH  33  34
BRANCH  36  37
ATOM     37  C   UNL     1      55.518  11.429  20.350  0.00  0.00    +0.207 C 
BRANCH  37  38
ATOM     38  O   UNL     1      54.878  10.861  21.494  0.00  0.00    -0.562 OA
ATOM     39  H   UNL     1      55.370  10.135  21.901  0.00  0.00    +0.380 HD
ENDBRANCH  37  38
ENDBRANCH  36  37
ENDBRANCH  25  26
ENDBRANCH  24  25
TORSDOF 11
ENDMDL
MODEL 9
REMARK VINA RESULT:      -4.4      2.754     11.226
REMARK  Name = ZINC95486042
REMARK  16 active torsions:
REMARK  status: ('A' for Active; 'I' for Inactive)
REMARK    1  A    between atoms: C1_1  and  C2_2
REMARK    2  A    between atoms: C3_4  and  C4_6
REMARK    3  A    between atoms: C3_4  and  C33_57
REMARK    4  A    between atoms: C6_9  and  C8_14
REMARK    5  A    between atoms: C9_16  and  O10_56
REMARK    6  A    between atoms: C12_21  and  C32_55
REMARK    7  A    between atoms: C20_31  and  C31_54
REMARK    8  A    between atoms: C23_34  and  O4_37
REMARK    9  A    between atoms: O4_37  and  C25_38
REMARK   10  A    between atoms: C26_40  and  O9_53
REMARK   11  A    between atoms: C27_42  and  O8_52
REMARK   12  A    between atoms: C28_44  and  O7_51
REMARK   13  A    between atoms: C29_46  and  C30_49
REMARK   14  A    between atoms: C30_49  and  O6_50
REMARK   15  A    between atoms: C33_57  and  C34_58
REMARK   16  A    between atoms: C33_57  and  C35_59
REMARK                            x       y       z     vdW  Elec       q    Type
REMARK                         _______ _______ _______ _____ _____    ______ ____
ROOT
ATOM     10  C   UNL     1      53.037  13.635  20.602  0.00  0.00    +0.039 C 
ATOM     11  C   UNL     1      54.002  14.398  19.658  0.00  0.00    +0.170 C 
ATOM     14  C   UNL     1      53.290  15.729  19.287  0.00  0.00    +0.005 C 
ATOM     15  C   UNL     1      52.327  15.935  20.459  0.00  0.00    +0.031 C 
ATOM     16  C   UNL     1      51.123  16.795  20.190  0.00  0.00    -0.086 C 
ATOM     17  C   UNL     1      51.045  17.494  19.102  0.00  0.00    -0.062 C 
ATOM     18  C   UNL     1      49.865  18.360  18.768  0.00  0.00    +0.060 C 
ATOM     19  C   UNL     1      49.173  18.794  20.065  0.00  0.00    +0.005 C 
ATOM     20  C   UNL     1      48.796  17.514  20.871  0.00  0.00    -0.043 C 
ATOM     21  C   UNL     1      47.894  16.602  20.038  0.00  0.00    +0.026 C 
ATOM     22  C   UNL     1      48.036  17.916  22.139  0.00  0.00    +0.020 C 
ATOM     23  C   UNL     1      46.754  18.657  21.759  0.00  0.00    +0.021 C 
ATOM     24  C   UNL     1      47.115  19.916  20.967  0.00  0.00    +0.144 C 
ATOM     41  C   UNL     1      47.899  19.562  19.702  0.00  0.00    +0.025 C 
ATOM     42  C   UNL     1      50.053  16.753  21.261  0.00  0.00    +0.027 C 
ATOM     43  C   UNL     1      49.703  15.326  21.673  0.00  0.00    +0.028 C 
ATOM     44  C   UNL     1      50.963  14.482  21.930  0.00  0.00    +0.030 C 
ATOM     45  C   UNL     1      51.782  14.491  20.660  0.00  0.00    -0.051 C 
ATOM     46  C   UNL     1      50.871  14.131  19.486  0.00  0.00    +0.029 C 
ENDROOT
BRANCH  10   9
ATOM      7  C   UNL     1      52.159  11.389  17.870  0.00  0.00    +0.213 C 
ATOM      8  C   UNL     1      51.606  12.363  18.945  0.00  0.00    +0.058 C 
ATOM      9  C   UNL     1      52.711  12.254  20.027  0.00  0.00    -0.025 C 
ATOM     47  C   UNL     1      53.903  11.691  19.277  0.00  0.00    +0.484 C 
ATOM     48  O   UNL     1      54.965  11.394  19.770  0.00  0.00    -0.426 OA
ATOM     49  O   UNL     1      53.587  11.573  17.971  0.00  0.00    -0.333 OA
BRANCH   7   3
ATOM      1  C   UNL     1      53.586  10.277  15.532  0.00  0.00    +0.071 C 
ATOM      2  C   UNL     1      52.398  11.203  15.268  0.00  0.00    +0.134 C 
ATOM      3  C   UNL     1      51.659  11.779  16.477  0.00  0.00    +0.025 C 
ATOM     50  O   UNL     1      51.100  10.749  15.656  0.00  0.00    -0.329 OA
BRANCH   3   4
ATOM      4  C   UNL     1      51.074  13.187  16.351  0.00  0.00    +0.023 C 
ATOM      5  C   UNL     1      49.587  13.092  16.000  0.00  0.00    +0.030 C 
ATOM      6  C   UNL     1      51.812  13.950  15.248  0.00  0.00    +0.036 C 
ENDBRANCH   3   4
ENDBRANCH   7   3
ENDBRANCH  10   9
BRANCH  11  12
ATOM     12  O   UNL     1      55.234  14.669  20.330  0.00  0.00    -0.561 OA
ATOM     13  H   UNL     1      55.989  14.782  19.737  0.00  0.00    +0.379 HD
ENDBRANCH  11  12
BRANCH  24  25
ATOM     25  O   UNL     1      45.922  20.621  20.621  0.00  0.00    -0.360 OA
BRANCH  25  26
ATOM     26  C   UNL     1      45.749  20.819  19.216  0.00  0.00    +0.316 C 
ATOM     27  C   UNL     1      44.402  20.237  18.780  0.00  0.00    +0.140 C 
ATOM     30  C   UNL     1      43.275  20.987  19.497  0.00  0.00    +0.153 C 
ATOM     33  C   UNL     1      43.392  22.483  19.184  0.00  0.00    +0.166 C 
ATOM     36  C   UNL     1      44.779  22.978  19.604  0.00  0.00    +0.200 C 
ATOM     40  O   UNL     1      45.780  22.218  18.925  0.00  0.00    -0.372 OA
BRANCH  27  28
ATOM     28  O   UNL     1      44.346  18.851  19.121  0.00  0.00    -0.548 OA
ATOM     29  H   UNL     1      43.605  18.617  19.696  0.00  0.00    +0.386 HD
ENDBRANCH  27  28
BRANCH  30  31
ATOM     31  O   UNL     1      43.385  20.783  20.907  0.00  0.00    -0.529 OA
ATOM     32  H   UNL     1      43.683  19.897  21.153  0.00  0.00    +0.384 HD
ENDBRANCH  30  31
BRANCH  33  34
ATOM     34  O   UNL     1      42.389  23.202  19.903  0.00  0.00    -0.543 OA
ATOM     35  H   UNL     1      41.830  23.761  19.347  0.00  0.00    +0.384 HD
ENDBRANCH  33  34
BRANCH  36  37
ATOM     37  C   UNL     1      44.926  24.456  19.240  0.00  0.00    +0.207 C 
BRANCH  37  38
ATOM     38  O   UNL     1      44.105  24.753  18.110  0.00  0.00    -0.562 OA
ATOM     39  H   UNL     1      44.577  24.741  17.266  0.00  0.00    +0.380 HD
ENDBRANCH  37  38
ENDBRANCH  36  37
ENDBRANCH  25  26
ENDBRANCH  24  25
TORSDOF 11
ENDMDL
