MODEL 1
REMARK VINA RESULT:      -6.5      0.000      0.000
REMARK  Name = ZINC95486340
REMARK  9 active torsions:
REMARK  status: ('A' for Active; 'I' for Inactive)
REMARK    1  A    between atoms: C3_3  and  O10_36
REMARK    2  A    between atoms: C4_4  and  O9_35
REMARK    3  A    between atoms: C6_6  and  C7_7
REMARK    4  A    between atoms: C8_9  and  C16_22
REMARK    5  A    between atoms: C11_14  and  O4_21
REMARK    6  A    between atoms: C13_16  and  O3_20
REMARK    7  A    between atoms: C17_24  and  O8_34
REMARK    8  A    between atoms: C18_26  and  O7_33
REMARK    9  A    between atoms: C19_28  and  O6_32
REMARK                            x       y       z     vdW  Elec       q    Type
REMARK                         _______ _______ _______ _____ _____    ______ ____
ROOT
ATOM     11  C   UNL     1      45.859  20.610  19.167  0.00  0.00    +0.292 C 
ATOM     12  C   UNL     1      44.774  20.113  20.133  0.00  0.00    -0.024 C 
ATOM     25  C   UNL     1      45.114  18.678  20.492  0.00  0.00    +0.432 C 
ATOM     26  C   UNL     1      45.615  17.830  19.405  0.00  0.00    -0.257 A 
ATOM     27  C   UNL     1      45.714  16.439  19.569  0.00  0.00    +0.218 A 
ATOM     30  C   UNL     1      46.201  15.664  18.531  0.00  0.00    -0.084 A 
ATOM     31  C   UNL     1      46.584  16.260  17.337  0.00  0.00    +0.190 A 
ATOM     34  C   UNL     1      46.482  17.635  17.167  0.00  0.00    -0.068 A 
ATOM     35  C   UNL     1      45.996  18.430  18.191  0.00  0.00    +0.227 A 
ATOM     36  O   UNL     1      44.980  18.253  21.622  0.00  0.00    -0.410 OA
ATOM     37  O   UNL     1      45.887  19.768  18.015  0.00  0.00    -0.282 OA
ENDROOT
BRANCH  11  10
ATOM      1  C   UNL     1      47.285  20.792  21.215  0.00  0.00    +0.038 A 
ATOM      2  C   UNL     1      48.514  20.754  21.850  0.00  0.00    +0.014 A 
ATOM      3  C   UNL     1      49.662  20.492  21.121  0.00  0.00    +0.090 A 
ATOM      6  C   UNL     1      49.577  20.267  19.749  0.00  0.00    +0.089 A 
ATOM      9  C   UNL     1      48.343  20.305  19.120  0.00  0.00    +0.024 A 
ATOM     10  C   UNL     1      47.200  20.568  19.854  0.00  0.00    -0.126 A 
BRANCH   3   4
ATOM      4  O   UNL     1      50.871  20.455  21.743  0.00  0.00    -0.487 OA
ATOM      5  H   UNL     1      50.952  21.073  22.483  0.00  0.00    +0.391 HD
ENDBRANCH   3   4
BRANCH   6   7
ATOM      7  O   UNL     1      50.701  20.009  19.030  0.00  0.00    -0.485 OA
ATOM      8  H   UNL     1      51.064  20.782  18.575  0.00  0.00    +0.390 HD
ENDBRANCH   6   7
ENDBRANCH  11  10
BRANCH  12  13
ATOM     13  C   UNL     1      43.405  20.171  19.452  0.00  0.00    +0.203 C 
ATOM     14  C   UNL     1      43.087  21.619  19.069  0.00  0.00    +0.167 C 
ATOM     17  C   UNL     1      41.690  21.677  18.443  0.00  0.00    +0.153 C 
ATOM     20  C   UNL     1      40.674  21.102  19.434  0.00  0.00    +0.122 C 
ATOM     23  C   UNL     1      41.085  19.674  19.803  0.00  0.00    +0.198 C 
ATOM     24  O   UNL     1      42.405  19.686  20.351  0.00  0.00    -0.345 OA
BRANCH  14  15
ATOM     15  O   UNL     1      43.122  22.441  20.238  0.00  0.00    -0.540 OA
ATOM     16  H   UNL     1      42.334  22.368  20.793  0.00  0.00    +0.388 HD
ENDBRANCH  14  15
BRANCH  17  18
ATOM     18  O   UNL     1      41.356  23.035  18.148  0.00  0.00    -0.560 OA
ATOM     19  H   UNL     1      41.634  23.325  17.267  0.00  0.00    +0.393 HD
ENDBRANCH  17  18
BRANCH  20  21
ATOM     21  O   UNL     1      39.378  21.086  18.833  0.00  0.00    -0.564 OA
ATOM     22  H   UNL     1      38.757  21.719  19.219  0.00  0.00    +0.387 HD
ENDBRANCH  20  21
ENDBRANCH  12  13
BRANCH  27  28
ATOM     28  O   UNL     1      45.337  15.860  20.736  0.00  0.00    -0.477 OA
ATOM     29  H   UNL     1      44.383  15.868  20.888  0.00  0.00    +0.399 HD
ENDBRANCH  27  28
BRANCH  31  32
ATOM     32  O   UNL     1      47.064  15.493  16.326  0.00  0.00    -0.492 OA
ATOM     33  H   UNL     1      46.495  14.745  16.097  0.00  0.00    +0.400 HD
ENDBRANCH  31  32
TORSDOF 9
ENDMDL
MODEL 2
REMARK VINA RESULT:      -5.8      2.032      3.140
REMARK  Name = ZINC95486340
REMARK  9 active torsions:
REMARK  status: ('A' for Active; 'I' for Inactive)
REMARK    1  A    between atoms: C3_3  and  O10_36
REMARK    2  A    between atoms: C4_4  and  O9_35
REMARK    3  A    between atoms: C6_6  and  C7_7
REMARK    4  A    between atoms: C8_9  and  C16_22
REMARK    5  A    between atoms: C11_14  and  O4_21
REMARK    6  A    between atoms: C13_16  and  O3_20
REMARK    7  A    between atoms: C17_24  and  O8_34
REMARK    8  A    between atoms: C18_26  and  O7_33
REMARK    9  A    between atoms: C19_28  and  O6_32
REMARK                            x       y       z     vdW  Elec       q    Type
REMARK                         _______ _______ _______ _____ _____    ______ ____
ROOT
ATOM     11  C   UNL     1      46.203  18.039  18.466  0.00  0.00    +0.292 C 
ATOM     12  C   UNL     1      45.883  18.187  19.960  0.00  0.00    -0.024 C 
ATOM     25  C   UNL     1      46.602  17.065  20.687  0.00  0.00    +0.432 C 
ATOM     26  C   UNL     1      46.603  15.752  20.032  0.00  0.00    -0.257 A 
ATOM     27  C   UNL     1      47.012  14.604  20.729  0.00  0.00    +0.218 A 
ATOM     30  C   UNL     1      47.014  13.381  20.084  0.00  0.00    -0.084 A 
ATOM     31  C   UNL     1      46.612  13.292  18.758  0.00  0.00    +0.190 A 
ATOM     34  C   UNL     1      46.200  14.423  18.065  0.00  0.00    -0.068 A 
ATOM     35  C   UNL     1      46.188  15.658  18.692  0.00  0.00    +0.227 A 
ATOM     36  O   UNL     1      47.150  17.245  21.756  0.00  0.00    -0.410 OA
ATOM     37  O   UNL     1      45.774  16.755  18.014  0.00  0.00    -0.282 OA
ENDROOT
BRANCH  11  10
ATOM      1  C   UNL     1      48.327  17.388  17.314  0.00  0.00    +0.038 A 
ATOM      2  C   UNL     1      49.691  17.509  17.116  0.00  0.00    +0.014 A 
ATOM      3  C   UNL     1      50.420  18.421  17.861  0.00  0.00    +0.090 A 
ATOM      6  C   UNL     1      49.779  19.214  18.809  0.00  0.00    +0.089 A 
ATOM      9  C   UNL     1      48.412  19.087  19.002  0.00  0.00    +0.024 A 
ATOM     10  C   UNL     1      47.690  18.176  18.254  0.00  0.00    -0.126 A 
BRANCH   3   4
ATOM      4  O   UNL     1      51.762  18.540  17.668  0.00  0.00    -0.487 OA
ATOM      5  H   UNL     1      52.100  18.020  16.926  0.00  0.00    +0.391 HD
ENDBRANCH   3   4
BRANCH   6   7
ATOM      7  O   UNL     1      50.491  20.110  19.542  0.00  0.00    -0.485 OA
ATOM      8  H   UNL     1      51.284  19.741  19.954  0.00  0.00    +0.390 HD
ENDBRANCH   6   7
ENDBRANCH  11  10
BRANCH  12  13
ATOM     13  C   UNL     1      44.374  18.070  20.183  0.00  0.00    +0.203 C 
ATOM     14  C   UNL     1      43.696  19.384  19.783  0.00  0.00    +0.167 C 
ATOM     17  C   UNL     1      42.194  19.281  20.065  0.00  0.00    +0.153 C 
ATOM     20  C   UNL     1      41.986  18.946  21.545  0.00  0.00    +0.122 C 
ATOM     23  C   UNL     1      42.729  17.650  21.877  0.00  0.00    +0.198 C 
ATOM     24  O   UNL     1      44.115  17.802  21.562  0.00  0.00    -0.345 OA
BRANCH  14  15
ATOM     15  O   UNL     1      44.253  20.459  20.542  0.00  0.00    -0.540 OA
ATOM     16  H   UNL     1      43.658  21.213  20.650  0.00  0.00    +0.388 HD
ENDBRANCH  14  15
BRANCH  17  18
ATOM     18  O   UNL     1      41.565  20.528  19.762  0.00  0.00    -0.560 OA
ATOM     19  H   UNL     1      40.974  20.849  20.457  0.00  0.00    +0.393 HD
ENDBRANCH  17  18
BRANCH  20  21
ATOM     21  O   UNL     1      40.591  18.777  21.804  0.00  0.00    -0.564 OA
ATOM     22  H   UNL     1      40.398  18.227  22.577  0.00  0.00    +0.387 HD
ENDBRANCH  20  21
ENDBRANCH  12  13
BRANCH  27  28
ATOM     28  O   UNL     1      47.403  14.695  22.025  0.00  0.00    -0.477 OA
ATOM     29  H   UNL     1      47.085  13.973  22.583  0.00  0.00    +0.399 HD
ENDBRANCH  27  28
BRANCH  31  32
ATOM     32  O   UNL     1      46.621  12.088  18.132  0.00  0.00    -0.492 OA
ATOM     33  H   UNL     1      46.926  12.125  17.214  0.00  0.00    +0.400 HD
ENDBRANCH  31  32
TORSDOF 9
ENDMDL
MODEL 3
REMARK VINA RESULT:      -5.7      3.163      6.917
REMARK  Name = ZINC95486340
REMARK  9 active torsions:
REMARK  status: ('A' for Active; 'I' for Inactive)
REMARK    1  A    between atoms: C3_3  and  O10_36
REMARK    2  A    between atoms: C4_4  and  O9_35
REMARK    3  A    between atoms: C6_6  and  C7_7
REMARK    4  A    between atoms: C8_9  and  C16_22
REMARK    5  A    between atoms: C11_14  and  O4_21
REMARK    6  A    between atoms: C13_16  and  O3_20
REMARK    7  A    between atoms: C17_24  and  O8_34
REMARK    8  A    between atoms: C18_26  and  O7_33
REMARK    9  A    between atoms: C19_28  and  O6_32
REMARK                            x       y       z     vdW  Elec       q    Type
REMARK                         _______ _______ _______ _____ _____    ______ ____
ROOT
ATOM     11  C   UNL     1      50.194  18.137  19.810  0.00  0.00    +0.292 C 
ATOM     12  C   UNL     1      49.439  16.955  19.183  0.00  0.00    -0.024 C 
ATOM     25  C   UNL     1      48.309  17.534  18.351  0.00  0.00    +0.432 C 
ATOM     26  C   UNL     1      47.595  18.681  18.921  0.00  0.00    -0.257 A 
ATOM     27  C   UNL     1      46.386  19.123  18.360  0.00  0.00    +0.218 A 
ATOM     30  C   UNL     1      45.739  20.214  18.910  0.00  0.00    -0.084 A 
ATOM     31  C   UNL     1      46.281  20.863  20.012  0.00  0.00    +0.190 A 
ATOM     34  C   UNL     1      47.473  20.427  20.576  0.00  0.00    -0.068 A 
ATOM     35  C   UNL     1      48.137  19.335  20.042  0.00  0.00    +0.227 A 
ATOM     36  O   UNL     1      48.013  17.072  17.268  0.00  0.00    -0.410 OA
ATOM     37  O   UNL     1      49.292  18.906  20.604  0.00  0.00    -0.282 OA
ENDROOT
BRANCH  11  10
ATOM      1  C   UNL     1      50.735  20.379  18.841  0.00  0.00    +0.038 A 
ATOM      2  C   UNL     1      51.260  21.179  17.841  0.00  0.00    +0.014 A 
ATOM      3  C   UNL     1      51.818  20.601  16.714  0.00  0.00    +0.090 A 
ATOM      6  C   UNL     1      51.850  19.215  16.589  0.00  0.00    +0.089 A 
ATOM      9  C   UNL     1      51.323  18.419  17.594  0.00  0.00    +0.024 A 
ATOM     10  C   UNL     1      50.767  19.003  18.717  0.00  0.00    -0.126 A 
BRANCH   3   4
ATOM      4  O   UNL     1      52.334  21.386  15.730  0.00  0.00    -0.487 OA
ATOM      5  H   UNL     1      53.242  21.677  15.894  0.00  0.00    +0.391 HD
ENDBRANCH   3   4
BRANCH   6   7
ATOM      7  O   UNL     1      52.398  18.642  15.484  0.00  0.00    -0.485 OA
ATOM      8  H   UNL     1      53.362  18.573  15.513  0.00  0.00    +0.390 HD
ENDBRANCH   6   7
ENDBRANCH  11  10
BRANCH  12  13
ATOM     13  C   UNL     1      48.871  16.059  20.285  0.00  0.00    +0.203 C 
ATOM     14  C   UNL     1      49.988  15.179  20.854  0.00  0.00    +0.167 C 
ATOM     17  C   UNL     1      49.399  14.242  21.913  0.00  0.00    +0.153 C 
ATOM     20  C   UNL     1      48.275  13.416  21.281  0.00  0.00    +0.122 C 
ATOM     23  C   UNL     1      47.225  14.364  20.695  0.00  0.00    +0.198 C 
ATOM     24  O   UNL     1      47.843  15.228  19.740  0.00  0.00    -0.345 OA
BRANCH  14  15
ATOM     15  O   UNL     1      50.570  14.407  19.802  0.00  0.00    -0.540 OA
ATOM     16  H   UNL     1      50.425  14.772  18.919  0.00  0.00    +0.388 HD
ENDBRANCH  14  15
BRANCH  17  18
ATOM     18  O   UNL     1      50.421  13.369  22.399  0.00  0.00    -0.560 OA
ATOM     19  H   UNL     1      50.851  12.845  21.708  0.00  0.00    +0.393 HD
ENDBRANCH  17  18
BRANCH  20  21
ATOM     21  O   UNL     1      47.671  12.590  22.278  0.00  0.00    -0.564 OA
ATOM     22  H   UNL     1      47.995  11.678  22.281  0.00  0.00    +0.387 HD
ENDBRANCH  20  21
ENDBRANCH  12  13
BRANCH  27  28
ATOM     28  O   UNL     1      45.859  18.485  17.285  0.00  0.00    -0.477 OA
ATOM     29  H   UNL     1      45.732  19.054  16.514  0.00  0.00    +0.399 HD
ENDBRANCH  27  28
BRANCH  31  32
ATOM     32  O   UNL     1      45.641  21.936  20.543  0.00  0.00    -0.492 OA
ATOM     33  H   UNL     1      45.007  22.352  19.942  0.00  0.00    +0.400 HD
ENDBRANCH  31  32
TORSDOF 9
ENDMDL
MODEL 4
REMARK VINA RESULT:      -5.7      2.909      6.160
REMARK  Name = ZINC95486340
REMARK  9 active torsions:
REMARK  status: ('A' for Active; 'I' for Inactive)
REMARK    1  A    between atoms: C3_3  and  O10_36
REMARK    2  A    between atoms: C4_4  and  O9_35
REMARK    3  A    between atoms: C6_6  and  C7_7
REMARK    4  A    between atoms: C8_9  and  C16_22
REMARK    5  A    between atoms: C11_14  and  O4_21
REMARK    6  A    between atoms: C13_16  and  O3_20
REMARK    7  A    between atoms: C17_24  and  O8_34
REMARK    8  A    between atoms: C18_26  and  O7_33
REMARK    9  A    between atoms: C19_28  and  O6_32
REMARK                            x       y       z     vdW  Elec       q    Type
REMARK                         _______ _______ _______ _____ _____    ______ ____
ROOT
ATOM     11  C   UNL     1      49.250  18.423  20.067  0.00  0.00    +0.292 C 
ATOM     12  C   UNL     1      47.999  17.811  19.420  0.00  0.00    -0.024 C 
ATOM     25  C   UNL     1      47.142  18.960  18.922  0.00  0.00    +0.432 C 
ATOM     26  C   UNL     1      47.053  20.138  19.792  0.00  0.00    -0.257 A 
ATOM     27  C   UNL     1      46.097  21.137  19.549  0.00  0.00    +0.218 A 
ATOM     30  C   UNL     1      46.042  22.243  20.378  0.00  0.00    -0.084 A 
ATOM     31  C   UNL     1      46.926  22.360  21.443  0.00  0.00    +0.190 A 
ATOM     34  C   UNL     1      47.870  21.372  21.692  0.00  0.00    -0.068 A 
ATOM     35  C   UNL     1      47.942  20.255  20.876  0.00  0.00    +0.227 A 
ATOM     36  O   UNL     1      46.561  18.908  17.857  0.00  0.00    -0.410 OA
ATOM     37  O   UNL     1      48.856  19.289  21.131  0.00  0.00    -0.282 OA
ENDROOT
BRANCH  11  10
ATOM      1  C   UNL     1      50.394  20.512  19.302  0.00  0.00    +0.038 A 
ATOM      2  C   UNL     1      51.098  21.239  18.358  0.00  0.00    +0.014 A 
ATOM      3  C   UNL     1      51.423  20.662  17.141  0.00  0.00    +0.090 A 
ATOM      6  C   UNL     1      51.041  19.351  16.871  0.00  0.00    +0.089 A 
ATOM      9  C   UNL     1      50.337  18.628  17.822  0.00  0.00    +0.024 A 
ATOM     10  C   UNL     1      50.016  19.210  19.034  0.00  0.00    -0.126 A 
BRANCH   3   4
ATOM      4  O   UNL     1      52.113  21.376  16.212  0.00  0.00    -0.487 OA
ATOM      5  H   UNL     1      51.741  22.250  16.030  0.00  0.00    +0.391 HD
ENDBRANCH   3   4
BRANCH   6   7
ATOM      7  O   UNL     1      51.358  18.780  15.679  0.00  0.00    -0.485 OA
ATOM      8  H   UNL     1      50.621  18.321  15.254  0.00  0.00    +0.390 HD
ENDBRANCH   6   7
ENDBRANCH  11  10
BRANCH  12  13
ATOM     13  C   UNL     1      47.226  16.992  20.456  0.00  0.00    +0.203 C 
ATOM     14  C   UNL     1      47.998  15.709  20.773  0.00  0.00    +0.167 C 
ATOM     17  C   UNL     1      47.189  14.867  21.764  0.00  0.00    +0.153 C 
ATOM     20  C   UNL     1      45.809  14.581  21.166  0.00  0.00    +0.122 C 
ATOM     23  C   UNL     1      45.120  15.908  20.834  0.00  0.00    +0.198 C 
ATOM     24  O   UNL     1      45.939  16.655  19.932  0.00  0.00    -0.345 OA
BRANCH  14  15
ATOM     15  O   UNL     1      48.204  14.966  19.570  0.00  0.00    -0.540 OA
ATOM     16  H   UNL     1      48.216  15.508  18.770  0.00  0.00    +0.388 HD
ENDBRANCH  14  15
BRANCH  17  18
ATOM     18  O   UNL     1      47.870  13.635  22.011  0.00  0.00    -0.560 OA
ATOM     19  H   UNL     1      48.608  13.712  22.632  0.00  0.00    +0.393 HD
ENDBRANCH  17  18
BRANCH  20  21
ATOM     21  O   UNL     1      45.020  13.857  22.112  0.00  0.00    -0.564 OA
ATOM     22  H   UNL     1      45.004  14.251  22.995  0.00  0.00    +0.387 HD
ENDBRANCH  20  21
ENDBRANCH  12  13
BRANCH  27  28
ATOM     28  O   UNL     1      45.234  21.018  18.509  0.00  0.00    -0.477 OA
ATOM     29  H   UNL     1      44.780  20.166  18.470  0.00  0.00    +0.399 HD
ENDBRANCH  27  28
BRANCH  31  32
ATOM     32  O   UNL     1      46.868  23.450  22.248  0.00  0.00    -0.492 OA
ATOM     33  H   UNL     1      46.771  24.286  21.771  0.00  0.00    +0.400 HD
ENDBRANCH  31  32
TORSDOF 9
ENDMDL
MODEL 5
REMARK VINA RESULT:      -5.6      3.442      7.380
REMARK  Name = ZINC95486340
REMARK  9 active torsions:
REMARK  status: ('A' for Active; 'I' for Inactive)
REMARK    1  A    between atoms: C3_3  and  O10_36
REMARK    2  A    between atoms: C4_4  and  O9_35
REMARK    3  A    between atoms: C6_6  and  C7_7
REMARK    4  A    between atoms: C8_9  and  C16_22
REMARK    5  A    between atoms: C11_14  and  O4_21
REMARK    6  A    between atoms: C13_16  and  O3_20
REMARK    7  A    between atoms: C17_24  and  O8_34
REMARK    8  A    between atoms: C18_26  and  O7_33
REMARK    9  A    between atoms: C19_28  and  O6_32
REMARK                            x       y       z     vdW  Elec       q    Type
REMARK                         _______ _______ _______ _____ _____    ______ ____
ROOT
ATOM     11  C   UNL     1      50.493  16.945  18.212  0.00  0.00    +0.292 C 
ATOM     12  C   UNL     1      49.409  16.310  17.329  0.00  0.00    -0.024 C 
ATOM     25  C   UNL     1      48.239  17.275  17.289  0.00  0.00    +0.432 C 
ATOM     26  C   UNL     1      47.900  17.949  18.547  0.00  0.00    -0.257 A 
ATOM     27  C   UNL     1      46.694  18.655  18.680  0.00  0.00    +0.218 A 
ATOM     30  C   UNL     1      46.405  19.291  19.873  0.00  0.00    -0.084 A 
ATOM     31  C   UNL     1      47.302  19.227  20.932  0.00  0.00    +0.190 A 
ATOM     34  C   UNL     1      48.493  18.524  20.809  0.00  0.00    -0.068 A 
ATOM     35  C   UNL     1      48.802  17.879  19.624  0.00  0.00    +0.227 A 
ATOM     36  O   UNL     1      47.615  17.480  16.268  0.00  0.00    -0.410 OA
ATOM     37  O   UNL     1      49.961  17.185  19.514  0.00  0.00    -0.282 OA
ENDROOT
BRANCH  11  10
ATOM      1  C   UNL     1      51.120  18.344  16.236  0.00  0.00    +0.038 A 
ATOM      2  C   UNL     1      51.529  19.540  15.671  0.00  0.00    +0.014 A 
ATOM      3  C   UNL     1      51.756  20.644  16.475  0.00  0.00    +0.090 A 
ATOM      6  C   UNL     1      51.572  20.548  17.852  0.00  0.00    +0.089 A 
ATOM      9  C   UNL     1      51.163  19.348  18.411  0.00  0.00    +0.024 A 
ATOM     10  C   UNL     1      50.938  18.249  17.602  0.00  0.00    -0.126 A 
BRANCH   3   4
ATOM      4  O   UNL     1      52.158  21.820  15.922  0.00  0.00    -0.487 OA
ATOM      5  H   UNL     1      51.517  22.538  16.016  0.00  0.00    +0.391 HD
ENDBRANCH   3   4
BRANCH   6   7
ATOM      7  O   UNL     1      51.794  21.629  18.646  0.00  0.00    -0.485 OA
ATOM      8  H   UNL     1      52.713  21.727  18.932  0.00  0.00    +0.390 HD
ENDBRANCH   6   7
ENDBRANCH  11  10
BRANCH  12  13
ATOM     13  C   UNL     1      48.965  14.974  17.929  0.00  0.00    +0.203 C 
ATOM     14  C   UNL     1      49.986  13.890  17.572  0.00  0.00    +0.167 C 
ATOM     17  C   UNL     1      49.504  12.545  18.125  0.00  0.00    +0.153 C 
ATOM     20  C   UNL     1      48.113  12.242  17.560  0.00  0.00    +0.122 C 
ATOM     23  C   UNL     1      47.165  13.390  17.917  0.00  0.00    +0.198 C 
ATOM     24  O   UNL     1      47.687  14.616  17.400  0.00  0.00    -0.345 OA
BRANCH  14  15
ATOM     15  O   UNL     1      50.116  13.805  16.152  0.00  0.00    -0.540 OA
ATOM     16  H   UNL     1      50.718  13.110  15.853  0.00  0.00    +0.388 HD
ENDBRANCH  14  15
BRANCH  17  18
ATOM     18  O   UNL     1      50.415  11.515  17.735  0.00  0.00    -0.560 OA
ATOM     19  H   UNL     1      51.132  11.365  18.368  0.00  0.00    +0.393 HD
ENDBRANCH  17  18
BRANCH  20  21
ATOM     21  O   UNL     1      47.624  11.024  18.124  0.00  0.00    -0.564 OA
ATOM     22  H   UNL     1      48.263  10.298  18.106  0.00  0.00    +0.387 HD
ENDBRANCH  20  21
ENDBRANCH  12  13
BRANCH  27  28
ATOM     28  O   UNL     1      45.820  18.714  17.644  0.00  0.00    -0.477 OA
ATOM     29  H   UNL     1      46.045  18.132  16.906  0.00  0.00    +0.399 HD
ENDBRANCH  27  28
BRANCH  31  32
ATOM     32  O   UNL     1      47.011  19.857  22.098  0.00  0.00    -0.492 OA
ATOM     33  H   UNL     1      47.763  19.931  22.702  0.00  0.00    +0.400 HD
ENDBRANCH  31  32
TORSDOF 9
ENDMDL
MODEL 6
REMARK VINA RESULT:      -5.5      2.357      6.521
REMARK  Name = ZINC95486340
REMARK  9 active torsions:
REMARK  status: ('A' for Active; 'I' for Inactive)
REMARK    1  A    between atoms: C3_3  and  O10_36
REMARK    2  A    between atoms: C4_4  and  O9_35
REMARK    3  A    between atoms: C6_6  and  C7_7
REMARK    4  A    between atoms: C8_9  and  C16_22
REMARK    5  A    between atoms: C11_14  and  O4_21
REMARK    6  A    between atoms: C13_16  and  O3_20
REMARK    7  A    between atoms: C17_24  and  O8_34
REMARK    8  A    between atoms: C18_26  and  O7_33
REMARK    9  A    between atoms: C19_28  and  O6_32
REMARK                            x       y       z     vdW  Elec       q    Type
REMARK                         _______ _______ _______ _____ _____    ______ ____
ROOT
ATOM     11  C   UNL     1      47.322  17.918  20.975  0.00  0.00    +0.292 C 
ATOM     12  C   UNL     1      47.688  18.708  19.710  0.00  0.00    -0.024 C 
ATOM     25  C   UNL     1      46.990  18.036  18.542  0.00  0.00    +0.432 C 
ATOM     26  C   UNL     1      46.968  16.570  18.545  0.00  0.00    -0.257 A 
ATOM     27  C   UNL     1      46.580  15.856  17.400  0.00  0.00    +0.218 A 
ATOM     30  C   UNL     1      46.557  14.474  17.435  0.00  0.00    -0.084 A 
ATOM     31  C   UNL     1      46.919  13.800  18.594  0.00  0.00    +0.190 A 
ATOM     34  C   UNL     1      47.310  14.500  19.728  0.00  0.00    -0.068 A 
ATOM     35  C   UNL     1      47.342  15.884  19.715  0.00  0.00    +0.227 A 
ATOM     36  O   UNL     1      46.475  18.680  17.650  0.00  0.00    -0.410 OA
ATOM     37  O   UNL     1      47.736  16.561  20.820  0.00  0.00    -0.282 OA
ENDROOT
BRANCH  11  10
ATOM      1  C   UNL     1      45.164  16.855  21.662  0.00  0.00    +0.038 A 
ATOM      2  C   UNL     1      43.794  16.894  21.857  0.00  0.00    +0.014 A 
ATOM      3  C   UNL     1      43.088  18.051  21.571  0.00  0.00    +0.090 A 
ATOM      6  C   UNL     1      43.759  19.172  21.088  0.00  0.00    +0.089 A 
ATOM      9  C   UNL     1      45.131  19.125  20.897  0.00  0.00    +0.024 A 
ATOM     10  C   UNL     1      45.830  17.967  21.184  0.00  0.00    -0.126 A 
BRANCH   3   4
ATOM      4  O   UNL     1      41.742  18.092  21.760  0.00  0.00    -0.487 OA
ATOM      5  H   UNL     1      41.357  18.973  21.658  0.00  0.00    +0.391 HD
ENDBRANCH   3   4
BRANCH   6   7
ATOM      7  O   UNL     1      43.070  20.309  20.806  0.00  0.00    -0.485 OA
ATOM      8  H   UNL     1      42.131  20.166  20.623  0.00  0.00    +0.390 HD
ENDBRANCH   6   7
ENDBRANCH  11  10
BRANCH  12  13
ATOM     13  C   UNL     1      49.203  18.681  19.500  0.00  0.00    +0.203 C 
ATOM     14  C   UNL     1      49.770  20.090  19.696  0.00  0.00    +0.167 C 
ATOM     17  C   UNL     1      51.278  20.067  19.424  0.00  0.00    +0.153 C 
ATOM     20  C   UNL     1      51.523  19.532  18.010  0.00  0.00    +0.122 C 
ATOM     23  C   UNL     1      50.888  18.145  17.880  0.00  0.00    +0.198 C 
ATOM     24  O   UNL     1      49.492  18.232  18.175  0.00  0.00    -0.345 OA
BRANCH  14  15
ATOM     15  O   UNL     1      49.135  20.991  18.787  0.00  0.00    -0.540 OA
ATOM     16  H   UNL     1      49.531  21.873  18.766  0.00  0.00    +0.388 HD
ENDBRANCH  14  15
BRANCH  17  18
ATOM     18  O   UNL     1      51.803  21.391  19.535  0.00  0.00    -0.560 OA
ATOM     19  H   UNL     1      51.490  21.996  18.848  0.00  0.00    +0.393 HD
ENDBRANCH  17  18
BRANCH  20  21
ATOM     21  O   UNL     1      52.929  19.439  17.772  0.00  0.00    -0.564 OA
ATOM     22  H   UNL     1      53.172  19.475  16.837  0.00  0.00    +0.387 HD
ENDBRANCH  20  21
ENDBRANCH  12  13
BRANCH  27  28
ATOM     28  O   UNL     1      46.229  16.518  16.269  0.00  0.00    -0.477 OA
ATOM     29  H   UNL     1      45.339  16.314  15.954  0.00  0.00    +0.399 HD
ENDBRANCH  27  28
BRANCH  31  32
ATOM     32  O   UNL     1      46.890  12.443  18.619  0.00  0.00    -0.492 OA
ATOM     33  H   UNL     1      47.759  12.034  18.733  0.00  0.00    +0.400 HD
ENDBRANCH  31  32
TORSDOF 9
ENDMDL
MODEL 7
REMARK VINA RESULT:      -5.5      1.907      6.643
REMARK  Name = ZINC95486340
REMARK  9 active torsions:
REMARK  status: ('A' for Active; 'I' for Inactive)
REMARK    1  A    between atoms: C3_3  and  O10_36
REMARK    2  A    between atoms: C4_4  and  O9_35
REMARK    3  A    between atoms: C6_6  and  C7_7
REMARK    4  A    between atoms: C8_9  and  C16_22
REMARK    5  A    between atoms: C11_14  and  O4_21
REMARK    6  A    between atoms: C13_16  and  O3_20
REMARK    7  A    between atoms: C17_24  and  O8_34
REMARK    8  A    between atoms: C18_26  and  O7_33
REMARK    9  A    between atoms: C19_28  and  O6_32
REMARK                            x       y       z     vdW  Elec       q    Type
REMARK                         _______ _______ _______ _____ _____    ______ ____
ROOT
ATOM     11  C   UNL     1      46.811  19.160  20.162  0.00  0.00    +0.292 C 
ATOM     12  C   UNL     1      47.356  18.741  18.789  0.00  0.00    -0.024 C 
ATOM     25  C   UNL     1      46.648  17.458  18.396  0.00  0.00    +0.432 C 
ATOM     26  C   UNL     1      46.429  16.475  19.463  0.00  0.00    -0.257 A 
ATOM     27  C   UNL     1      46.020  15.167  19.160  0.00  0.00    +0.218 A 
ATOM     30  C   UNL     1      45.811  14.264  20.186  0.00  0.00    -0.084 A 
ATOM     31  C   UNL     1      46.008  14.650  21.505  0.00  0.00    +0.190 A 
ATOM     34  C   UNL     1      46.419  15.941  21.811  0.00  0.00    -0.068 A 
ATOM     35  C   UNL     1      46.636  16.861  20.800  0.00  0.00    +0.227 A 
ATOM     36  O   UNL     1      46.279  17.255  17.257  0.00  0.00    -0.410 OA
ATOM     37  O   UNL     1      47.049  18.115  21.104  0.00  0.00    -0.282 OA
ENDROOT
BRANCH  11  10
ATOM      1  C   UNL     1      44.784  19.832  18.858  0.00  0.00    +0.038 A 
ATOM      2  C   UNL     1      43.425  20.068  18.757  0.00  0.00    +0.014 A 
ATOM      3  C   UNL     1      42.607  19.887  19.860  0.00  0.00    +0.090 A 
ATOM      6  C   UNL     1      43.156  19.468  21.069  0.00  0.00    +0.089 A 
ATOM      9  C   UNL     1      44.518  19.233  21.163  0.00  0.00    +0.024 A 
ATOM     10  C   UNL     1      45.329  19.416  20.058  0.00  0.00    -0.126 A 
BRANCH   3   4
ATOM      4  O   UNL     1      41.270  20.118  19.763  0.00  0.00    -0.487 OA
ATOM      5  H   UNL     1      40.735  19.315  19.704  0.00  0.00    +0.391 HD
ENDBRANCH   3   4
BRANCH   6   7
ATOM      7  O   UNL     1      42.357  19.288  22.154  0.00  0.00    -0.485 OA
ATOM      8  H   UNL     1      41.467  18.974  21.941  0.00  0.00    +0.390 HD
ENDBRANCH   6   7
ENDBRANCH  11  10
BRANCH  12  13
ATOM     13  C   UNL     1      48.864  18.499  18.879  0.00  0.00    +0.203 C 
ATOM     14  C   UNL     1      49.558  19.778  19.358  0.00  0.00    +0.167 C 
ATOM     17  C   UNL     1      51.072  19.547  19.388  0.00  0.00    +0.153 C 
ATOM     20  C   UNL     1      51.540  19.118  17.994  0.00  0.00    +0.122 C 
ATOM     23  C   UNL     1      50.769  17.866  17.568  0.00  0.00    +0.198 C 
ATOM     24  O   UNL     1      49.367  18.139  17.591  0.00  0.00    -0.345 OA
BRANCH  14  15
ATOM     15  O   UNL     1      49.256  20.849  18.462  0.00  0.00    -0.540 OA
ATOM     16  H   UNL     1      48.799  21.593  18.879  0.00  0.00    +0.388 HD
ENDBRANCH  14  15
BRANCH  17  18
ATOM     18  O   UNL     1      51.732  20.757  19.765  0.00  0.00    -0.560 OA
ATOM     19  H   UNL     1      51.181  21.359  20.284  0.00  0.00    +0.393 HD
ENDBRANCH  17  18
BRANCH  20  21
ATOM     21  O   UNL     1      52.939  18.831  18.028  0.00  0.00    -0.564 OA
ATOM     22  H   UNL     1      53.280  18.638  18.912  0.00  0.00    +0.387 HD
ENDBRANCH  20  21
ENDBRANCH  12  13
BRANCH  27  28
ATOM     28  O   UNL     1      45.831  14.792  17.869  0.00  0.00    -0.477 OA
ATOM     29  H   UNL     1      46.067  13.873  17.688  0.00  0.00    +0.399 HD
ENDBRANCH  27  28
BRANCH  31  32
ATOM     32  O   UNL     1      45.796  13.758  22.505  0.00  0.00    -0.492 OA
ATOM     33  H   UNL     1      45.832  12.834  22.222  0.00  0.00    +0.400 HD
ENDBRANCH  31  32
TORSDOF 9
ENDMDL
MODEL 8
REMARK VINA RESULT:      -5.3      5.100      9.850
REMARK  Name = ZINC95486340
REMARK  9 active torsions:
REMARK  status: ('A' for Active; 'I' for Inactive)
REMARK    1  A    between atoms: C3_3  and  O10_36
REMARK    2  A    between atoms: C4_4  and  O9_35
REMARK    3  A    between atoms: C6_6  and  C7_7
REMARK    4  A    between atoms: C8_9  and  C16_22
REMARK    5  A    between atoms: C11_14  and  O4_21
REMARK    6  A    between atoms: C13_16  and  O3_20
REMARK    7  A    between atoms: C17_24  and  O8_34
REMARK    8  A    between atoms: C18_26  and  O7_33
REMARK    9  A    between atoms: C19_28  and  O6_32
REMARK                            x       y       z     vdW  Elec       q    Type
REMARK                         _______ _______ _______ _____ _____    ______ ____
ROOT
ATOM     11  C   UNL     1      51.002  15.355  18.058  0.00  0.00    +0.292 C 
ATOM     12  C   UNL     1      51.781  15.635  19.351  0.00  0.00    -0.024 C 
ATOM     25  C   UNL     1      51.694  17.128  19.613  0.00  0.00    +0.432 C 
ATOM     26  C   UNL     1      51.810  18.008  18.445  0.00  0.00    -0.257 A 
ATOM     27  C   UNL     1      51.998  19.390  18.605  0.00  0.00    +0.218 A 
ATOM     30  C   UNL     1      52.094  20.198  17.487  0.00  0.00    -0.084 A 
ATOM     31  C   UNL     1      52.007  19.643  16.217  0.00  0.00    +0.190 A 
ATOM     34  C   UNL     1      51.828  18.276  16.052  0.00  0.00    -0.068 A 
ATOM     35  C   UNL     1      51.731  17.448  17.157  0.00  0.00    +0.227 A 
ATOM     36  O   UNL     1      51.535  17.571  20.732  0.00  0.00    -0.410 OA
ATOM     37  O   UNL     1      51.569  16.113  16.990  0.00  0.00    -0.282 OA
ENDROOT
BRANCH  11  10
ATOM      1  C   UNL     1      48.972  15.646  19.491  0.00  0.00    +0.038 A 
ATOM      2  C   UNL     1      47.648  16.007  19.668  0.00  0.00    +0.014 A 
ATOM      3  C   UNL     1      46.908  16.473  18.593  0.00  0.00    +0.090 A 
ATOM      6  C   UNL     1      47.499  16.576  17.337  0.00  0.00    +0.089 A 
ATOM      9  C   UNL     1      48.826  16.213  17.167  0.00  0.00    +0.024 A 
ATOM     10  C   UNL     1      49.559  15.749  18.244  0.00  0.00    -0.126 A 
BRANCH   3   4
ATOM      4  O   UNL     1      45.606  16.827  18.765  0.00  0.00    -0.487 OA
ATOM      5  H   UNL     1      45.010  16.079  18.904  0.00  0.00    +0.391 HD
ENDBRANCH   3   4
BRANCH   6   7
ATOM      7  O   UNL     1      46.777  17.032  16.279  0.00  0.00    -0.485 OA
ATOM      8  H   UNL     1      47.186  17.776  15.814  0.00  0.00    +0.390 HD
ENDBRANCH   6   7
ENDBRANCH  11  10
BRANCH  12  13
ATOM     13  C   UNL     1      53.243  15.219  19.178  0.00  0.00    +0.203 C 
ATOM     14  C   UNL     1      53.410  13.757  19.601  0.00  0.00    +0.167 C 
ATOM     17  C   UNL     1      54.886  13.366  19.483  0.00  0.00    +0.153 C 
ATOM     20  C   UNL     1      55.726  14.318  20.340  0.00  0.00    +0.122 C 
ATOM     23  C   UNL     1      55.469  15.758  19.889  0.00  0.00    +0.198 C 
ATOM     24  O   UNL     1      54.073  16.048  19.994  0.00  0.00    -0.345 OA
BRANCH  14  15
ATOM     15  O   UNL     1      52.980  13.599  20.955  0.00  0.00    -0.540 OA
ATOM     16  H   UNL     1      52.020  13.634  21.068  0.00  0.00    +0.388 HD
ENDBRANCH  14  15
BRANCH  17  18
ATOM     18  O   UNL     1      55.063  12.024  19.943  0.00  0.00    -0.560 OA
ATOM     19  H   UNL     1      54.337  11.699  20.494  0.00  0.00    +0.393 HD
ENDBRANCH  17  18
BRANCH  20  21
ATOM     21  O   UNL     1      57.111  14.007  20.182  0.00  0.00    -0.564 OA
ATOM     22  H   UNL     1      57.677  14.783  20.067  0.00  0.00    +0.387 HD
ENDBRANCH  20  21
ENDBRANCH  12  13
BRANCH  27  28
ATOM     28  O   UNL     1      52.085  19.928  19.848  0.00  0.00    -0.477 OA
ATOM     29  H   UNL     1      52.958  20.282  20.063  0.00  0.00    +0.399 HD
ENDBRANCH  27  28
BRANCH  31  32
ATOM     32  O   UNL     1      52.097  20.444  15.125  0.00  0.00    -0.492 OA
ATOM     33  H   UNL     1      52.523  21.296  15.298  0.00  0.00    +0.400 HD
ENDBRANCH  31  32
TORSDOF 9
ENDMDL
MODEL 9
REMARK VINA RESULT:      -5.3      3.359      7.016
REMARK  Name = ZINC95486340
REMARK  9 active torsions:
REMARK  status: ('A' for Active; 'I' for Inactive)
REMARK    1  A    between atoms: C3_3  and  O10_36
REMARK    2  A    between atoms: C4_4  and  O9_35
REMARK    3  A    between atoms: C6_6  and  C7_7
REMARK    4  A    between atoms: C8_9  and  C16_22
REMARK    5  A    between atoms: C11_14  and  O4_21
REMARK    6  A    between atoms: C13_16  and  O3_20
REMARK    7  A    between atoms: C17_24  and  O8_34
REMARK    8  A    between atoms: C18_26  and  O7_33
REMARK    9  A    between atoms: C19_28  and  O6_32
REMARK                            x       y       z     vdW  Elec       q    Type
REMARK                         _______ _______ _______ _____ _____    ______ ____
ROOT
ATOM     11  C   UNL     1      49.768  16.226  18.431  0.00  0.00    +0.292 C 
ATOM     12  C   UNL     1      48.765  15.911  17.313  0.00  0.00    -0.024 C 
ATOM     25  C   UNL     1      47.701  16.993  17.345  0.00  0.00    +0.432 C 
ATOM     26  C   UNL     1      47.253  17.435  18.670  0.00  0.00    -0.257 A 
ATOM     27  C   UNL     1      46.108  18.235  18.809  0.00  0.00    +0.218 A 
ATOM     30  C   UNL     1      45.714  18.647  20.070  0.00  0.00    -0.084 A 
ATOM     31  C   UNL     1      46.447  18.268  21.187  0.00  0.00    +0.190 A 
ATOM     34  C   UNL     1      47.578  17.472  21.056  0.00  0.00    -0.068 A 
ATOM     35  C   UNL     1      47.989  17.047  19.804  0.00  0.00    +0.227 A 
ATOM     36  O   UNL     1      47.245  17.470  16.325  0.00  0.00    -0.410 OA
ATOM     37  O   UNL     1      49.085  16.260  19.684  0.00  0.00    -0.282 OA
ENDROOT
BRANCH  11  10
ATOM      1  C   UNL     1      50.627  18.440  19.219  0.00  0.00    +0.038 A 
ATOM      2  C   UNL     1      51.213  19.672  18.986  0.00  0.00    +0.014 A 
ATOM      3  C   UNL     1      51.580  20.032  17.699  0.00  0.00    +0.090 A 
ATOM      6  C   UNL     1      51.357  19.152  16.643  0.00  0.00    +0.089 A 
ATOM      9  C   UNL     1      50.770  17.920  16.884  0.00  0.00    +0.024 A 
ATOM     10  C   UNL     1      50.407  17.567  18.171  0.00  0.00    -0.126 A 
BRANCH   3   4
ATOM      4  O   UNL     1      52.155  21.242  17.468  0.00  0.00    -0.487 OA
ATOM      5  H   UNL     1      51.524  21.973  17.411  0.00  0.00    +0.391 HD
ENDBRANCH   3   4
BRANCH   6   7
ATOM      7  O   UNL     1      51.715  19.501  15.379  0.00  0.00    -0.485 OA
ATOM      8  H   UNL     1      52.332  18.885  14.960  0.00  0.00    +0.390 HD
ENDBRANCH   6   7
ENDBRANCH  11  10
BRANCH  12  13
ATOM     13  C   UNL     1      48.126  14.543  17.557  0.00  0.00    +0.203 C 
ATOM     14  C   UNL     1      48.985  13.455  16.907  0.00  0.00    +0.167 C 
ATOM     17  C   UNL     1      48.308  12.095  17.104  0.00  0.00    +0.153 C 
ATOM     20  C   UNL     1      46.896  12.150  16.514  0.00  0.00    +0.122 C 
ATOM     23  C   UNL     1      46.118  13.288  17.179  0.00  0.00    +0.198 C 
ATOM     24  O   UNL     1      46.817  14.520  16.985  0.00  0.00    -0.345 OA
BRANCH  14  15
ATOM     15  O   UNL     1      49.120  13.725  15.510  0.00  0.00    -0.540 OA
ATOM     16  H   UNL     1      49.201  12.931  14.963  0.00  0.00    +0.388 HD
ENDBRANCH  14  15
BRANCH  17  18
ATOM     18  O   UNL     1      49.067  11.083  16.438  0.00  0.00    -0.560 OA
ATOM     19  H   UNL     1      48.734  10.186  16.579  0.00  0.00    +0.393 HD
ENDBRANCH  17  18
BRANCH  20  21
ATOM     21  O   UNL     1      46.229  10.910  16.755  0.00  0.00    -0.564 OA
ATOM     22  H   UNL     1      46.499  10.196  16.160  0.00  0.00    +0.387 HD
ENDBRANCH  20  21
ENDBRANCH  12  13
BRANCH  27  28
ATOM     28  O   UNL     1      45.393  18.601  17.716  0.00  0.00    -0.477 OA
ATOM     29  H   UNL     1      44.595  18.075  17.574  0.00  0.00    +0.399 HD
ENDBRANCH  27  28
BRANCH  31  32
ATOM     32  O   UNL     1      46.056  18.681  22.419  0.00  0.00    -0.492 OA
ATOM     33  H   UNL     1      46.711  18.521  23.113  0.00  0.00    +0.400 HD
ENDBRANCH  31  32
TORSDOF 9
ENDMDL
