MODEL 1
REMARK VINA RESULT:      -6.2      0.000      0.000
REMARK  Name = ZINC95486149
REMARK  11 active torsions:
REMARK  status: ('A' for Active; 'I' for Inactive)
REMARK    1  A    between atoms: C1_1  and  C2_2
REMARK    2  A    between atoms: C6_6  and  O1_8
REMARK    3  A    between atoms: O1_8  and  C8_9
REMARK    4  A    between atoms: C9_10  and  O4_31
REMARK    5  A    between atoms: C11_12  and  C24_30
REMARK    6  A    between atoms: C12_13  and  C13_14
REMARK    7  A    between atoms: C14_15  and  O3_29
REMARK    8  A    between atoms: C16_17  and  O2_28
REMARK    9  A    between atoms: C20_21  and  C23_27
REMARK   10  A    between atoms: C21_24  and  C22_26
REMARK   11  A    between atoms: O4_31  and  C25_32
REMARK                            x       y       z     vdW  Elec       q    Type
REMARK                         _______ _______ _______ _____ _____    ______ ____
ROOT
ATOM     16  C   UNL     1      44.412  19.281  20.179  0.00  0.00    -0.062 A 
ATOM     17  C   UNL     1      43.222  19.761  19.621  0.00  0.00    +0.137 A 
ATOM     20  C   UNL     1      43.065  21.120  19.411  0.00  0.00    -0.043 A 
ATOM     21  C   UNL     1      44.085  21.994  19.754  0.00  0.00    +0.133 A 
ATOM     24  C   UNL     1      45.271  21.518  20.310  0.00  0.00    -0.142 A 
ATOM     25  C   UNL     1      46.347  22.514  20.659  0.00  0.00    +0.230 C 
ATOM     26  C   UNL     1      45.706  23.742  21.310  0.00  0.00    +0.041 C 
ATOM     27  N   UNL     1      47.305  21.923  21.602  0.00  0.00    -0.670 NA
ATOM     28  H   UNL     1      46.893  21.797  22.514  0.00  0.00    +0.343 HD
ATOM     29  C   UNL     1      47.811  20.648  21.071  0.00  0.00    +0.171 C 
ATOM     30  C   UNL     1      48.248  20.830  19.615  0.00  0.00    +0.032 C 
ATOM     31  C   UNL     1      46.690  19.612  21.144  0.00  0.00    +0.052 C 
ATOM     32  C   UNL     1      45.432  20.170  20.530  0.00  0.00    -0.029 A 
ENDROOT
BRANCH  16  15
ATOM      1  C   UNL     1      47.209  17.484  16.239  0.00  0.00    +0.092 C 
ATOM      2  C   UNL     1      46.597  16.852  17.463  0.00  0.00    -0.020 A 
ATOM      3  C   UNL     1      45.896  17.625  18.339  0.00  0.00    -0.045 A 
ATOM      4  C   UNL     1      45.323  17.047  19.480  0.00  0.00    +0.045 A 
ATOM      5  C   UNL     1      45.480  15.660  19.714  0.00  0.00    -0.105 A 
ATOM      6  C   UNL     1      44.904  15.079  20.860  0.00  0.00    +0.177 A 
ATOM      9  C   UNL     1      44.193  15.862  21.744  0.00  0.00    -0.107 A 
ATOM     10  C   UNL     1      44.035  17.225  21.521  0.00  0.00    +0.002 A 
ATOM     11  C   UNL     1      43.252  18.055  22.505  0.00  0.00    +0.095 C 
ATOM     12  C   UNL     1      46.211  14.884  18.793  0.00  0.00    +0.176 A 
ATOM     15  C   UNL     1      44.588  17.828  20.404  0.00  0.00    -0.090 A 
ATOM     33  C   UNL     1      46.755  15.486  17.680  0.00  0.00    -0.113 A 
BRANCH   6   7
ATOM      7  O   UNL     1      45.048  13.749  21.095  0.00  0.00    -0.290 OA
ATOM      8  C   UNL     1      45.220  13.345  22.454  0.00  0.00    +0.239 C 
ENDBRANCH   6   7
BRANCH  12  13
ATOM     13  O   UNL     1      46.374  13.551  18.999  0.00  0.00    -0.290 OA
ATOM     14  C   UNL     1      46.017  12.681  17.924  0.00  0.00    +0.239 C 
ENDBRANCH  12  13
ENDBRANCH  16  15
BRANCH  17  18
ATOM     18  O   UNL     1      42.229  18.898  19.285  0.00  0.00    -0.488 OA
ATOM     19  H   UNL     1      42.088  18.190  19.929  0.00  0.00    +0.390 HD
ENDBRANCH  17  18
BRANCH  21  22
ATOM     22  O   UNL     1      43.926  23.327  19.546  0.00  0.00    -0.491 OA
ATOM     23  H   UNL     1      44.741  23.840  19.640  0.00  0.00    +0.391 HD
ENDBRANCH  21  22
TORSDOF 5
ENDMDL
MODEL 2
REMARK VINA RESULT:      -6.0      3.234      4.778
REMARK  Name = ZINC95486149
REMARK  11 active torsions:
REMARK  status: ('A' for Active; 'I' for Inactive)
REMARK    1  A    between atoms: C1_1  and  C2_2
REMARK    2  A    between atoms: C6_6  and  O1_8
REMARK    3  A    between atoms: O1_8  and  C8_9
REMARK    4  A    between atoms: C9_10  and  O4_31
REMARK    5  A    between atoms: C11_12  and  C24_30
REMARK    6  A    between atoms: C12_13  and  C13_14
REMARK    7  A    between atoms: C14_15  and  O3_29
REMARK    8  A    between atoms: C16_17  and  O2_28
REMARK    9  A    between atoms: C20_21  and  C23_27
REMARK   10  A    between atoms: C21_24  and  C22_26
REMARK   11  A    between atoms: O4_31  and  C25_32
REMARK                            x       y       z     vdW  Elec       q    Type
REMARK                         _______ _______ _______ _____ _____    ______ ____
ROOT
ATOM     16  C   UNL     1      47.858  20.353  20.873  0.00  0.00    -0.062 A 
ATOM     17  C   UNL     1      48.419  21.261  21.777  0.00  0.00    +0.137 A 
ATOM     20  C   UNL     1      47.755  22.441  22.061  0.00  0.00    -0.043 A 
ATOM     21  C   UNL     1      46.541  22.715  21.451  0.00  0.00    +0.133 A 
ATOM     24  C   UNL     1      45.980  21.811  20.550  0.00  0.00    -0.142 A 
ATOM     25  C   UNL     1      44.656  22.160  19.921  0.00  0.00    +0.230 C 
ATOM     26  C   UNL     1      44.657  23.638  19.527  0.00  0.00    +0.041 C 
ATOM     27  N   UNL     1      44.432  21.349  18.716  0.00  0.00    -0.670 NA
ATOM     28  H   UNL     1      45.051  21.624  17.968  0.00  0.00    +0.343 HD
ATOM     29  C   UNL     1      44.593  19.921  19.035  0.00  0.00    +0.171 C 
ATOM     30  C   UNL     1      43.796  19.579  20.295  0.00  0.00    +0.032 C 
ATOM     31  C   UNL     1      46.076  19.642  19.275  0.00  0.00    +0.052 C 
ATOM     32  C   UNL     1      46.638  20.640  20.255  0.00  0.00    -0.029 A 
ENDROOT
BRANCH  16  15
ATOM      1  C   UNL     1      51.143  21.364  17.031  0.00  0.00    +0.092 C 
ATOM      2  C   UNL     1      50.805  20.126  17.820  0.00  0.00    -0.020 A 
ATOM      3  C   UNL     1      49.861  20.192  18.802  0.00  0.00    -0.045 A 
ATOM      4  C   UNL     1      49.540  19.045  19.542  0.00  0.00    +0.045 A 
ATOM      5  C   UNL     1      50.202  17.826  19.263  0.00  0.00    -0.105 A 
ATOM      6  C   UNL     1      49.878  16.674  20.007  0.00  0.00    +0.177 A 
ATOM      9  C   UNL     1      48.923  16.742  20.998  0.00  0.00    -0.107 A 
ATOM     10  C   UNL     1      48.269  17.936  21.277  0.00  0.00    +0.002 A 
ATOM     11  C   UNL     1      47.228  17.979  22.366  0.00  0.00    +0.095 C 
ATOM     12  C   UNL     1      51.174  17.786  18.245  0.00  0.00    +0.176 A 
ATOM     15  C   UNL     1      48.562  19.087  20.566  0.00  0.00    -0.090 A 
ATOM     33  C   UNL     1      51.459  18.931  17.534  0.00  0.00    -0.113 A 
BRANCH   6   7
ATOM      7  O   UNL     1      50.507  15.498  19.748  0.00  0.00    -0.290 OA
ATOM      8  C   UNL     1      49.685  14.334  19.638  0.00  0.00    +0.239 C 
ENDBRANCH   6   7
BRANCH  12  13
ATOM     13  O   UNL     1      51.821  16.625  17.962  0.00  0.00    -0.290 OA
ATOM     14  C   UNL     1      51.727  16.142  16.621  0.00  0.00    +0.239 C 
ENDBRANCH  12  13
ENDBRANCH  16  15
BRANCH  17  18
ATOM     18  O   UNL     1      49.608  20.984  22.374  0.00  0.00    -0.488 OA
ATOM     19  H   UNL     1      50.249  21.707  22.326  0.00  0.00    +0.390 HD
ENDBRANCH  17  18
BRANCH  21  22
ATOM     22  O   UNL     1      45.893  23.875  21.733  0.00  0.00    -0.491 OA
ATOM     23  H   UNL     1      45.726  24.431  20.960  0.00  0.00    +0.391 HD
ENDBRANCH  21  22
TORSDOF 5
ENDMDL
MODEL 3
REMARK VINA RESULT:      -5.9      2.147      3.374
REMARK  Name = ZINC95486149
REMARK  11 active torsions:
REMARK  status: ('A' for Active; 'I' for Inactive)
REMARK    1  A    between atoms: C1_1  and  C2_2
REMARK    2  A    between atoms: C6_6  and  O1_8
REMARK    3  A    between atoms: O1_8  and  C8_9
REMARK    4  A    between atoms: C9_10  and  O4_31
REMARK    5  A    between atoms: C11_12  and  C24_30
REMARK    6  A    between atoms: C12_13  and  C13_14
REMARK    7  A    between atoms: C14_15  and  O3_29
REMARK    8  A    between atoms: C16_17  and  O2_28
REMARK    9  A    between atoms: C20_21  and  C23_27
REMARK   10  A    between atoms: C21_24  and  C22_26
REMARK   11  A    between atoms: O4_31  and  C25_32
REMARK                            x       y       z     vdW  Elec       q    Type
REMARK                         _______ _______ _______ _____ _____    ______ ____
ROOT
ATOM     16  C   UNL     1      46.176  18.442  20.708  0.00  0.00    -0.062 A 
ATOM     17  C   UNL     1      46.944  18.724  21.843  0.00  0.00    +0.137 A 
ATOM     20  C   UNL     1      46.849  19.968  22.441  0.00  0.00    -0.043 A 
ATOM     21  C   UNL     1      45.995  20.924  21.914  0.00  0.00    +0.133 A 
ATOM     24  C   UNL     1      45.228  20.646  20.783  0.00  0.00    -0.142 A 
ATOM     25  C   UNL     1      44.314  21.722  20.257  0.00  0.00    +0.230 C 
ATOM     26  C   UNL     1      45.041  23.068  20.302  0.00  0.00    +0.041 C 
ATOM     27  N   UNL     1      43.932  21.436  18.868  0.00  0.00    -0.670 NA
ATOM     28  H   UNL     1      44.713  21.558  18.240  0.00  0.00    +0.343 HD
ATOM     29  C   UNL     1      43.384  20.074  18.768  0.00  0.00    +0.171 C 
ATOM     30  C   UNL     1      42.339  19.856  19.865  0.00  0.00    +0.032 C 
ATOM     31  C   UNL     1      44.527  19.076  18.943  0.00  0.00    +0.052 C 
ATOM     32  C   UNL     1      45.324  19.415  20.177  0.00  0.00    -0.029 A 
ENDROOT
BRANCH  16  15
ATOM      1  C   UNL     1      50.185  18.634  17.472  0.00  0.00    +0.092 C 
ATOM      2  C   UNL     1      49.189  17.566  17.842  0.00  0.00    -0.020 A 
ATOM      3  C   UNL     1      48.220  17.840  18.761  0.00  0.00    -0.045 A 
ATOM      4  C   UNL     1      47.288  16.853  19.112  0.00  0.00    +0.045 A 
ATOM      5  C   UNL     1      47.363  15.575  18.507  0.00  0.00    -0.105 A 
ATOM      6  C   UNL     1      46.427  14.584  18.860  0.00  0.00    +0.177 A 
ATOM      9  C   UNL     1      45.447  14.863  19.788  0.00  0.00    -0.107 A 
ATOM     10  C   UNL     1      45.368  16.116  20.386  0.00  0.00    +0.002 A 
ATOM     11  C   UNL     1      44.285  16.391  21.398  0.00  0.00    +0.095 C 
ATOM     12  C   UNL     1      48.375  15.318  17.562  0.00  0.00    +0.176 A 
ATOM     15  C   UNL     1      46.272  17.113  20.063  0.00  0.00    -0.090 A 
ATOM     33  C   UNL     1      49.269  16.314  17.237  0.00  0.00    -0.113 A 
BRANCH   6   7
ATOM      7  O   UNL     1      46.488  13.355  18.286  0.00  0.00    -0.290 OA
ATOM      8  C   UNL     1      45.246  12.716  17.986  0.00  0.00    +0.239 C 
ENDBRANCH   6   7
BRANCH  12  13
ATOM     13  O   UNL     1      48.464  14.098  16.970  0.00  0.00    -0.290 OA
ATOM     14  C   UNL     1      49.764  13.671  16.560  0.00  0.00    +0.239 C 
ENDBRANCH  12  13
ENDBRANCH  16  15
BRANCH  17  18
ATOM     18  O   UNL     1      47.776  17.781  22.355  0.00  0.00    -0.488 OA
ATOM     19  H   UNL     1      48.715  17.958  22.199  0.00  0.00    +0.390 HD
ENDBRANCH  17  18
BRANCH  21  22
ATOM     22  O   UNL     1      45.904  22.144  22.505  0.00  0.00    -0.491 OA
ATOM     23  H   UNL     1      46.749  22.609  22.581  0.00  0.00    +0.391 HD
ENDBRANCH  21  22
TORSDOF 5
ENDMDL
MODEL 4
REMARK VINA RESULT:      -5.7      3.235      5.518
REMARK  Name = ZINC95486149
REMARK  11 active torsions:
REMARK  status: ('A' for Active; 'I' for Inactive)
REMARK    1  A    between atoms: C1_1  and  C2_2
REMARK    2  A    between atoms: C6_6  and  O1_8
REMARK    3  A    between atoms: O1_8  and  C8_9
REMARK    4  A    between atoms: C9_10  and  O4_31
REMARK    5  A    between atoms: C11_12  and  C24_30
REMARK    6  A    between atoms: C12_13  and  C13_14
REMARK    7  A    between atoms: C14_15  and  O3_29
REMARK    8  A    between atoms: C16_17  and  O2_28
REMARK    9  A    between atoms: C20_21  and  C23_27
REMARK   10  A    between atoms: C21_24  and  C22_26
REMARK   11  A    between atoms: O4_31  and  C25_32
REMARK                            x       y       z     vdW  Elec       q    Type
REMARK                         _______ _______ _______ _____ _____    ______ ____
ROOT
ATOM     16  C   UNL     1      48.914  17.652  18.573  0.00  0.00    -0.062 A 
ATOM     17  C   UNL     1      49.009  17.461  17.190  0.00  0.00    +0.137 A 
ATOM     20  C   UNL     1      50.145  17.879  16.519  0.00  0.00    -0.043 A 
ATOM     21  C   UNL     1      51.178  18.481  17.219  0.00  0.00    +0.133 A 
ATOM     24  C   UNL     1      51.087  18.672  18.597  0.00  0.00    -0.142 A 
ATOM     25  C   UNL     1      52.243  19.327  19.307  0.00  0.00    +0.230 C 
ATOM     26  C   UNL     1      52.752  20.499  18.466  0.00  0.00    +0.041 C 
ATOM     27  N   UNL     1      51.818  19.834  20.618  0.00  0.00    -0.670 NA
ATOM     28  H   UNL     1      51.207  20.631  20.524  0.00  0.00    +0.343 HD
ATOM     29  C   UNL     1      51.169  18.759  21.385  0.00  0.00    +0.171 C 
ATOM     30  C   UNL     1      52.034  17.498  21.343  0.00  0.00    +0.032 C 
ATOM     31  C   UNL     1      49.807  18.468  20.756  0.00  0.00    +0.052 C 
ATOM     32  C   UNL     1      49.957  18.268  19.270  0.00  0.00    -0.029 A 
ENDROOT
BRANCH  16  15
ATOM      1  C   UNL     1      45.707  21.685  18.748  0.00  0.00    +0.092 C 
ATOM      2  C   UNL     1      45.636  20.268  19.256  0.00  0.00    -0.020 A 
ATOM      3  C   UNL     1      46.684  19.423  19.039  0.00  0.00    -0.045 A 
ATOM      4  C   UNL     1      46.627  18.102  19.508  0.00  0.00    +0.045 A 
ATOM      5  C   UNL     1      45.477  17.657  20.203  0.00  0.00    -0.105 A 
ATOM      6  C   UNL     1      45.421  16.331  20.674  0.00  0.00    +0.177 A 
ATOM      9  C   UNL     1      46.482  15.479  20.456  0.00  0.00    -0.107 A 
ATOM     10  C   UNL     1      47.614  15.909  19.774  0.00  0.00    +0.002 A 
ATOM     11  C   UNL     1      48.757  14.954  19.551  0.00  0.00    +0.095 C 
ATOM     12  C   UNL     1      44.408  18.550  20.412  0.00  0.00    +0.176 A 
ATOM     15  C   UNL     1      47.702  17.206  19.298  0.00  0.00    -0.090 A 
ATOM     33  C   UNL     1      44.502  19.842  19.942  0.00  0.00    -0.113 A 
BRANCH   6   7
ATOM      7  O   UNL     1      44.323  15.893  21.343  0.00  0.00    -0.290 OA
ATOM      8  C   UNL     1      44.548  15.093  22.505  0.00  0.00    +0.239 C 
ENDBRANCH   6   7
BRANCH  12  13
ATOM     13  O   UNL     1      43.295  18.143  21.076  0.00  0.00    -0.290 OA
ATOM     14  C   UNL     1      42.134  18.966  20.960  0.00  0.00    +0.239 C 
ENDBRANCH  12  13
ENDBRANCH  16  15
BRANCH  17  18
ATOM     18  O   UNL     1      47.993  16.868  16.511  0.00  0.00    -0.488 OA
ATOM     19  H   UNL     1      48.204  16.661  15.590  0.00  0.00    +0.390 HD
ENDBRANCH  17  18
BRANCH  21  22
ATOM     22  O   UNL     1      52.292  18.889  16.557  0.00  0.00    -0.491 OA
ATOM     23  H   UNL     1      52.661  18.223  15.960  0.00  0.00    +0.391 HD
ENDBRANCH  21  22
TORSDOF 5
ENDMDL
MODEL 5
REMARK VINA RESULT:      -5.6      4.120      7.095
REMARK  Name = ZINC95486149
REMARK  11 active torsions:
REMARK  status: ('A' for Active; 'I' for Inactive)
REMARK    1  A    between atoms: C1_1  and  C2_2
REMARK    2  A    between atoms: C6_6  and  O1_8
REMARK    3  A    between atoms: O1_8  and  C8_9
REMARK    4  A    between atoms: C9_10  and  O4_31
REMARK    5  A    between atoms: C11_12  and  C24_30
REMARK    6  A    between atoms: C12_13  and  C13_14
REMARK    7  A    between atoms: C14_15  and  O3_29
REMARK    8  A    between atoms: C16_17  and  O2_28
REMARK    9  A    between atoms: C20_21  and  C23_27
REMARK   10  A    between atoms: C21_24  and  C22_26
REMARK   11  A    between atoms: O4_31  and  C25_32
REMARK                            x       y       z     vdW  Elec       q    Type
REMARK                         _______ _______ _______ _____ _____    ______ ____
ROOT
ATOM     16  C   UNL     1      50.463  18.919  19.604  0.00  0.00    -0.062 A 
ATOM     17  C   UNL     1      51.323  19.339  18.584  0.00  0.00    +0.137 A 
ATOM     20  C   UNL     1      52.477  18.621  18.324  0.00  0.00    -0.043 A 
ATOM     21  C   UNL     1      52.772  17.493  19.073  0.00  0.00    +0.133 A 
ATOM     24  C   UNL     1      51.916  17.072  20.090  0.00  0.00    -0.142 A 
ATOM     25  C   UNL     1      52.286  15.835  20.868  0.00  0.00    +0.230 C 
ATOM     26  C   UNL     1      53.785  15.860  21.174  0.00  0.00    +0.041 C 
ATOM     27  N   UNL     1      51.544  15.788  22.135  0.00  0.00    -0.670 NA
ATOM     28  H   UNL     1      51.870  16.493  22.779  0.00  0.00    +0.343 HD
ATOM     29  C   UNL     1      50.103  15.933  21.879  0.00  0.00    +0.171 C 
ATOM     30  C   UNL     1      49.678  14.983  20.757  0.00  0.00    +0.032 C 
ATOM     31  C   UNL     1      49.827  17.377  21.462  0.00  0.00    +0.052 C 
ATOM     32  C   UNL     1      50.772  17.785  20.361  0.00  0.00    -0.029 A 
ENDROOT
BRANCH  16  15
ATOM      1  C   UNL     1      46.727  16.826  16.733  0.00  0.00    +0.092 C 
ATOM      2  C   UNL     1      46.777  17.968  17.716  0.00  0.00    -0.020 A 
ATOM      3  C   UNL     1      47.956  18.278  18.326  0.00  0.00    -0.045 A 
ATOM      4  C   UNL     1      48.013  19.338  19.242  0.00  0.00    +0.045 A 
ATOM      5  C   UNL     1      46.841  20.079  19.526  0.00  0.00    -0.105 A 
ATOM      6  C   UNL     1      46.898  21.144  20.445  0.00  0.00    +0.177 A 
ATOM      9  C   UNL     1      48.092  21.457  21.060  0.00  0.00    -0.107 A 
ATOM     10  C   UNL     1      49.246  20.734  20.786  0.00  0.00    +0.002 A 
ATOM     11  C   UNL     1      50.536  21.101  21.474  0.00  0.00    +0.095 C 
ATOM     12  C   UNL     1      45.635  19.736  18.883  0.00  0.00    +0.176 A 
ATOM     15  C   UNL     1      49.226  19.681  19.887  0.00  0.00    -0.090 A 
ATOM     33  C   UNL     1      45.619  18.692  17.984  0.00  0.00    -0.113 A 
BRANCH   6   7
ATOM      7  O   UNL     1      45.780  21.862  20.726  0.00  0.00    -0.290 OA
ATOM      8  C   UNL     1      45.544  22.184  22.098  0.00  0.00    +0.239 C 
ENDBRANCH   6   7
BRANCH  12  13
ATOM     13  O   UNL     1      44.499  20.434  19.142  0.00  0.00    -0.290 OA
ATOM     14  C   UNL     1      43.332  19.676  19.462  0.00  0.00    +0.239 C 
ENDBRANCH  12  13
ENDBRANCH  16  15
BRANCH  17  18
ATOM     18  O   UNL     1      51.026  20.444  17.852  0.00  0.00    -0.488 OA
ATOM     19  H   UNL     1      51.784  20.821  17.384  0.00  0.00    +0.390 HD
ENDBRANCH  17  18
BRANCH  21  22
ATOM     22  O   UNL     1      53.905  16.790  18.814  0.00  0.00    -0.491 OA
ATOM     23  H   UNL     1      53.885  16.304  17.978  0.00  0.00    +0.391 HD
ENDBRANCH  21  22
TORSDOF 5
ENDMDL
MODEL 6
REMARK VINA RESULT:      -5.4      3.304      6.763
REMARK  Name = ZINC95486149
REMARK  11 active torsions:
REMARK  status: ('A' for Active; 'I' for Inactive)
REMARK    1  A    between atoms: C1_1  and  C2_2
REMARK    2  A    between atoms: C6_6  and  O1_8
REMARK    3  A    between atoms: O1_8  and  C8_9
REMARK    4  A    between atoms: C9_10  and  O4_31
REMARK    5  A    between atoms: C11_12  and  C24_30
REMARK    6  A    between atoms: C12_13  and  C13_14
REMARK    7  A    between atoms: C14_15  and  O3_29
REMARK    8  A    between atoms: C16_17  and  O2_28
REMARK    9  A    between atoms: C20_21  and  C23_27
REMARK   10  A    between atoms: C21_24  and  C22_26
REMARK   11  A    between atoms: O4_31  and  C25_32
REMARK                            x       y       z     vdW  Elec       q    Type
REMARK                         _______ _______ _______ _____ _____    ______ ____
ROOT
ATOM     16  C   UNL     1      49.283  19.212  20.788  0.00  0.00    -0.062 A 
ATOM     17  C   UNL     1      49.280  18.125  21.667  0.00  0.00    +0.137 A 
ATOM     20  C   UNL     1      50.353  17.252  21.679  0.00  0.00    -0.043 A 
ATOM     21  C   UNL     1      51.422  17.460  20.822  0.00  0.00    +0.133 A 
ATOM     24  C   UNL     1      51.429  18.544  19.945  0.00  0.00    -0.142 A 
ATOM     25  C   UNL     1      52.620  18.723  19.040  0.00  0.00    +0.230 C 
ATOM     26  C   UNL     1      53.040  17.362  18.481  0.00  0.00    +0.041 C 
ATOM     27  N   UNL     1      52.283  19.612  17.920  0.00  0.00    -0.670 NA
ATOM     28  H   UNL     1      51.649  19.165  17.274  0.00  0.00    +0.343 HD
ATOM     29  C   UNL     1      51.716  20.870  18.430  0.00  0.00    +0.171 C 
ATOM     30  C   UNL     1      52.603  21.421  19.549  0.00  0.00    +0.032 C 
ATOM     31  C   UNL     1      50.318  20.586  18.977  0.00  0.00    +0.052 C 
ATOM     32  C   UNL     1      50.362  19.411  19.920  0.00  0.00    -0.029 A 
ENDROOT
BRANCH  16  15
ATOM      1  C   UNL     1      45.866  17.344  17.410  0.00  0.00    +0.092 C 
ATOM      2  C   UNL     1      45.902  18.561  18.298  0.00  0.00    -0.020 A 
ATOM      3  C   UNL     1      46.983  18.776  19.100  0.00  0.00    -0.045 A 
ATOM      4  C   UNL     1      47.027  19.905  19.930  0.00  0.00    +0.045 A 
ATOM      5  C   UNL     1      45.942  20.815  19.927  0.00  0.00    -0.105 A 
ATOM      6  C   UNL     1      45.986  21.950  20.761  0.00  0.00    +0.177 A 
ATOM      9  C   UNL     1      47.081  22.166  21.570  0.00  0.00    -0.107 A 
ATOM     10  C   UNL     1      48.149  21.277  21.576  0.00  0.00    +0.002 A 
ATOM     11  C   UNL     1      49.332  21.541  22.472  0.00  0.00    +0.095 C 
ATOM     12  C   UNL     1      44.836  20.569  19.091  0.00  0.00    +0.176 A 
ATOM     15  C   UNL     1      48.139  20.152  20.770  0.00  0.00    -0.090 A 
ATOM     33  C   UNL     1      44.832  19.452  18.284  0.00  0.00    -0.113 A 
BRANCH   6   7
ATOM      7  O   UNL     1      44.952  22.830  20.767  0.00  0.00    -0.290 OA
ATOM      8  C   UNL     1      45.273  24.209  20.575  0.00  0.00    +0.239 C 
ENDBRANCH   6   7
BRANCH  12  13
ATOM     13  O   UNL     1      43.785  21.429  19.074  0.00  0.00    -0.290 OA
ATOM     14  C   UNL     1      42.478  20.854  19.064  0.00  0.00    +0.239 C 
ENDBRANCH  12  13
ENDBRANCH  16  15
BRANCH  17  18
ATOM     18  O   UNL     1      48.230  17.928  22.505  0.00  0.00    -0.488 OA
ATOM     19  H   UNL     1      47.614  17.242  22.211  0.00  0.00    +0.390 HD
ENDBRANCH  17  18
BRANCH  21  22
ATOM     22  O   UNL     1      52.475  16.601  20.838  0.00  0.00    -0.491 OA
ATOM     23  H   UNL     1      52.221  15.668  20.850  0.00  0.00    +0.391 HD
ENDBRANCH  21  22
TORSDOF 5
ENDMDL
MODEL 7
REMARK VINA RESULT:      -5.4      3.863      7.425
REMARK  Name = ZINC95486149
REMARK  11 active torsions:
REMARK  status: ('A' for Active; 'I' for Inactive)
REMARK    1  A    between atoms: C1_1  and  C2_2
REMARK    2  A    between atoms: C6_6  and  O1_8
REMARK    3  A    between atoms: O1_8  and  C8_9
REMARK    4  A    between atoms: C9_10  and  O4_31
REMARK    5  A    between atoms: C11_12  and  C24_30
REMARK    6  A    between atoms: C12_13  and  C13_14
REMARK    7  A    between atoms: C14_15  and  O3_29
REMARK    8  A    between atoms: C16_17  and  O2_28
REMARK    9  A    between atoms: C20_21  and  C23_27
REMARK   10  A    between atoms: C21_24  and  C22_26
REMARK   11  A    between atoms: O4_31  and  C25_32
REMARK                            x       y       z     vdW  Elec       q    Type
REMARK                         _______ _______ _______ _____ _____    ______ ____
ROOT
ATOM     16  C   UNL     1      48.107  17.044  18.205  0.00  0.00    -0.062 A 
ATOM     17  C   UNL     1      47.025  17.287  17.353  0.00  0.00    +0.137 A 
ATOM     20  C   UNL     1      46.587  16.288  16.503  0.00  0.00    -0.043 A 
ATOM     21  C   UNL     1      47.220  15.055  16.501  0.00  0.00    +0.133 A 
ATOM     24  C   UNL     1      48.298  14.809  17.350  0.00  0.00    -0.142 A 
ATOM     25  C   UNL     1      48.944  13.449  17.308  0.00  0.00    +0.230 C 
ATOM     26  C   UNL     1      49.076  12.997  15.853  0.00  0.00    +0.041 C 
ATOM     27  N   UNL     1      50.283  13.499  17.912  0.00  0.00    -0.670 NA
ATOM     28  H   UNL     1      50.930  14.009  17.329  0.00  0.00    +0.343 HD
ATOM     29  C   UNL     1      50.205  14.091  19.257  0.00  0.00    +0.171 C 
ATOM     30  C   UNL     1      49.078  13.426  20.050  0.00  0.00    +0.032 C 
ATOM     31  C   UNL     1      49.919  15.585  19.114  0.00  0.00    +0.052 C 
ATOM     32  C   UNL     1      48.746  15.800  18.191  0.00  0.00    -0.029 A 
ENDROOT
BRANCH  16  15
ATOM      1  C   UNL     1      51.884  19.551  15.750  0.00  0.00    +0.092 C 
ATOM      2  C   UNL     1      51.240  19.696  17.104  0.00  0.00    -0.020 A 
ATOM      3  C   UNL     1      50.234  18.849  17.464  0.00  0.00    -0.045 A 
ATOM      4  C   UNL     1      49.627  18.976  18.721  0.00  0.00    +0.045 A 
ATOM      5  C   UNL     1      50.066  19.987  19.610  0.00  0.00    -0.105 A 
ATOM      6  C   UNL     1      49.457  20.114  20.873  0.00  0.00    +0.177 A 
ATOM      9  C   UNL     1      48.442  19.256  21.235  0.00  0.00    -0.107 A 
ATOM     10  C   UNL     1      48.006  18.261  20.369  0.00  0.00    +0.002 A 
ATOM     11  C   UNL     1      46.893  17.337  20.794  0.00  0.00    +0.095 C 
ATOM     12  C   UNL     1      51.106  20.850  19.212  0.00  0.00    +0.176 A 
ATOM     15  C   UNL     1      48.582  18.108  19.119  0.00  0.00    -0.090 A 
ATOM     33  C   UNL     1      51.683  20.691  17.971  0.00  0.00    -0.113 A 
BRANCH   6   7
ATOM      7  O   UNL     1      49.870  21.080  21.733  0.00  0.00    -0.290 OA
ATOM      8  C   UNL     1      48.862  21.735  22.506  0.00  0.00    +0.239 C 
ENDBRANCH   6   7
BRANCH  12  13
ATOM     13  O   UNL     1      51.542  21.827  20.049  0.00  0.00    -0.290 OA
ATOM     14  C   UNL     1      52.951  21.909  20.272  0.00  0.00    +0.239 C 
ENDBRANCH  12  13
ENDBRANCH  16  15
BRANCH  17  18
ATOM     18  O   UNL     1      46.408  18.497  17.362  0.00  0.00    -0.488 OA
ATOM     19  H   UNL     1      45.474  18.460  17.611  0.00  0.00    +0.390 HD
ENDBRANCH  17  18
BRANCH  21  22
ATOM     22  O   UNL     1      46.785  14.077  15.665  0.00  0.00    -0.491 OA
ATOM     23  H   UNL     1      45.941  14.273  15.234  0.00  0.00    +0.391 HD
ENDBRANCH  21  22
TORSDOF 5
ENDMDL
MODEL 8
REMARK VINA RESULT:      -5.4      3.806      7.945
REMARK  Name = ZINC95486149
REMARK  11 active torsions:
REMARK  status: ('A' for Active; 'I' for Inactive)
REMARK    1  A    between atoms: C1_1  and  C2_2
REMARK    2  A    between atoms: C6_6  and  O1_8
REMARK    3  A    between atoms: O1_8  and  C8_9
REMARK    4  A    between atoms: C9_10  and  O4_31
REMARK    5  A    between atoms: C11_12  and  C24_30
REMARK    6  A    between atoms: C12_13  and  C13_14
REMARK    7  A    between atoms: C14_15  and  O3_29
REMARK    8  A    between atoms: C16_17  and  O2_28
REMARK    9  A    between atoms: C20_21  and  C23_27
REMARK   10  A    between atoms: C21_24  and  C22_26
REMARK   11  A    between atoms: O4_31  and  C25_32
REMARK                            x       y       z     vdW  Elec       q    Type
REMARK                         _______ _______ _______ _____ _____    ______ ____
ROOT
ATOM     16  C   UNL     1      47.950  13.893  17.237  0.00  0.00    -0.062 A 
ATOM     17  C   UNL     1      47.573  13.759  15.897  0.00  0.00    +0.137 A 
ATOM     20  C   UNL     1      48.162  12.781  15.116  0.00  0.00    -0.043 A 
ATOM     21  C   UNL     1      49.119  11.942  15.665  0.00  0.00    +0.133 A 
ATOM     24  C   UNL     1      49.497  12.073  17.001  0.00  0.00    -0.142 A 
ATOM     25  C   UNL     1      50.538  11.130  17.545  0.00  0.00    +0.230 C 
ATOM     26  C   UNL     1      51.653  10.959  16.511  0.00  0.00    +0.041 C 
ATOM     27  N   UNL     1      51.118  11.668  18.783  0.00  0.00    -0.670 NA
ATOM     28  H   UNL     1      51.700  12.471  18.598  0.00  0.00    +0.343 HD
ATOM     29  C   UNL     1      50.047  12.001  19.735  0.00  0.00    +0.171 C 
ATOM     30  C   UNL     1      49.069  10.830  19.844  0.00  0.00    +0.032 C 
ATOM     31  C   UNL     1      49.311  13.239  19.225  0.00  0.00    +0.052 C 
ATOM     32  C   UNL     1      48.922  13.049  17.781  0.00  0.00    -0.029 A 
ENDROOT
BRANCH  16  15
ATOM      1  C   UNL     1      50.905  18.100  16.855  0.00  0.00    +0.092 C 
ATOM      2  C   UNL     1      49.637  17.776  17.602  0.00  0.00    -0.020 A 
ATOM      3  C   UNL     1      49.090  16.533  17.489  0.00  0.00    -0.045 A 
ATOM      4  C   UNL     1      47.910  16.221  18.179  0.00  0.00    +0.045 A 
ATOM      5  C   UNL     1      47.295  17.205  18.990  0.00  0.00    -0.105 A 
ATOM      6  C   UNL     1      46.110  16.892  19.684  0.00  0.00    +0.177 A 
ATOM      9  C   UNL     1      45.559  15.634  19.569  0.00  0.00    -0.107 A 
ATOM     10  C   UNL     1      46.158  14.663  18.775  0.00  0.00    +0.002 A 
ATOM     11  C   UNL     1      45.531  13.296  18.671  0.00  0.00    +0.095 C 
ATOM     12  C   UNL     1      47.880  18.483  19.088  0.00  0.00    +0.176 A 
ATOM     15  C   UNL     1      47.322  14.937  18.080  0.00  0.00    -0.090 A 
ATOM     33  C   UNL     1      49.043  18.750  18.400  0.00  0.00    -0.113 A 
BRANCH   6   7
ATOM      7  O   UNL     1      45.510  17.828  20.464  0.00  0.00    -0.290 OA
ATOM      8  C   UNL     1      44.123  18.077  20.229  0.00  0.00    +0.239 C 
ENDBRANCH   6   7
BRANCH  12  13
ATOM     13  O   UNL     1      47.305  19.442  19.860  0.00  0.00    -0.290 OA
ATOM     14  C   UNL     1      47.067  20.710  19.247  0.00  0.00    +0.239 C 
ENDBRANCH  12  13
ENDBRANCH  16  15
BRANCH  17  18
ATOM     18  O   UNL     1      46.632  14.583  15.367  0.00  0.00    -0.488 OA
ATOM     19  H   UNL     1      46.712  15.505  15.649  0.00  0.00    +0.390 HD
ENDBRANCH  17  18
BRANCH  21  22
ATOM     22  O   UNL     1      49.695  10.982  14.895  0.00  0.00    -0.491 OA
ATOM     23  H   UNL     1      50.598  10.757  15.156  0.00  0.00    +0.391 HD
ENDBRANCH  21  22
TORSDOF 5
ENDMDL
MODEL 9
REMARK VINA RESULT:      -5.3      2.880      3.773
REMARK  Name = ZINC95486149
REMARK  11 active torsions:
REMARK  status: ('A' for Active; 'I' for Inactive)
REMARK    1  A    between atoms: C1_1  and  C2_2
REMARK    2  A    between atoms: C6_6  and  O1_8
REMARK    3  A    between atoms: O1_8  and  C8_9
REMARK    4  A    between atoms: C9_10  and  O4_31
REMARK    5  A    between atoms: C11_12  and  C24_30
REMARK    6  A    between atoms: C12_13  and  C13_14
REMARK    7  A    between atoms: C14_15  and  O3_29
REMARK    8  A    between atoms: C16_17  and  O2_28
REMARK    9  A    between atoms: C20_21  and  C23_27
REMARK   10  A    between atoms: C21_24  and  C22_26
REMARK   11  A    between atoms: O4_31  and  C25_32
REMARK                            x       y       z     vdW  Elec       q    Type
REMARK                         _______ _______ _______ _____ _____    ______ ____
ROOT
ATOM     16  C   UNL     1      47.246  18.145  18.979  0.00  0.00    -0.062 A 
ATOM     17  C   UNL     1      46.238  18.380  18.037  0.00  0.00    +0.137 A 
ATOM     20  C   UNL     1      45.634  19.624  17.978  0.00  0.00    -0.043 A 
ATOM     21  C   UNL     1      46.031  20.626  18.849  0.00  0.00    +0.133 A 
ATOM     24  C   UNL     1      47.035  20.395  19.788  0.00  0.00    -0.142 A 
ATOM     25  C   UNL     1      47.429  21.524  20.706  0.00  0.00    +0.230 C 
ATOM     26  C   UNL     1      46.169  22.247  21.185  0.00  0.00    +0.041 C 
ATOM     27  N   UNL     1      48.151  21.005  21.875  0.00  0.00    -0.670 NA
ATOM     28  H   UNL     1      47.536  20.495  22.491  0.00  0.00    +0.343 HD
ATOM     29  C   UNL     1      49.275  20.161  21.437  0.00  0.00    +0.171 C 
ATOM     30  C   UNL     1      50.077  20.888  20.356  0.00  0.00    +0.032 C 
ATOM     31  C   UNL     1      48.712  18.859  20.870  0.00  0.00    +0.052 C 
ATOM     32  C   UNL     1      47.634  19.159  19.860  0.00  0.00    -0.029 A 
ENDROOT
BRANCH  16  15
ATOM      1  C   UNL     1      51.499  18.416  16.078  0.00  0.00    +0.092 C 
ATOM      2  C   UNL     1      50.863  17.328  16.904  0.00  0.00    -0.020 A 
ATOM      3  C   UNL     1      49.703  17.583  17.573  0.00  0.00    -0.045 A 
ATOM      4  C   UNL     1      49.103  16.578  18.345  0.00  0.00    +0.045 A 
ATOM      5  C   UNL     1      49.710  15.302  18.423  0.00  0.00    -0.105 A 
ATOM      6  C   UNL     1      49.108  14.292  19.197  0.00  0.00    +0.177 A 
ATOM      9  C   UNL     1      47.934  14.552  19.872  0.00  0.00    -0.107 A 
ATOM     10  C   UNL     1      47.332  15.802  19.799  0.00  0.00    +0.002 A 
ATOM     11  C   UNL     1      46.049  16.056  20.548  0.00  0.00    +0.095 C 
ATOM     12  C   UNL     1      50.910  15.065  17.723  0.00  0.00    +0.176 A 
ATOM     15  C   UNL     1      47.897  16.818  19.048  0.00  0.00    -0.090 A 
ATOM     33  C   UNL     1      51.467  16.075  16.970  0.00  0.00    -0.113 A 
BRANCH   6   7
ATOM      7  O   UNL     1      49.681  13.064  19.280  0.00  0.00    -0.290 OA
ATOM      8  C   UNL     1      48.812  11.934  19.180  0.00  0.00    +0.239 C 
ENDBRANCH   6   7
BRANCH  12  13
ATOM     13  O   UNL     1      51.509  13.847  17.785  0.00  0.00    -0.290 OA
ATOM     14  C   UNL     1      51.577  13.096  16.572  0.00  0.00    +0.239 C 
ENDBRANCH  12  13
ENDBRANCH  16  15
BRANCH  17  18
ATOM     18  O   UNL     1      45.857  17.394  17.186  0.00  0.00    -0.488 OA
ATOM     19  H   UNL     1      46.569  17.065  16.619  0.00  0.00    +0.390 HD
ENDBRANCH  17  18
BRANCH  21  22
ATOM     22  O   UNL     1      45.436  21.846  18.787  0.00  0.00    -0.491 OA
ATOM     23  H   UNL     1      45.592  22.400  19.564  0.00  0.00    +0.391 HD
ENDBRANCH  21  22
TORSDOF 5
ENDMDL
