MODEL 1
REMARK VINA RESULT:      -6.2      0.000      0.000
REMARK  Name = ZINC95486318
REMARK  8 active torsions:
REMARK  status: ('A' for Active; 'I' for Inactive)
REMARK    1  A    between atoms: C1_1  and  C2_2
REMARK    2  A    between atoms: C7_8  and  C12_16
REMARK    3  A    between atoms: C8_9  and  O1_15
REMARK    4  A    between atoms: C10_11  and  C11_14
REMARK    5  A    between atoms: C17_22  and  O2_31
REMARK    6  A    between atoms: C19_24  and  C23_30
REMARK    7  A    between atoms: C21_27  and  C22_29
REMARK    8  A    between atoms: O2_31  and  C24_32
REMARK                            x       y       z     vdW  Elec       q    Type
REMARK                         _______ _______ _______ _____ _____    ______ ____
ROOT
ATOM      1  C   UNL     1      41.817  20.926  19.131  0.00  0.00    +0.093 C 
ATOM      2  C   UNL     1      43.319  21.115  19.358  0.00  0.00    +0.167 C 
ATOM      3  C   UNL     1      44.082  19.938  18.749  0.00  0.00    +0.130 C 
ATOM      4  C   UNL     1      45.530  19.999  19.165  0.00  0.00    -0.076 A 
ATOM      5  C   UNL     1      46.456  19.245  18.460  0.00  0.00    +0.020 A 
ATOM      6  C   UNL     1      47.791  19.271  18.813  0.00  0.00    +0.083 A 
ATOM      7  C   UNL     1      48.209  20.051  19.873  0.00  0.00    -0.077 A 
ATOM     22  C   UNL     1      47.286  20.806  20.579  0.00  0.00    +0.137 A 
ATOM     25  C   UNL     1      45.940  20.781  20.222  0.00  0.00    -0.156 A 
ATOM     26  C   UNL     1      44.971  21.623  21.009  0.00  0.00    +0.236 C 
ATOM     27  C   UNL     1      45.083  23.080  20.554  0.00  0.00    +0.093 C 
ATOM     28  N   UNL     1      43.597  21.161  20.802  0.00  0.00    -0.501 N 
ATOM     29  H   UNL     1      43.491  20.239  21.196  0.00  0.00    +0.429 HD
ATOM     30  H   UNL     1      42.954  21.798  21.249  0.00  0.00    +0.431 HD
ENDROOT
BRANCH   7   8
ATOM      8  C   UNL     1      49.669  20.081  20.264  0.00  0.00    +0.100 C 
ATOM      9  C   UNL     1      50.268  18.717  20.068  0.00  0.00    -0.036 A 
ATOM     10  C   UNL     1      49.536  17.620  20.506  0.00  0.00    -0.038 A 
ATOM     11  C   UNL     1      50.016  16.335  20.342  0.00  0.00    +0.042 A 
ATOM     12  C   UNL     1      51.251  16.136  19.758  0.00  0.00    -0.078 A 
ATOM     13  C   UNL     1      51.998  17.226  19.348  0.00  0.00    +0.133 A 
ATOM     16  C   UNL     1      51.507  18.524  19.500  0.00  0.00    -0.088 A 
ATOM     17  C   UNL     1      52.383  19.659  19.050  0.00  0.00    +0.037 C 
ATOM     18  C   UNL     1      52.588  19.613  17.536  0.00  0.00    +0.032 C 
ATOM     19  C   UNL     1      51.873  21.019  19.484  0.00  0.00    +0.031 C 
ATOM     20  C   UNL     1      50.362  21.151  19.434  0.00  0.00    -0.008 C 
ATOM     21  C   UNL     1      49.820  21.151  18.005  0.00  0.00    +0.026 C 
BRANCH  13  14
ATOM     14  O   UNL     1      53.229  17.014  18.813  0.00  0.00    -0.311 OA
ATOM     15  C   UNL     1      54.091  16.108  19.505  0.00  0.00    +0.242 C 
ENDBRANCH  13  14
ENDBRANCH   7   8
BRANCH  22  23
ATOM     23  O   UNL     1      47.696  21.575  21.623  0.00  0.00    -0.490 OA
ATOM     24  H   UNL     1      48.512  22.064  21.454  0.00  0.00    +0.397 HD
ENDBRANCH  22  23
TORSDOF 3
ENDMDL
MODEL 2
REMARK VINA RESULT:      -6.2      3.754      7.167
REMARK  Name = ZINC95486318
REMARK  8 active torsions:
REMARK  status: ('A' for Active; 'I' for Inactive)
REMARK    1  A    between atoms: C1_1  and  C2_2
REMARK    2  A    between atoms: C7_8  and  C12_16
REMARK    3  A    between atoms: C8_9  and  O1_15
REMARK    4  A    between atoms: C10_11  and  C11_14
REMARK    5  A    between atoms: C17_22  and  O2_31
REMARK    6  A    between atoms: C19_24  and  C23_30
REMARK    7  A    between atoms: C21_27  and  C22_29
REMARK    8  A    between atoms: O2_31  and  C24_32
REMARK                            x       y       z     vdW  Elec       q    Type
REMARK                         _______ _______ _______ _____ _____    ______ ____
ROOT
ATOM      1  C   UNL     1      46.213  11.078  17.191  0.00  0.00    +0.093 C 
ATOM      2  C   UNL     1      46.732  12.505  17.381  0.00  0.00    +0.167 C 
ATOM      3  C   UNL     1      45.791  13.274  18.308  0.00  0.00    +0.130 C 
ATOM      4  C   UNL     1      46.164  14.735  18.318  0.00  0.00    -0.076 A 
ATOM      5  C   UNL     1      45.676  15.539  19.335  0.00  0.00    +0.020 A 
ATOM      6  C   UNL     1      45.993  16.883  19.377  0.00  0.00    +0.083 A 
ATOM      7  C   UNL     1      46.801  17.431  18.401  0.00  0.00    -0.077 A 
ATOM     22  C   UNL     1      47.292  16.630  17.383  0.00  0.00    +0.137 A 
ATOM     25  C   UNL     1      46.974  15.274  17.342  0.00  0.00    -0.156 A 
ATOM     26  C   UNL     1      47.535  14.436  16.224  0.00  0.00    +0.236 C 
ATOM     27  C   UNL     1      48.996  14.103  16.528  0.00  0.00    +0.093 C 
ATOM     28  N   UNL     1      46.778  13.191  16.080  0.00  0.00    -0.501 N 
ATOM     29  H   UNL     1      45.840  13.402  15.776  0.00  0.00    +0.429 HD
ATOM     30  H   UNL     1      47.230  12.596  15.401  0.00  0.00    +0.431 HD
ENDROOT
BRANCH   7   8
ATOM      8  C   UNL     1      47.148  18.902  18.442  0.00  0.00    +0.100 C 
ATOM      9  C   UNL     1      45.957  19.685  18.914  0.00  0.00    -0.036 A 
ATOM     10  C   UNL     1      44.715  19.361  18.381  0.00  0.00    -0.038 A 
ATOM     11  C   UNL     1      43.574  20.026  18.782  0.00  0.00    +0.042 A 
ATOM     12  C   UNL     1      43.667  21.046  19.708  0.00  0.00    -0.078 A 
ATOM     13  C   UNL     1      44.905  21.395  20.220  0.00  0.00    +0.133 A 
ATOM     16  C   UNL     1      46.057  20.712  19.827  0.00  0.00    -0.088 A 
ATOM     17  C   UNL     1      47.367  21.159  20.410  0.00  0.00    +0.037 C 
ATOM     18  C   UNL     1      47.398  20.911  21.918  0.00  0.00    +0.032 C 
ATOM     19  C   UNL     1      48.570  20.530  19.735  0.00  0.00    +0.031 C 
ATOM     20  C   UNL     1      48.362  19.079  19.341  0.00  0.00    -0.008 C 
ATOM     21  C   UNL     1      48.269  18.150  20.550  0.00  0.00    +0.026 C 
BRANCH  13  14
ATOM     14  O   UNL     1      44.983  22.427  21.101  0.00  0.00    -0.311 OA
ATOM     15  C   UNL     1      45.088  23.742  20.551  0.00  0.00    +0.242 C 
ENDBRANCH  13  14
ENDBRANCH   7   8
BRANCH  22  23
ATOM     23  O   UNL     1      48.087  17.168  16.421  0.00  0.00    -0.490 OA
ATOM     24  H   UNL     1      47.714  17.950  15.994  0.00  0.00    +0.397 HD
ENDBRANCH  22  23
TORSDOF 3
ENDMDL
MODEL 3
REMARK VINA RESULT:      -6.0      2.107      2.914
REMARK  Name = ZINC95486318
REMARK  8 active torsions:
REMARK  status: ('A' for Active; 'I' for Inactive)
REMARK    1  A    between atoms: C1_1  and  C2_2
REMARK    2  A    between atoms: C7_8  and  C12_16
REMARK    3  A    between atoms: C8_9  and  O1_15
REMARK    4  A    between atoms: C10_11  and  C11_14
REMARK    5  A    between atoms: C17_22  and  O2_31
REMARK    6  A    between atoms: C19_24  and  C23_30
REMARK    7  A    between atoms: C21_27  and  C22_29
REMARK    8  A    between atoms: O2_31  and  C24_32
REMARK                            x       y       z     vdW  Elec       q    Type
REMARK                         _______ _______ _______ _____ _____    ______ ____
ROOT
ATOM      1  C   UNL     1      40.143  20.743  19.292  0.00  0.00    +0.093 C 
ATOM      2  C   UNL     1      41.515  20.382  19.864  0.00  0.00    +0.167 C 
ATOM      3  C   UNL     1      42.608  20.800  18.879  0.00  0.00    +0.130 C 
ATOM      4  C   UNL     1      43.937  20.246  19.326  0.00  0.00    -0.076 A 
ATOM      5  C   UNL     1      45.096  20.779  18.784  0.00  0.00    +0.020 A 
ATOM      6  C   UNL     1      46.332  20.297  19.166  0.00  0.00    +0.083 A 
ATOM      7  C   UNL     1      46.418  19.277  20.093  0.00  0.00    -0.077 A 
ATOM     22  C   UNL     1      45.262  18.742  20.637  0.00  0.00    +0.137 A 
ATOM     25  C   UNL     1      44.015  19.230  20.254  0.00  0.00    -0.156 A 
ATOM     26  C   UNL     1      42.783  18.627  20.876  0.00  0.00    +0.236 C 
ATOM     27  C   UNL     1      42.596  19.201  22.281  0.00  0.00    +0.093 C 
ATOM     28  N   UNL     1      41.597  18.928  20.073  0.00  0.00    -0.501 N 
ATOM     29  H   UNL     1      41.669  18.463  19.181  0.00  0.00    +0.429 HD
ATOM     30  H   UNL     1      40.769  18.610  20.556  0.00  0.00    +0.431 HD
ENDROOT
BRANCH   7   8
ATOM      8  C   UNL     1      47.769  18.744  20.512  0.00  0.00    +0.100 C 
ATOM      9  C   UNL     1      48.590  18.443  19.290  0.00  0.00    -0.036 A 
ATOM     10  C   UNL     1      47.967  17.781  18.239  0.00  0.00    -0.038 A 
ATOM     11  C   UNL     1      48.654  17.487  17.078  0.00  0.00    +0.042 A 
ATOM     12  C   UNL     1      49.986  17.833  16.966  0.00  0.00    -0.078 A 
ATOM     13  C   UNL     1      50.620  18.464  18.021  0.00  0.00    +0.133 A 
ATOM     16  C   UNL     1      49.922  18.775  19.189  0.00  0.00    -0.088 A 
ATOM     17  C   UNL     1      50.682  19.442  20.300  0.00  0.00    +0.037 C 
ATOM     18  C   UNL     1      51.146  20.835  19.874  0.00  0.00    +0.032 C 
ATOM     19  C   UNL     1      49.908  19.507  21.602  0.00  0.00    +0.031 C 
ATOM     20  C   UNL     1      48.425  19.773  21.420  0.00  0.00    -0.008 C 
ATOM     21  C   UNL     1      48.140  21.187  20.917  0.00  0.00    +0.026 C 
BRANCH  13  14
ATOM     14  O   UNL     1      51.942  18.760  17.909  0.00  0.00    -0.311 OA
ATOM     15  C   UNL     1      52.352  19.463  16.734  0.00  0.00    +0.242 C 
ENDBRANCH  13  14
ENDBRANCH   7   8
BRANCH  22  23
ATOM     23  O   UNL     1      45.344  17.738  21.550  0.00  0.00    -0.490 OA
ATOM     24  H   UNL     1      45.140  18.010  22.455  0.00  0.00    +0.397 HD
ENDBRANCH  22  23
TORSDOF 3
ENDMDL
MODEL 4
REMARK VINA RESULT:      -6.0      5.520      9.024
REMARK  Name = ZINC95486318
REMARK  8 active torsions:
REMARK  status: ('A' for Active; 'I' for Inactive)
REMARK    1  A    between atoms: C1_1  and  C2_2
REMARK    2  A    between atoms: C7_8  and  C12_16
REMARK    3  A    between atoms: C8_9  and  O1_15
REMARK    4  A    between atoms: C10_11  and  C11_14
REMARK    5  A    between atoms: C17_22  and  O2_31
REMARK    6  A    between atoms: C19_24  and  C23_30
REMARK    7  A    between atoms: C21_27  and  C22_29
REMARK    8  A    between atoms: O2_31  and  C24_32
REMARK                            x       y       z     vdW  Elec       q    Type
REMARK                         _______ _______ _______ _____ _____    ______ ____
ROOT
ATOM      1  C   UNL     1      52.835  10.402  15.194  0.00  0.00    +0.093 C 
ATOM      2  C   UNL     1      51.734  11.464  15.244  0.00  0.00    +0.167 C 
ATOM      3  C   UNL     1      51.504  11.896  16.693  0.00  0.00    +0.130 C 
ATOM      4  C   UNL     1      50.275  12.765  16.776  0.00  0.00    -0.076 A 
ATOM      5  C   UNL     1      50.082  13.537  17.912  0.00  0.00    +0.020 A 
ATOM      6  C   UNL     1      48.967  14.343  18.028  0.00  0.00    +0.083 A 
ATOM      7  C   UNL     1      48.036  14.383  17.009  0.00  0.00    -0.077 A 
ATOM     22  C   UNL     1      48.226  13.614  15.872  0.00  0.00    +0.137 A 
ATOM     25  C   UNL     1      49.352  12.803  15.754  0.00  0.00    -0.156 A 
ATOM     26  C   UNL     1      49.525  11.989  14.499  0.00  0.00    +0.236 C 
ATOM     27  C   UNL     1      50.038  12.895  13.378  0.00  0.00    +0.093 C 
ATOM     28  N   UNL     1      50.482  10.902  14.714  0.00  0.00    -0.501 N 
ATOM     29  H   UNL     1      50.100  10.245  15.376  0.00  0.00    +0.429 HD
ATOM     30  H   UNL     1      50.666  10.434  13.839  0.00  0.00    +0.431 HD
ENDROOT
BRANCH   7   8
ATOM      8  C   UNL     1      46.813  15.263  17.133  0.00  0.00    +0.100 C 
ATOM      9  C   UNL     1      46.194  15.073  18.488  0.00  0.00    -0.036 A 
ATOM     10  C   UNL     1      46.069  13.774  18.967  0.00  0.00    -0.038 A 
ATOM     11  C   UNL     1      45.527  13.525  20.211  0.00  0.00    +0.042 A 
ATOM     12  C   UNL     1      45.079  14.577  20.985  0.00  0.00    -0.078 A 
ATOM     13  C   UNL     1      45.172  15.870  20.502  0.00  0.00    +0.133 A 
ATOM     16  C   UNL     1      45.734  16.124  19.250  0.00  0.00    -0.088 A 
ATOM     17  C   UNL     1      45.784  17.551  18.783  0.00  0.00    +0.037 C 
ATOM     18  C   UNL     1      46.709  18.378  19.676  0.00  0.00    +0.032 C 
ATOM     19  C   UNL     1      46.175  17.692  17.325  0.00  0.00    +0.031 C 
ATOM     20  C   UNL     1      47.234  16.702  16.876  0.00  0.00    -0.008 C 
ATOM     21  C   UNL     1      48.600  16.978  17.504  0.00  0.00    +0.026 C 
BRANCH  13  14
ATOM     14  O   UNL     1      44.689  16.890  21.260  0.00  0.00    -0.311 OA
ATOM     15  C   UNL     1      43.679  16.565  22.216  0.00  0.00    +0.242 C 
ENDBRANCH  13  14
ENDBRANCH   7   8
BRANCH  22  23
ATOM     23  O   UNL     1      47.311  13.653  14.868  0.00  0.00    -0.490 OA
ATOM     24  H   UNL     1      47.667  13.959  14.022  0.00  0.00    +0.397 HD
ENDBRANCH  22  23
TORSDOF 3
ENDMDL
MODEL 5
REMARK VINA RESULT:      -5.7      3.350      7.705
REMARK  Name = ZINC95486318
REMARK  8 active torsions:
REMARK  status: ('A' for Active; 'I' for Inactive)
REMARK    1  A    between atoms: C1_1  and  C2_2
REMARK    2  A    between atoms: C7_8  and  C12_16
REMARK    3  A    between atoms: C8_9  and  O1_15
REMARK    4  A    between atoms: C10_11  and  C11_14
REMARK    5  A    between atoms: C17_22  and  O2_31
REMARK    6  A    between atoms: C19_24  and  C23_30
REMARK    7  A    between atoms: C21_27  and  C22_29
REMARK    8  A    between atoms: O2_31  and  C24_32
REMARK                            x       y       z     vdW  Elec       q    Type
REMARK                         _______ _______ _______ _____ _____    ______ ____
ROOT
ATOM      1  C   UNL     1      53.718  16.302  19.126  0.00  0.00    +0.093 C 
ATOM      2  C   UNL     1      52.323  16.838  18.796  0.00  0.00    +0.167 C 
ATOM      3  C   UNL     1      51.432  16.748  20.035  0.00  0.00    +0.130 C 
ATOM      4  C   UNL     1      50.004  17.056  19.661  0.00  0.00    -0.076 A 
ATOM      5  C   UNL     1      49.105  17.367  20.669  0.00  0.00    +0.020 A 
ATOM      6  C   UNL     1      47.787  17.652  20.366  0.00  0.00    +0.083 A 
ATOM      7  C   UNL     1      47.361  17.628  19.053  0.00  0.00    -0.077 A 
ATOM     22  C   UNL     1      48.257  17.318  18.043  0.00  0.00    +0.137 A 
ATOM     25  C   UNL     1      49.586  17.033  18.348  0.00  0.00    -0.156 A 
ATOM     26  C   UNL     1      50.530  16.710  17.220  0.00  0.00    +0.236 C 
ATOM     27  C   UNL     1      50.949  18.008  16.526  0.00  0.00    +0.093 C 
ATOM     28  N   UNL     1      51.724  16.028  17.723  0.00  0.00    -0.501 N 
ATOM     29  H   UNL     1      51.465  15.124  18.088  0.00  0.00    +0.429 HD
ATOM     30  H   UNL     1      52.391  15.914  16.974  0.00  0.00    +0.431 HD
ENDROOT
BRANCH   7   8
ATOM      8  C   UNL     1      45.920  17.937  18.718  0.00  0.00    +0.100 C 
ATOM      9  C   UNL     1      45.048  17.594  19.892  0.00  0.00    -0.036 A 
ATOM     10  C   UNL     1      45.283  16.389  20.544  0.00  0.00    -0.038 A 
ATOM     11  C   UNL     1      44.533  16.017  21.641  0.00  0.00    +0.042 A 
ATOM     12  C   UNL     1      43.517  16.840  22.086  0.00  0.00    -0.078 A 
ATOM     13  C   UNL     1      43.257  18.026  21.423  0.00  0.00    +0.133 A 
ATOM     16  C   UNL     1      44.025  18.410  20.323  0.00  0.00    -0.088 A 
ATOM     17  C   UNL     1      43.672  19.701  19.641  0.00  0.00    +0.037 C 
ATOM     18  C   UNL     1      43.912  20.887  20.576  0.00  0.00    +0.032 C 
ATOM     19  C   UNL     1      44.392  19.901  18.323  0.00  0.00    +0.031 C 
ATOM     20  C   UNL     1      45.827  19.404  18.326  0.00  0.00    -0.008 C 
ATOM     21  C   UNL     1      46.739  20.251  19.212  0.00  0.00    +0.026 C 
BRANCH  13  14
ATOM     14  O   UNL     1      42.227  18.804  21.850  0.00  0.00    -0.311 OA
ATOM     15  C   UNL     1      40.944  18.555  21.273  0.00  0.00    +0.242 C 
ENDBRANCH  13  14
ENDBRANCH   7   8
BRANCH  22  23
ATOM     23  O   UNL     1      47.839  17.294  16.750  0.00  0.00    -0.490 OA
ATOM     24  H   UNL     1      46.916  17.029  16.640  0.00  0.00    +0.397 HD
ENDBRANCH  22  23
TORSDOF 3
ENDMDL
MODEL 6
REMARK VINA RESULT:      -5.6      6.030      9.515
REMARK  Name = ZINC95486318
REMARK  8 active torsions:
REMARK  status: ('A' for Active; 'I' for Inactive)
REMARK    1  A    between atoms: C1_1  and  C2_2
REMARK    2  A    between atoms: C7_8  and  C12_16
REMARK    3  A    between atoms: C8_9  and  O1_15
REMARK    4  A    between atoms: C10_11  and  C11_14
REMARK    5  A    between atoms: C17_22  and  O2_31
REMARK    6  A    between atoms: C19_24  and  C23_30
REMARK    7  A    between atoms: C21_27  and  C22_29
REMARK    8  A    between atoms: O2_31  and  C24_32
REMARK                            x       y       z     vdW  Elec       q    Type
REMARK                         _______ _______ _______ _____ _____    ______ ____
ROOT
ATOM      1  C   UNL     1      51.282  12.226  10.681  0.00  0.00    +0.093 C 
ATOM      2  C   UNL     1      51.021  12.327  12.186  0.00  0.00    +0.167 C 
ATOM      3  C   UNL     1      49.560  12.707  12.429  0.00  0.00    +0.130 C 
ATOM      4  C   UNL     1      49.354  13.031  13.887  0.00  0.00    -0.076 A 
ATOM      5  C   UNL     1      48.060  13.062  14.384  0.00  0.00    +0.020 A 
ATOM      6  C   UNL     1      47.829  13.358  15.713  0.00  0.00    +0.083 A 
ATOM      7  C   UNL     1      48.891  13.626  16.554  0.00  0.00    -0.077 A 
ATOM     22  C   UNL     1      50.185  13.595  16.061  0.00  0.00    +0.137 A 
ATOM     25  C   UNL     1      50.418  13.294  14.721  0.00  0.00    -0.156 A 
ATOM     26  C   UNL     1      51.840  13.263  14.227  0.00  0.00    +0.236 C 
ATOM     27  C   UNL     1      52.493  11.947  14.654  0.00  0.00    +0.093 C 
ATOM     28  N   UNL     1      51.884  13.367  12.767  0.00  0.00    -0.501 N 
ATOM     29  H   UNL     1      51.551  14.277  12.486  0.00  0.00    +0.429 HD
ATOM     30  H   UNL     1      52.832  13.238  12.445  0.00  0.00    +0.431 HD
ENDROOT
BRANCH   7   8
ATOM      8  C   UNL     1      48.642  13.953  18.009  0.00  0.00    +0.100 C 
ATOM      9  C   UNL     1      47.693  15.112  18.107  0.00  0.00    -0.036 A 
ATOM     10  C   UNL     1      47.902  16.195  17.261  0.00  0.00    -0.038 A 
ATOM     11  C   UNL     1      47.059  17.288  17.282  0.00  0.00    +0.042 A 
ATOM     12  C   UNL     1      46.005  17.320  18.174  0.00  0.00    -0.078 A 
ATOM     13  C   UNL     1      45.809  16.259  19.041  0.00  0.00    +0.133 A 
ATOM     16  C   UNL     1      46.652  15.148  19.008  0.00  0.00    -0.088 A 
ATOM     17  C   UNL     1      46.390  14.043  19.993  0.00  0.00    +0.037 C 
ATOM     18  C   UNL     1      45.043  13.379  19.711  0.00  0.00    +0.032 C 
ATOM     19  C   UNL     1      47.499  13.012  20.047  0.00  0.00    +0.031 C 
ATOM     20  C   UNL     1      48.114  12.702  18.694  0.00  0.00    -0.008 C 
ATOM     21  C   UNL     1      47.153  11.954  17.770  0.00  0.00    +0.026 C 
BRANCH  13  14
ATOM     14  O   UNL     1      44.791  16.326  19.939  0.00  0.00    -0.311 OA
ATOM     15  C   UNL     1      44.356  17.630  20.331  0.00  0.00    +0.242 C 
ENDBRANCH  13  14
ENDBRANCH   7   8
BRANCH  22  23
ATOM     23  O   UNL     1      51.232  13.858  16.887  0.00  0.00    -0.490 OA
ATOM     24  H   UNL     1      51.003  14.406  17.650  0.00  0.00    +0.397 HD
ENDBRANCH  22  23
TORSDOF 3
ENDMDL
MODEL 7
REMARK VINA RESULT:      -5.5      4.208      5.709
REMARK  Name = ZINC95486318
REMARK  8 active torsions:
REMARK  status: ('A' for Active; 'I' for Inactive)
REMARK    1  A    between atoms: C1_1  and  C2_2
REMARK    2  A    between atoms: C7_8  and  C12_16
REMARK    3  A    between atoms: C8_9  and  O1_15
REMARK    4  A    between atoms: C10_11  and  C11_14
REMARK    5  A    between atoms: C17_22  and  O2_31
REMARK    6  A    between atoms: C19_24  and  C23_30
REMARK    7  A    between atoms: C21_27  and  C22_29
REMARK    8  A    between atoms: O2_31  and  C24_32
REMARK                            x       y       z     vdW  Elec       q    Type
REMARK                         _______ _______ _______ _____ _____    ______ ____
ROOT
ATOM      1  C   UNL     1      42.828  21.634  19.281  0.00  0.00    +0.093 C 
ATOM      2  C   UNL     1      43.503  20.399  19.883  0.00  0.00    +0.167 C 
ATOM      3  C   UNL     1      44.215  19.615  18.780  0.00  0.00    +0.130 C 
ATOM      4  C   UNL     1      44.684  18.288  19.320  0.00  0.00    -0.076 A 
ATOM      5  C   UNL     1      45.637  17.579  18.605  0.00  0.00    +0.020 A 
ATOM      6  C   UNL     1      46.090  16.357  19.065  0.00  0.00    +0.083 A 
ATOM      7  C   UNL     1      45.591  15.837  20.243  0.00  0.00    -0.077 A 
ATOM     22  C   UNL     1      44.639  16.543  20.960  0.00  0.00    +0.137 A 
ATOM     25  C   UNL     1      44.184  17.775  20.497  0.00  0.00    -0.156 A 
ATOM     26  C   UNL     1      43.155  18.515  21.311  0.00  0.00    +0.236 C 
ATOM     27  C   UNL     1      43.843  19.193  22.497  0.00  0.00    +0.093 C 
ATOM     28  N   UNL     1      42.486  19.532  20.498  0.00  0.00    -0.501 N 
ATOM     29  H   UNL     1      41.944  19.082  19.776  0.00  0.00    +0.429 HD
ATOM     30  H   UNL     1      41.878  20.088  21.082  0.00  0.00    +0.431 HD
ENDROOT
BRANCH   7   8
ATOM      8  C   UNL     1      46.082  14.499  20.748  0.00  0.00    +0.100 C 
ATOM      9  C   UNL     1      46.299  13.573  19.586  0.00  0.00    -0.036 A 
ATOM     10  C   UNL     1      45.324  13.536  18.596  0.00  0.00    -0.038 A 
ATOM     11  C   UNL     1      45.465  12.723  17.489  0.00  0.00    +0.042 A 
ATOM     12  C   UNL     1      46.579  11.914  17.373  0.00  0.00    -0.078 A 
ATOM     13  C   UNL     1      47.538  11.923  18.371  0.00  0.00    +0.133 A 
ATOM     16  C   UNL     1      47.403  12.756  19.482  0.00  0.00    -0.088 A 
ATOM     17  C   UNL     1      48.474  12.697  20.533  0.00  0.00    +0.037 C 
ATOM     18  C   UNL     1      49.807  13.193  19.973  0.00  0.00    +0.032 C 
ATOM     19  C   UNL     1      48.112  13.443  21.802  0.00  0.00    +0.031 C 
ATOM     20  C   UNL     1      47.348  14.733  21.558  0.00  0.00    -0.008 C 
ATOM     21  C   UNL     1      48.210  15.809  20.900  0.00  0.00    +0.026 C 
BRANCH  13  14
ATOM     14  O   UNL     1      48.607  11.090  18.259  0.00  0.00    -0.311 OA
ATOM     15  C   UNL     1      49.248  11.025  16.984  0.00  0.00    +0.242 C 
ENDBRANCH  13  14
ENDBRANCH   7   8
BRANCH  22  23
ATOM     23  O   UNL     1      44.147  16.032  22.119  0.00  0.00    -0.490 OA
ATOM     24  H   UNL     1      43.188  15.910  22.121  0.00  0.00    +0.397 HD
ENDBRANCH  22  23
TORSDOF 3
ENDMDL
MODEL 8
REMARK VINA RESULT:      -5.4      2.739      4.370
REMARK  Name = ZINC95486318
REMARK  8 active torsions:
REMARK  status: ('A' for Active; 'I' for Inactive)
REMARK    1  A    between atoms: C1_1  and  C2_2
REMARK    2  A    between atoms: C7_8  and  C12_16
REMARK    3  A    between atoms: C8_9  and  O1_15
REMARK    4  A    between atoms: C10_11  and  C11_14
REMARK    5  A    between atoms: C17_22  and  O2_31
REMARK    6  A    between atoms: C19_24  and  C23_30
REMARK    7  A    between atoms: C21_27  and  C22_29
REMARK    8  A    between atoms: O2_31  and  C24_32
REMARK                            x       y       z     vdW  Elec       q    Type
REMARK                         _______ _______ _______ _____ _____    ______ ____
ROOT
ATOM      1  C   UNL     1      45.559  23.677  21.489  0.00  0.00    +0.093 C 
ATOM      2  C   UNL     1      45.616  22.289  20.847  0.00  0.00    +0.167 C 
ATOM      3  C   UNL     1      47.071  21.834  20.738  0.00  0.00    +0.130 C 
ATOM      4  C   UNL     1      47.152  20.580  19.905  0.00  0.00    -0.076 A 
ATOM      5  C   UNL     1      48.307  19.816  19.965  0.00  0.00    +0.020 A 
ATOM      6  C   UNL     1      48.421  18.661  19.215  0.00  0.00    +0.083 A 
ATOM      7  C   UNL     1      47.380  18.265  18.399  0.00  0.00    -0.077 A 
ATOM     22  C   UNL     1      46.224  19.026  18.337  0.00  0.00    +0.137 A 
ATOM     25  C   UNL     1      46.109  20.188  19.095  0.00  0.00    -0.156 A 
ATOM     26  C   UNL     1      44.832  20.982  19.007  0.00  0.00    +0.236 C 
ATOM     27  C   UNL     1      43.755  20.301  19.853  0.00  0.00    +0.093 C 
ATOM     28  N   UNL     1      45.035  22.347  19.497  0.00  0.00    -0.501 N 
ATOM     29  H   UNL     1      45.666  22.834  18.879  0.00  0.00    +0.429 HD
ATOM     30  H   UNL     1      44.151  22.831  19.530  0.00  0.00    +0.431 HD
ENDROOT
BRANCH   7   8
ATOM      8  C   UNL     1      47.502  17.003  17.574  0.00  0.00    +0.100 C 
ATOM      9  C   UNL     1      48.953  16.690  17.348  0.00  0.00    -0.036 A 
ATOM     10  C   UNL     1      49.795  17.739  16.996  0.00  0.00    -0.038 A 
ATOM     11  C   UNL     1      51.144  17.530  16.790  0.00  0.00    +0.042 A 
ATOM     12  C   UNL     1      51.664  16.256  16.911  0.00  0.00    -0.078 A 
ATOM     13  C   UNL     1      50.826  15.202  17.231  0.00  0.00    +0.133 A 
ATOM     16  C   UNL     1      49.465  15.416  17.454  0.00  0.00    -0.088 A 
ATOM     17  C   UNL     1      48.614  14.222  17.777  0.00  0.00    +0.037 C 
ATOM     18  C   UNL     1      49.024  13.616  19.119  0.00  0.00    +0.032 C 
ATOM     19  C   UNL     1      47.128  14.519  17.752  0.00  0.00    +0.031 C 
ATOM     20  C   UNL     1      46.767  15.887  18.301  0.00  0.00    -0.008 C 
ATOM     21  C   UNL     1      46.993  15.994  19.808  0.00  0.00    +0.026 C 
BRANCH  13  14
ATOM     14  O   UNL     1      51.347  13.949  17.306  0.00  0.00    -0.311 OA
ATOM     15  C   UNL     1      51.540  13.252  16.073  0.00  0.00    +0.242 C 
ENDBRANCH  13  14
ENDBRANCH   7   8
BRANCH  22  23
ATOM     23  O   UNL     1      45.198  18.636  17.535  0.00  0.00    -0.490 OA
ATOM     24  H   UNL     1      44.865  19.334  16.955  0.00  0.00    +0.397 HD
ENDBRANCH  22  23
TORSDOF 3
ENDMDL
MODEL 9
REMARK VINA RESULT:      -5.4      3.953      6.666
REMARK  Name = ZINC95486318
REMARK  8 active torsions:
REMARK  status: ('A' for Active; 'I' for Inactive)
REMARK    1  A    between atoms: C1_1  and  C2_2
REMARK    2  A    between atoms: C7_8  and  C12_16
REMARK    3  A    between atoms: C8_9  and  O1_15
REMARK    4  A    between atoms: C10_11  and  C11_14
REMARK    5  A    between atoms: C17_22  and  O2_31
REMARK    6  A    between atoms: C19_24  and  C23_30
REMARK    7  A    between atoms: C21_27  and  C22_29
REMARK    8  A    between atoms: O2_31  and  C24_32
REMARK                            x       y       z     vdW  Elec       q    Type
REMARK                         _______ _______ _______ _____ _____    ______ ____
ROOT
ATOM      1  C   UNL     1      52.936  22.383  20.514  0.00  0.00    +0.093 C 
ATOM      2  C   UNL     1      52.083  21.451  19.649  0.00  0.00    +0.167 C 
ATOM      3  C   UNL     1      51.555  20.299  20.505  0.00  0.00    +0.130 C 
ATOM      4  C   UNL     1      50.910  19.262  19.621  0.00  0.00    -0.076 A 
ATOM      5  C   UNL     1      50.074  18.321  20.201  0.00  0.00    +0.020 A 
ATOM      6  C   UNL     1      49.466  17.352  19.426  0.00  0.00    +0.083 A 
ATOM      7  C   UNL     1      49.692  17.319  18.064  0.00  0.00    -0.077 A 
ATOM     22  C   UNL     1      50.526  18.259  17.480  0.00  0.00    +0.137 A 
ATOM     25  C   UNL     1      51.136  19.236  18.262  0.00  0.00    -0.156 A 
ATOM     26  C   UNL     1      52.029  20.245  17.587  0.00  0.00    +0.236 C 
ATOM     27  C   UNL     1      51.164  21.306  16.904  0.00  0.00    +0.093 C 
ATOM     28  N   UNL     1      52.905  20.896  18.563  0.00  0.00    -0.501 N 
ATOM     29  H   UNL     1      53.549  20.217  18.940  0.00  0.00    +0.429 HD
ATOM     30  H   UNL     1      53.419  21.640  18.115  0.00  0.00    +0.431 HD
ENDROOT
BRANCH   7   8
ATOM      8  C   UNL     1      49.031  16.260  17.212  0.00  0.00    +0.100 C 
ATOM      9  C   UNL     1      49.253  14.909  17.829  0.00  0.00    -0.036 A 
ATOM     10  C   UNL     1      50.528  14.614  18.299  0.00  0.00    -0.038 A 
ATOM     11  C   UNL     1      50.801  13.399  18.896  0.00  0.00    +0.042 A 
ATOM     12  C   UNL     1      49.803  12.452  19.006  0.00  0.00    -0.078 A 
ATOM     13  C   UNL     1      48.540  12.727  18.512  0.00  0.00    +0.133 A 
ATOM     16  C   UNL     1      48.259  13.961  17.923  0.00  0.00    -0.088 A 
ATOM     17  C   UNL     1      46.871  14.182  17.392  0.00  0.00    +0.037 C 
ATOM     18  C   UNL     1      45.852  14.177  18.530  0.00  0.00    +0.032 C 
ATOM     19  C   UNL     1      46.741  15.439  16.556  0.00  0.00    +0.031 C 
ATOM     20  C   UNL     1      47.556  16.609  17.078  0.00  0.00    -0.008 C 
ATOM     21  C   UNL     1      47.017  17.157  18.398  0.00  0.00    +0.026 C 
BRANCH  13  14
ATOM     14  O   UNL     1      47.580  11.768  18.593  0.00  0.00    -0.311 OA
ATOM     15  C   UNL     1      47.698  10.656  17.702  0.00  0.00    +0.242 C 
ENDBRANCH  13  14
ENDBRANCH   7   8
BRANCH  22  23
ATOM     23  O   UNL     1      50.748  18.228  16.140  0.00  0.00    -0.490 OA
ATOM     24  H   UNL     1      51.683  18.192  15.896  0.00  0.00    +0.397 HD
ENDBRANCH  22  23
TORSDOF 3
ENDMDL
