MODEL 1
REMARK VINA RESULT:      -5.0      0.000      0.000
REMARK  Name = ZINC13512214
REMARK  2 active torsions:
REMARK  status: ('A' for Active; 'I' for Inactive)
REMARK    1  A    between atoms: C4_4  and  O2_8
REMARK    2  A    between atoms: C5_5  and  O1_7
REMARK                            x       y       z     vdW  Elec       q    Type
REMARK                         _______ _______ _______ _____ _____    ______ ____
ROOT
ATOM      1  C   UNL     1      36.724  33.475  11.988  0.00  0.00    +0.019 A 
ATOM      2  C   UNL     1      36.592  34.221  10.831  0.00  0.00    +0.019 A 
ATOM      3  C   UNL     1      36.130  33.626   9.672  0.00  0.00    +0.003 A 
ATOM      4  C   UNL     1      35.800  32.280   9.667  0.00  0.00    +0.079 A 
ATOM      7  C   UNL     1      35.933  31.531  10.832  0.00  0.00    +0.079 A 
ATOM     10  C   UNL     1      36.395  32.133  11.991  0.00  0.00    +0.003 A 
ENDROOT
BRANCH   4   5
ATOM      5  O   UNL     1      35.346  31.693   8.528  0.00  0.00    -0.489 OA
ATOM      6  H   UNL     1      35.856  31.920   7.738  0.00  0.00    +0.388 HD
ENDBRANCH   4   5
BRANCH   7   8
ATOM      8  O   UNL     1      35.609  30.210  10.832  0.00  0.00    -0.489 OA
ATOM      9  H   UNL     1      35.389  29.859  11.706  0.00  0.00    +0.388 HD
ENDBRANCH   7   8
TORSDOF 2
ENDMDL
MODEL 2
REMARK VINA RESULT:      -5.0      0.017      2.186
REMARK  Name = ZINC13512214
REMARK  2 active torsions:
REMARK  status: ('A' for Active; 'I' for Inactive)
REMARK    1  A    between atoms: C4_4  and  O2_8
REMARK    2  A    between atoms: C5_5  and  O1_7
REMARK                            x       y       z     vdW  Elec       q    Type
REMARK                         _______ _______ _______ _____ _____    ______ ____
ROOT
ATOM      1  C   UNL     1      36.584  34.209  10.848  0.00  0.00    +0.019 A 
ATOM      2  C   UNL     1      36.711  33.460  12.004  0.00  0.00    +0.019 A 
ATOM      3  C   UNL     1      36.383  32.116  11.998  0.00  0.00    +0.003 A 
ATOM      4  C   UNL     1      35.927  31.519  10.835  0.00  0.00    +0.079 A 
ATOM      7  C   UNL     1      35.800  32.274   9.672  0.00  0.00    +0.079 A 
ATOM     10  C   UNL     1      36.131  33.619   9.684  0.00  0.00    +0.003 A 
ENDROOT
BRANCH   4   5
ATOM      5  O   UNL     1      35.605  30.198  10.827  0.00  0.00    -0.489 OA
ATOM      6  H   UNL     1      34.854  29.979  10.258  0.00  0.00    +0.388 HD
ENDBRANCH   4   5
BRANCH   7   8
ATOM      8  O   UNL     1      35.354  31.691   8.527  0.00  0.00    -0.489 OA
ATOM      9  H   UNL     1      35.952  31.794   7.775  0.00  0.00    +0.388 HD
ENDBRANCH   7   8
TORSDOF 2
ENDMDL
MODEL 3
REMARK VINA RESULT:      -4.9      2.445      3.439
REMARK  Name = ZINC13512214
REMARK  2 active torsions:
REMARK  status: ('A' for Active; 'I' for Inactive)
REMARK    1  A    between atoms: C4_4  and  O2_8
REMARK    2  A    between atoms: C5_5  and  O1_7
REMARK                            x       y       z     vdW  Elec       q    Type
REMARK                         _______ _______ _______ _____ _____    ______ ____
ROOT
ATOM      1  C   UNL     1      36.877  35.343   8.040  0.00  0.00    +0.019 A 
ATOM      2  C   UNL     1      35.800  34.559   7.667  0.00  0.00    +0.019 A 
ATOM      3  C   UNL     1      35.109  33.831   8.618  0.00  0.00    +0.003 A 
ATOM      4  C   UNL     1      35.495  33.885   9.947  0.00  0.00    +0.079 A 
ATOM      7  C   UNL     1      36.579  34.674  10.322  0.00  0.00    +0.079 A 
ATOM     10  C   UNL     1      37.266  35.401   9.365  0.00  0.00    +0.003 A 
ENDROOT
BRANCH   4   5
ATOM      5  O   UNL     1      34.817  33.169  10.884  0.00  0.00    -0.489 OA
ATOM      6  H   UNL     1      33.950  33.536  11.107  0.00  0.00    +0.388 HD
ENDBRANCH   4   5
BRANCH   7   8
ATOM      8  O   UNL     1      36.960  34.730  11.626  0.00  0.00    -0.489 OA
ATOM      9  H   UNL     1      36.659  35.524  12.090  0.00  0.00    +0.388 HD
ENDBRANCH   7   8
TORSDOF 2
ENDMDL
MODEL 4
REMARK VINA RESULT:      -4.7      0.958      1.702
REMARK  Name = ZINC13512214
REMARK  2 active torsions:
REMARK  status: ('A' for Active; 'I' for Inactive)
REMARK    1  A    between atoms: C4_4  and  O2_8
REMARK    2  A    between atoms: C5_5  and  O1_7
REMARK                            x       y       z     vdW  Elec       q    Type
REMARK                         _______ _______ _______ _____ _____    ______ ____
ROOT
ATOM      1  C   UNL     1      36.407  32.411  11.943  0.00  0.00    +0.019 A 
ATOM      2  C   UNL     1      36.731  33.745  11.779  0.00  0.00    +0.019 A 
ATOM      3  C   UNL     1      36.594  34.345  10.540  0.00  0.00    +0.003 A 
ATOM      4  C   UNL     1      36.132  33.609   9.461  0.00  0.00    +0.079 A 
ATOM      7  C   UNL     1      35.806  32.266   9.628  0.00  0.00    +0.079 A 
ATOM     10  C   UNL     1      35.945  31.671  10.871  0.00  0.00    +0.003 A 
ENDROOT
BRANCH   4   5
ATOM      5  O   UNL     1      35.996  34.196   8.242  0.00  0.00    -0.489 OA
ATOM      6  H   UNL     1      36.665  34.868   8.053  0.00  0.00    +0.388 HD
ENDBRANCH   4   5
BRANCH   7   8
ATOM      8  O   UNL     1      35.351  31.540   8.571  0.00  0.00    -0.489 OA
ATOM      9  H   UNL     1      36.014  31.391   7.883  0.00  0.00    +0.388 HD
ENDBRANCH   7   8
TORSDOF 2
ENDMDL
MODEL 5
REMARK VINA RESULT:      -4.7      2.139      3.319
REMARK  Name = ZINC13512214
REMARK  2 active torsions:
REMARK  status: ('A' for Active; 'I' for Inactive)
REMARK    1  A    between atoms: C4_4  and  O2_8
REMARK    2  A    between atoms: C5_5  and  O1_7
REMARK                            x       y       z     vdW  Elec       q    Type
REMARK                         _______ _______ _______ _____ _____    ______ ____
ROOT
ATOM      1  C   UNL     1      35.788  33.384   9.271  0.00  0.00    +0.019 A 
ATOM      2  C   UNL     1      35.614  32.057   9.618  0.00  0.00    +0.019 A 
ATOM      3  C   UNL     1      35.941  31.624  10.890  0.00  0.00    +0.003 A 
ATOM      4  C   UNL     1      36.445  32.520  11.819  0.00  0.00    +0.079 A 
ATOM      7  C   UNL     1      36.620  33.855  11.468  0.00  0.00    +0.079 A 
ATOM     10  C   UNL     1      36.290  34.283  10.193  0.00  0.00    +0.003 A 
ENDROOT
BRANCH   4   5
ATOM      5  O   UNL     1      36.767  32.096  13.070  0.00  0.00    -0.489 OA
ATOM      6  H   UNL     1      37.219  32.762  13.606  0.00  0.00    +0.388 HD
ENDBRANCH   4   5
BRANCH   7   8
ATOM      8  O   UNL     1      37.114  34.738  12.378  0.00  0.00    -0.489 OA
ATOM      9  H   UNL     1      37.339  34.341  13.230  0.00  0.00    +0.388 HD
ENDBRANCH   7   8
TORSDOF 2
ENDMDL
MODEL 6
REMARK VINA RESULT:      -4.7      0.946      2.387
REMARK  Name = ZINC13512214
REMARK  2 active torsions:
REMARK  status: ('A' for Active; 'I' for Inactive)
REMARK    1  A    between atoms: C4_4  and  O2_8
REMARK    2  A    between atoms: C5_5  and  O1_7
REMARK                            x       y       z     vdW  Elec       q    Type
REMARK                         _______ _______ _______ _____ _____    ______ ____
ROOT
ATOM      1  C   UNL     1      36.780  33.716  11.880  0.00  0.00    +0.019 A 
ATOM      2  C   UNL     1      36.459  32.379  12.026  0.00  0.00    +0.019 A 
ATOM      3  C   UNL     1      35.998  31.654  10.943  0.00  0.00    +0.003 A 
ATOM      4  C   UNL     1      35.856  32.266   9.709  0.00  0.00    +0.079 A 
ATOM      7  C   UNL     1      36.179  33.612   9.563  0.00  0.00    +0.079 A 
ATOM     10  C   UNL     1      36.641  34.333  10.651  0.00  0.00    +0.003 A 
ENDROOT
BRANCH   4   5
ATOM      5  O   UNL     1      35.403  31.555   8.642  0.00  0.00    -0.489 OA
ATOM      6  H   UNL     1      35.928  30.767   8.444  0.00  0.00    +0.388 HD
ENDBRANCH   4   5
BRANCH   7   8
ATOM      8  O   UNL     1      36.042  34.217   8.352  0.00  0.00    -0.489 OA
ATOM      9  H   UNL     1      35.975  33.601   7.610  0.00  0.00    +0.388 HD
ENDBRANCH   7   8
TORSDOF 2
ENDMDL
MODEL 7
REMARK VINA RESULT:      -4.2      1.260      1.803
REMARK  Name = ZINC13512214
REMARK  2 active torsions:
REMARK  status: ('A' for Active; 'I' for Inactive)
REMARK    1  A    between atoms: C4_4  and  O2_8
REMARK    2  A    between atoms: C5_5  and  O1_7
REMARK                            x       y       z     vdW  Elec       q    Type
REMARK                         _______ _______ _______ _____ _____    ______ ____
ROOT
ATOM      1  C   UNL     1      36.773  34.995   9.881  0.00  0.00    +0.019 A 
ATOM      2  C   UNL     1      36.184  34.860   8.637  0.00  0.00    +0.019 A 
ATOM      3  C   UNL     1      35.436  33.735   8.343  0.00  0.00    +0.003 A 
ATOM      4  C   UNL     1      35.277  32.740   9.294  0.00  0.00    +0.079 A 
ATOM      7  C   UNL     1      35.870  32.877  10.545  0.00  0.00    +0.079 A 
ATOM     10  C   UNL     1      36.617  34.007  10.834  0.00  0.00    +0.003 A 
ENDROOT
BRANCH   4   5
ATOM      5  O   UNL     1      34.541  31.633   9.006  0.00  0.00    -0.489 OA
ATOM      6  H   UNL     1      34.735  30.875   9.574  0.00  0.00    +0.388 HD
ENDBRANCH   4   5
BRANCH   7   8
ATOM      8  O   UNL     1      35.715  31.904  11.482  0.00  0.00    -0.489 OA
ATOM      9  H   UNL     1      35.399  31.062  11.126  0.00  0.00    +0.388 HD
ENDBRANCH   7   8
TORSDOF 2
ENDMDL
MODEL 8
REMARK VINA RESULT:      -4.2     14.192     15.240
REMARK  Name = ZINC13512214
REMARK  2 active torsions:
REMARK  status: ('A' for Active; 'I' for Inactive)
REMARK    1  A    between atoms: C4_4  and  O2_8
REMARK    2  A    between atoms: C5_5  and  O1_7
REMARK                            x       y       z     vdW  Elec       q    Type
REMARK                         _______ _______ _______ _____ _____    ______ ____
ROOT
ATOM      1  C   UNL     1      42.936  20.337  19.877  0.00  0.00    +0.019 A 
ATOM      2  C   UNL     1      41.754  19.621  19.920  0.00  0.00    +0.019 A 
ATOM      3  C   UNL     1      40.592  20.167  19.406  0.00  0.00    +0.003 A 
ATOM      4  C   UNL     1      40.611  21.434  18.846  0.00  0.00    +0.079 A 
ATOM      7  C   UNL     1      41.801  22.155  18.803  0.00  0.00    +0.079 A 
ATOM     10  C   UNL     1      42.961  21.602  19.319  0.00  0.00    +0.003 A 
ENDROOT
BRANCH   4   5
ATOM      5  O   UNL     1      39.470  21.973  18.340  0.00  0.00    -0.489 OA
ATOM      6  H   UNL     1      38.883  22.351  19.009  0.00  0.00    +0.388 HD
ENDBRANCH   4   5
BRANCH   7   8
ATOM      8  O   UNL     1      41.824  23.399  18.254  0.00  0.00    -0.489 OA
ATOM      9  H   UNL     1      42.256  23.439  17.390  0.00  0.00    +0.388 HD
ENDBRANCH   7   8
TORSDOF 2
ENDMDL
MODEL 9
REMARK VINA RESULT:      -4.2     14.244     15.246
REMARK  Name = ZINC13512214
REMARK  2 active torsions:
REMARK  status: ('A' for Active; 'I' for Inactive)
REMARK    1  A    between atoms: C4_4  and  O2_8
REMARK    2  A    between atoms: C5_5  and  O1_7
REMARK                            x       y       z     vdW  Elec       q    Type
REMARK                         _______ _______ _______ _____ _____    ______ ____
ROOT
ATOM      1  C   UNL     1      41.750  19.578  19.888  0.00  0.00    +0.019 A 
ATOM      2  C   UNL     1      42.946  20.271  19.892  0.00  0.00    +0.019 A 
ATOM      3  C   UNL     1      43.009  21.550  19.370  0.00  0.00    +0.003 A 
ATOM      4  C   UNL     1      41.872  22.140  18.842  0.00  0.00    +0.079 A 
ATOM      7  C   UNL     1      40.668  21.441  18.838  0.00  0.00    +0.079 A 
ATOM     10  C   UNL     1      40.612  20.161  19.363  0.00  0.00    +0.003 A 
ENDROOT
BRANCH   4   5
ATOM      5  O   UNL     1      41.931  23.398  18.329  0.00  0.00    -0.489 OA
ATOM      6  H   UNL     1      42.125  23.427  17.382  0.00  0.00    +0.388 HD
ENDBRANCH   4   5
BRANCH   7   8
ATOM      8  O   UNL     1      39.549  22.017  18.321  0.00  0.00    -0.489 OA
ATOM      9  H   UNL     1      39.350  21.744  17.415  0.00  0.00    +0.388 HD
ENDBRANCH   7   8
TORSDOF 2
ENDMDL
