MODEL 1
REMARK VINA RESULT:      -7.5      0.000      0.000
REMARK  Name = ZINC95485881
REMARK  8 active torsions:
REMARK  status: ('A' for Active; 'I' for Inactive)
REMARK    1  A    between atoms: C1_1  and  C2_2
REMARK    2  A    between atoms: C5_5  and  C13_15
REMARK    3  A    between atoms: C8_8  and  O2_14
REMARK    4  A    between atoms: C10_10  and  O1_12
REMARK    5  A    between atoms: O1_12  and  C12_13
REMARK    6  A    between atoms: C16_18  and  O3_29
REMARK    7  A    between atoms: C20_22  and  C23_28
REMARK    8  A    between atoms: C21_25  and  C22_27
REMARK                            x       y       z     vdW  Elec       q    Type
REMARK                         _______ _______ _______ _____ _____    ______ ____
ROOT
ATOM      1  C   UNL     1      46.992  21.884  21.633  0.00  0.00    +0.093 C 
ATOM      2  C   UNL     1      45.660  21.841  20.930  0.00  0.00    -0.031 A 
ATOM      3  C   UNL     1      44.977  20.664  20.859  0.00  0.00    -0.027 A 
ATOM      4  C   UNL     1      43.736  20.613  20.207  0.00  0.00    +0.019 A 
ATOM      5  C   UNL     1      43.005  19.404  20.120  0.00  0.00    -0.058 A 
ATOM     21  C   UNL     1      41.784  19.389  19.469  0.00  0.00    +0.061 A 
ATOM     22  C   UNL     1      41.268  20.547  18.901  0.00  0.00    -0.028 A 
ATOM     23  C   UNL     1      41.958  21.738  18.971  0.00  0.00    +0.149 A 
ATOM     26  C   UNL     1      43.204  21.788  19.626  0.00  0.00    -0.102 A 
ATOM     27  C   UNL     1      43.932  22.992  19.713  0.00  0.00    +0.160 A 
ATOM     30  C   UNL     1      45.144  23.004  20.367  0.00  0.00    -0.097 A 
ENDROOT
BRANCH   5   6
ATOM      6  C   UNL     1      43.544  18.161  20.721  0.00  0.00    -0.052 A 
ATOM      7  C   UNL     1      43.061  17.717  21.950  0.00  0.00    +0.042 A 
ATOM      8  C   UNL     1      43.566  16.560  22.505  0.00  0.00    -0.019 A 
ATOM      9  C   UNL     1      44.552  15.847  21.841  0.00  0.00    +0.118 A 
ATOM     12  C   UNL     1      45.039  16.286  20.613  0.00  0.00    -0.133 A 
ATOM     13  C   UNL     1      46.114  15.477  19.937  0.00  0.00    +0.228 C 
ATOM     14  C   UNL     1      45.782  13.988  20.068  0.00  0.00    +0.041 C 
ATOM     15  N   UNL     1      46.192  15.819  18.509  0.00  0.00    -0.670 NA
ATOM     16  H   UNL     1      45.386  15.481  18.005  0.00  0.00    +0.342 HD
ATOM     17  C   UNL     1      46.342  17.274  18.351  0.00  0.00    +0.170 C 
ATOM     18  C   UNL     1      47.445  17.785  19.278  0.00  0.00    +0.032 C 
ATOM     19  C   UNL     1      45.015  17.941  18.714  0.00  0.00    +0.050 C 
ATOM     20  C   UNL     1      44.533  17.434  20.048  0.00  0.00    -0.042 A 
BRANCH   9  10
ATOM     10  O   UNL     1      45.046  14.709  22.393  0.00  0.00    -0.493 OA
ATOM     11  H   UNL     1      45.023  14.697  23.360  0.00  0.00    +0.390 HD
ENDBRANCH   9  10
ENDBRANCH   5   6
BRANCH  23  24
ATOM     24  O   UNL     1      41.437  22.859  18.410  0.00  0.00    -0.481 OA
ATOM     25  H   UNL     1      40.881  23.376  19.008  0.00  0.00    +0.392 HD
ENDBRANCH  23  24
BRANCH  27  28
ATOM     28  O   UNL     1      43.440  24.131  19.163  0.00  0.00    -0.295 OA
ATOM     29  C   UNL     1      44.352  24.937  18.414  0.00  0.00    +0.240 C 
ENDBRANCH  27  28
TORSDOF 4
ENDMDL
MODEL 2
REMARK VINA RESULT:      -6.7      2.234      6.926
REMARK  Name = ZINC95485881
REMARK  8 active torsions:
REMARK  status: ('A' for Active; 'I' for Inactive)
REMARK    1  A    between atoms: C1_1  and  C2_2
REMARK    2  A    between atoms: C5_5  and  C13_15
REMARK    3  A    between atoms: C8_8  and  O2_14
REMARK    4  A    between atoms: C10_10  and  O1_12
REMARK    5  A    between atoms: O1_12  and  C12_13
REMARK    6  A    between atoms: C16_18  and  O3_29
REMARK    7  A    between atoms: C20_22  and  C23_28
REMARK    8  A    between atoms: C21_25  and  C22_27
REMARK                            x       y       z     vdW  Elec       q    Type
REMARK                         _______ _______ _______ _____ _____    ______ ____
ROOT
ATOM      1  C   UNL     1      43.596  16.411  22.503  0.00  0.00    +0.093 C 
ATOM      2  C   UNL     1      44.398  16.343  21.229  0.00  0.00    -0.031 A 
ATOM      3  C   UNL     1      44.767  17.498  20.607  0.00  0.00    -0.027 A 
ATOM      4  C   UNL     1      45.514  17.445  19.422  0.00  0.00    +0.019 A 
ATOM      5  C   UNL     1      45.911  18.630  18.755  0.00  0.00    -0.058 A 
ATOM     21  C   UNL     1      46.648  18.542  17.586  0.00  0.00    +0.061 A 
ATOM     22  C   UNL     1      47.000  17.306  17.061  0.00  0.00    -0.028 A 
ATOM     23  C   UNL     1      46.627  16.137  17.688  0.00  0.00    +0.149 A 
ATOM     26  C   UNL     1      45.877  16.190  18.880  0.00  0.00    -0.102 A 
ATOM     27  C   UNL     1      45.481  15.011  19.543  0.00  0.00    +0.160 A 
ATOM     30  C   UNL     1      44.753  15.103  20.709  0.00  0.00    -0.097 A 
ENDROOT
BRANCH   5   6
ATOM      6  C   UNL     1      45.541  19.955  19.304  0.00  0.00    -0.052 A 
ATOM      7  C   UNL     1      46.477  20.696  20.024  0.00  0.00    +0.042 A 
ATOM      8  C   UNL     1      46.127  21.928  20.533  0.00  0.00    -0.019 A 
ATOM      9  C   UNL     1      44.848  22.424  20.330  0.00  0.00    +0.118 A 
ATOM     12  C   UNL     1      43.909  21.688  19.612  0.00  0.00    -0.133 A 
ATOM     13  C   UNL     1      42.533  22.271  19.425  0.00  0.00    +0.228 C 
ATOM     14  C   UNL     1      42.656  23.761  19.098  0.00  0.00    +0.041 C 
ATOM     15  N   UNL     1      41.838  21.600  18.317  0.00  0.00    -0.670 NA
ATOM     16  H   UNL     1      42.245  21.843  17.426  0.00  0.00    +0.342 HD
ATOM     17  C   UNL     1      41.854  20.143  18.525  0.00  0.00    +0.170 C 
ATOM     18  C   UNL     1      41.418  19.819  19.954  0.00  0.00    +0.032 C 
ATOM     19  C   UNL     1      43.279  19.636  18.295  0.00  0.00    +0.050 C 
ATOM     20  C   UNL     1      44.253  20.462  19.093  0.00  0.00    -0.042 A 
BRANCH   9  10
ATOM     10  O   UNL     1      44.509  23.639  20.835  0.00  0.00    -0.493 OA
ATOM     11  H   UNL     1      44.877  23.818  21.712  0.00  0.00    +0.390 HD
ENDBRANCH   9  10
ENDBRANCH   5   6
BRANCH  23  24
ATOM     24  O   UNL     1      46.981  14.938  17.159  0.00  0.00    -0.481 OA
ATOM     25  H   UNL     1      46.484  14.189  17.514  0.00  0.00    +0.392 HD
ENDBRANCH  23  24
BRANCH  27  28
ATOM     28  O   UNL     1      45.819  13.796  19.041  0.00  0.00    -0.295 OA
ATOM     29  C   UNL     1      44.751  12.888  18.767  0.00  0.00    +0.240 C 
ENDBRANCH  27  28
TORSDOF 4
ENDMDL
MODEL 3
REMARK VINA RESULT:      -6.7      1.823      6.784
REMARK  Name = ZINC95485881
REMARK  8 active torsions:
REMARK  status: ('A' for Active; 'I' for Inactive)
REMARK    1  A    between atoms: C1_1  and  C2_2
REMARK    2  A    between atoms: C5_5  and  C13_15
REMARK    3  A    between atoms: C8_8  and  O2_14
REMARK    4  A    between atoms: C10_10  and  O1_12
REMARK    5  A    between atoms: O1_12  and  C12_13
REMARK    6  A    between atoms: C16_18  and  O3_29
REMARK    7  A    between atoms: C20_22  and  C23_28
REMARK    8  A    between atoms: C21_25  and  C22_27
REMARK                            x       y       z     vdW  Elec       q    Type
REMARK                         _______ _______ _______ _____ _____    ______ ____
ROOT
ATOM      1  C   UNL     1      46.764  16.847  16.714  0.00  0.00    +0.093 C 
ATOM      2  C   UNL     1      46.213  16.402  18.044  0.00  0.00    -0.031 A 
ATOM      3  C   UNL     1      45.500  17.281  18.803  0.00  0.00    -0.027 A 
ATOM      4  C   UNL     1      44.984  16.876  20.042  0.00  0.00    +0.019 A 
ATOM      5  C   UNL     1      44.239  17.769  20.850  0.00  0.00    -0.058 A 
ATOM     21  C   UNL     1      43.743  17.336  22.068  0.00  0.00    +0.061 A 
ATOM     22  C   UNL     1      43.968  16.038  22.505  0.00  0.00    -0.028 A 
ATOM     23  C   UNL     1      44.689  15.147  21.739  0.00  0.00    +0.149 A 
ATOM     26  C   UNL     1      45.208  15.554  20.494  0.00  0.00    -0.102 A 
ATOM     27  C   UNL     1      45.948  14.666  19.689  0.00  0.00    +0.160 A 
ATOM     30  C   UNL     1      46.436  15.098  18.475  0.00  0.00    -0.097 A 
ENDROOT
BRANCH   5   6
ATOM      6  C   UNL     1      43.993  19.158  20.397  0.00  0.00    -0.052 A 
ATOM      7  C   UNL     1      42.783  19.487  19.789  0.00  0.00    +0.042 A 
ATOM      8  C   UNL     1      42.559  20.780  19.369  0.00  0.00    -0.019 A 
ATOM      9  C   UNL     1      43.537  21.746  19.548  0.00  0.00    +0.118 A 
ATOM     12  C   UNL     1      44.749  21.423  20.154  0.00  0.00    -0.133 A 
ATOM     13  C   UNL     1      45.779  22.509  20.320  0.00  0.00    +0.228 C 
ATOM     14  C   UNL     1      45.088  23.795  20.777  0.00  0.00    +0.041 C 
ATOM     15  N   UNL     1      46.773  22.122  21.332  0.00  0.00    -0.670 NA
ATOM     16  H   UNL     1      46.376  22.127  22.259  0.00  0.00    +0.342 HD
ATOM     17  C   UNL     1      47.334  20.802  21.004  0.00  0.00    +0.170 C 
ATOM     18  C   UNL     1      47.749  20.767  19.532  0.00  0.00    +0.032 C 
ATOM     19  C   UNL     1      46.263  19.742  21.261  0.00  0.00    +0.050 C 
ATOM     20  C   UNL     1      44.976  20.137  20.585  0.00  0.00    -0.042 A 
BRANCH   9  10
ATOM     10  O   UNL     1      43.312  23.019  19.131  0.00  0.00    -0.493 OA
ATOM     11  H   UNL     1      44.092  23.590  19.166  0.00  0.00    +0.390 HD
ENDBRANCH   9  10
ENDBRANCH   5   6
BRANCH  23  24
ATOM     24  O   UNL     1      44.897  13.882  22.183  0.00  0.00    -0.481 OA
ATOM     25  H   UNL     1      44.770  13.202  21.508  0.00  0.00    +0.392 HD
ENDBRANCH  23  24
BRANCH  27  28
ATOM     28  O   UNL     1      46.175  13.393  20.104  0.00  0.00    -0.295 OA
ATOM     29  C   UNL     1      47.512  12.901  19.986  0.00  0.00    +0.240 C 
ENDBRANCH  27  28
TORSDOF 4
ENDMDL
MODEL 4
REMARK VINA RESULT:      -6.1      3.737      7.579
REMARK  Name = ZINC95485881
REMARK  8 active torsions:
REMARK  status: ('A' for Active; 'I' for Inactive)
REMARK    1  A    between atoms: C1_1  and  C2_2
REMARK    2  A    between atoms: C5_5  and  C13_15
REMARK    3  A    between atoms: C8_8  and  O2_14
REMARK    4  A    between atoms: C10_10  and  O1_12
REMARK    5  A    between atoms: O1_12  and  C12_13
REMARK    6  A    between atoms: C16_18  and  O3_29
REMARK    7  A    between atoms: C20_22  and  C23_28
REMARK    8  A    between atoms: C21_25  and  C22_27
REMARK                            x       y       z     vdW  Elec       q    Type
REMARK                         _______ _______ _______ _____ _____    ______ ____
ROOT
ATOM      1  C   UNL     1      48.086  15.819  21.539  0.00  0.00    +0.093 C 
ATOM      2  C   UNL     1      48.924  16.620  20.576  0.00  0.00    -0.031 A 
ATOM      3  C   UNL     1      48.720  17.963  20.467  0.00  0.00    -0.027 A 
ATOM      4  C   UNL     1      49.494  18.718  19.574  0.00  0.00    +0.019 A 
ATOM      5  C   UNL     1      49.303  20.114  19.441  0.00  0.00    -0.058 A 
ATOM     21  C   UNL     1      50.085  20.829  18.549  0.00  0.00    +0.061 A 
ATOM     22  C   UNL     1      51.053  20.191  17.784  0.00  0.00    -0.028 A 
ATOM     23  C   UNL     1      51.260  18.833  17.893  0.00  0.00    +0.149 A 
ATOM     26  C   UNL     1      50.482  18.075  18.792  0.00  0.00    -0.102 A 
ATOM     27  C   UNL     1      50.672  16.685  18.924  0.00  0.00    +0.160 A 
ATOM     30  C   UNL     1      49.896  15.978  19.816  0.00  0.00    -0.097 A 
ENDROOT
BRANCH   5   6
ATOM      6  C   UNL     1      48.273  20.807  20.249  0.00  0.00    -0.052 A 
ATOM      7  C   UNL     1      48.636  21.459  21.426  0.00  0.00    +0.042 A 
ATOM      8  C   UNL     1      47.674  22.102  22.175  0.00  0.00    -0.019 A 
ATOM      9  C   UNL     1      46.352  22.095  21.758  0.00  0.00    +0.118 A 
ATOM     12  C   UNL     1      45.984  21.446  20.583  0.00  0.00    -0.133 A 
ATOM     13  C   UNL     1      44.533  21.464  20.177  0.00  0.00    +0.228 C 
ATOM     14  C   UNL     1      43.961  22.864  20.413  0.00  0.00    +0.041 C 
ATOM     15  N   UNL     1      44.395  21.132  18.752  0.00  0.00    -0.670 NA
ATOM     16  H   UNL     1      44.742  21.875  18.165  0.00  0.00    +0.342 HD
ATOM     17  C   UNL     1      45.086  19.865  18.464  0.00  0.00    +0.170 C 
ATOM     18  C   UNL     1      44.684  18.809  19.496  0.00  0.00    +0.032 C 
ATOM     19  C   UNL     1      46.594  20.107  18.538  0.00  0.00    +0.050 C 
ATOM     20  C   UNL     1      46.939  20.810  19.825  0.00  0.00    -0.042 A 
BRANCH   9  10
ATOM     10  O   UNL     1      45.408  22.729  22.501  0.00  0.00    -0.493 OA
ATOM     11  H   UNL     1      44.509  22.401  22.360  0.00  0.00    +0.390 HD
ENDBRANCH   9  10
ENDBRANCH   5   6
BRANCH  23  24
ATOM     24  O   UNL     1      52.212  18.228  17.138  0.00  0.00    -0.481 OA
ATOM     25  H   UNL     1      52.373  17.304  17.374  0.00  0.00    +0.392 HD
ENDBRANCH  23  24
BRANCH  27  28
ATOM     28  O   UNL     1      51.615  16.049  18.183  0.00  0.00    -0.295 OA
ATOM     29  C   UNL     1      52.494  15.160  18.876  0.00  0.00    +0.240 C 
ENDBRANCH  27  28
TORSDOF 4
ENDMDL
MODEL 5
REMARK VINA RESULT:      -6.0      3.565      7.478
REMARK  Name = ZINC95485881
REMARK  8 active torsions:
REMARK  status: ('A' for Active; 'I' for Inactive)
REMARK    1  A    between atoms: C1_1  and  C2_2
REMARK    2  A    between atoms: C5_5  and  C13_15
REMARK    3  A    between atoms: C8_8  and  O2_14
REMARK    4  A    between atoms: C10_10  and  O1_12
REMARK    5  A    between atoms: O1_12  and  C12_13
REMARK    6  A    between atoms: C16_18  and  O3_29
REMARK    7  A    between atoms: C20_22  and  C23_28
REMARK    8  A    between atoms: C21_25  and  C22_27
REMARK                            x       y       z     vdW  Elec       q    Type
REMARK                         _______ _______ _______ _____ _____    ______ ____
ROOT
ATOM      1  C   UNL     1      51.084  21.467  17.022  0.00  0.00    +0.093 C 
ATOM      2  C   UNL     1      50.791  20.231  17.832  0.00  0.00    -0.031 A 
ATOM      3  C   UNL     1      49.857  20.286  18.824  0.00  0.00    -0.027 A 
ATOM      4  C   UNL     1      49.577  19.141  19.583  0.00  0.00    +0.019 A 
ATOM      5  C   UNL     1      48.611  19.170  20.619  0.00  0.00    -0.058 A 
ATOM     21  C   UNL     1      48.359  18.021  21.349  0.00  0.00    +0.061 A 
ATOM     22  C   UNL     1      49.042  16.843  21.079  0.00  0.00    -0.028 A 
ATOM     23  C   UNL     1      49.987  16.787  20.077  0.00  0.00    +0.149 A 
ATOM     26  C   UNL     1      50.268  17.937  19.314  0.00  0.00    -0.102 A 
ATOM     27  C   UNL     1      51.229  17.909  18.283  0.00  0.00    +0.160 A 
ATOM     30  C   UNL     1      51.474  19.052  17.554  0.00  0.00    -0.097 A 
ENDROOT
BRANCH   5   6
ATOM      6  C   UNL     1      47.876  20.420  20.919  0.00  0.00    -0.052 A 
ATOM      7  C   UNL     1      48.408  21.340  21.821  0.00  0.00    +0.042 A 
ATOM      8  C   UNL     1      47.720  22.502  22.097  0.00  0.00    -0.019 A 
ATOM      9  C   UNL     1      46.503  22.750  21.481  0.00  0.00    +0.118 A 
ATOM     12  C   UNL     1      45.967  21.834  20.579  0.00  0.00    -0.133 A 
ATOM     13  C   UNL     1      44.639  22.150  19.941  0.00  0.00    +0.228 C 
ATOM     14  C   UNL     1      44.609  23.627  19.542  0.00  0.00    +0.041 C 
ATOM     15  N   UNL     1      44.442  21.332  18.736  0.00  0.00    -0.670 NA
ATOM     16  H   UNL     1      45.057  21.619  17.990  0.00  0.00    +0.342 HD
ATOM     17  C   UNL     1      44.633  19.909  19.060  0.00  0.00    +0.170 C 
ATOM     18  C   UNL     1      43.836  19.552  20.316  0.00  0.00    +0.032 C 
ATOM     19  C   UNL     1      46.122  19.664  19.310  0.00  0.00    +0.050 C 
ATOM     20  C   UNL     1      46.652  20.677  20.291  0.00  0.00    -0.042 A 
BRANCH   9  10
ATOM     10  O   UNL     1      45.828  23.896  21.758  0.00  0.00    -0.493 OA
ATOM     11  H   UNL     1      45.381  24.285  20.993  0.00  0.00    +0.390 HD
ENDBRANCH   9  10
ENDBRANCH   5   6
BRANCH  23  24
ATOM     24  O   UNL     1      50.644  15.625  19.827  0.00  0.00    -0.481 OA
ATOM     25  H   UNL     1      50.664  15.377  18.893  0.00  0.00    +0.392 HD
ENDBRANCH  23  24
BRANCH  27  28
ATOM     28  O   UNL     1      51.905  16.764  18.008  0.00  0.00    -0.295 OA
ATOM     29  C   UNL     1      51.785  16.243  16.682  0.00  0.00    +0.240 C 
ENDBRANCH  27  28
TORSDOF 4
ENDMDL
MODEL 6
REMARK VINA RESULT:      -5.9      3.616      5.625
REMARK  Name = ZINC95485881
REMARK  8 active torsions:
REMARK  status: ('A' for Active; 'I' for Inactive)
REMARK    1  A    between atoms: C1_1  and  C2_2
REMARK    2  A    between atoms: C5_5  and  C13_15
REMARK    3  A    between atoms: C8_8  and  O2_14
REMARK    4  A    between atoms: C10_10  and  O1_12
REMARK    5  A    between atoms: O1_12  and  C12_13
REMARK    6  A    between atoms: C16_18  and  O3_29
REMARK    7  A    between atoms: C20_22  and  C23_28
REMARK    8  A    between atoms: C21_25  and  C22_27
REMARK                            x       y       z     vdW  Elec       q    Type
REMARK                         _______ _______ _______ _____ _____    ______ ____
ROOT
ATOM      1  C   UNL     1      45.463  18.444  18.005  0.00  0.00    +0.093 C 
ATOM      2  C   UNL     1      45.658  19.641  18.900  0.00  0.00    -0.031 A 
ATOM      3  C   UNL     1      46.777  19.725  19.674  0.00  0.00    -0.027 A 
ATOM      4  C   UNL     1      46.967  20.835  20.509  0.00  0.00    +0.019 A 
ATOM      5  C   UNL     1      48.120  20.948  21.322  0.00  0.00    -0.058 A 
ATOM     21  C   UNL     1      48.277  22.057  22.135  0.00  0.00    +0.061 A 
ATOM     22  C   UNL     1      47.317  23.059  22.162  0.00  0.00    -0.028 A 
ATOM     23  C   UNL     1      46.184  22.976  21.381  0.00  0.00    +0.149 A 
ATOM     26  C   UNL     1      45.993  21.860  20.541  0.00  0.00    -0.102 A 
ATOM     27  C   UNL     1      44.846  21.748  19.731  0.00  0.00    +0.160 A 
ATOM     30  C   UNL     1      44.695  20.646  18.919  0.00  0.00    -0.097 A 
ENDROOT
BRANCH   5   6
ATOM      6  C   UNL     1      49.153  19.885  21.305  0.00  0.00    -0.052 A 
ATOM      7  C   UNL     1      49.099  18.848  22.235  0.00  0.00    +0.042 A 
ATOM      8  C   UNL     1      50.062  17.862  22.214  0.00  0.00    -0.019 A 
ATOM      9  C   UNL     1      51.079  17.907  21.274  0.00  0.00    +0.118 A 
ATOM     12  C   UNL     1      51.138  18.940  20.343  0.00  0.00    -0.133 A 
ATOM     13  C   UNL     1      52.268  18.944  19.346  0.00  0.00    +0.228 C 
ATOM     14  C   UNL     1      52.489  17.521  18.829  0.00  0.00    +0.041 C 
ATOM     15  N   UNL     1      51.944  19.815  18.208  0.00  0.00    -0.670 NA
ATOM     16  H   UNL     1      51.217  19.416  17.634  0.00  0.00    +0.342 HD
ATOM     17  C   UNL     1      51.562  21.152  18.692  0.00  0.00    +0.170 C 
ATOM     18  C   UNL     1      52.588  21.646  19.712  0.00  0.00    +0.032 C 
ATOM     19  C   UNL     1      50.187  21.052  19.354  0.00  0.00    +0.050 C 
ATOM     20  C   UNL     1      50.176  19.923  20.351  0.00  0.00    -0.042 A 
BRANCH   9  10
ATOM     10  O   UNL     1      52.026  16.933  21.260  0.00  0.00    -0.493 OA
ATOM     11  H   UNL     1      52.487  16.818  22.103  0.00  0.00    +0.390 HD
ENDBRANCH   9  10
ENDBRANCH   5   6
BRANCH  23  24
ATOM     24  O   UNL     1      45.257  23.966  21.420  0.00  0.00    -0.481 OA
ATOM     25  H   UNL     1      45.570  24.782  21.833  0.00  0.00    +0.392 HD
ENDBRANCH  23  24
BRANCH  27  28
ATOM     28  O   UNL     1      43.898  22.721  19.747  0.00  0.00    -0.295 OA
ATOM     29  C   UNL     1      42.619  22.389  19.204  0.00  0.00    +0.240 C 
ENDBRANCH  27  28
TORSDOF 4
ENDMDL
MODEL 7
REMARK VINA RESULT:      -5.9      5.218      8.976
REMARK  Name = ZINC95485881
REMARK  8 active torsions:
REMARK  status: ('A' for Active; 'I' for Inactive)
REMARK    1  A    between atoms: C1_1  and  C2_2
REMARK    2  A    between atoms: C5_5  and  C13_15
REMARK    3  A    between atoms: C8_8  and  O2_14
REMARK    4  A    between atoms: C10_10  and  O1_12
REMARK    5  A    between atoms: O1_12  and  C12_13
REMARK    6  A    between atoms: C16_18  and  O3_29
REMARK    7  A    between atoms: C20_22  and  C23_28
REMARK    8  A    between atoms: C21_25  and  C22_27
REMARK                            x       y       z     vdW  Elec       q    Type
REMARK                         _______ _______ _______ _____ _____    ______ ____
ROOT
ATOM      1  C   UNL     1      46.134  18.371  17.948  0.00  0.00    +0.093 C 
ATOM      2  C   UNL     1      47.053  17.236  17.574  0.00  0.00    -0.031 A 
ATOM      3  C   UNL     1      48.401  17.427  17.603  0.00  0.00    -0.027 A 
ATOM      4  C   UNL     1      49.264  16.377  17.257  0.00  0.00    +0.019 A 
ATOM      5  C   UNL     1      50.669  16.549  17.279  0.00  0.00    -0.058 A 
ATOM     21  C   UNL     1      51.492  15.491  16.932  0.00  0.00    +0.061 A 
ATOM     22  C   UNL     1      50.955  14.265  16.563  0.00  0.00    -0.028 A 
ATOM     23  C   UNL     1      49.591  14.070  16.533  0.00  0.00    +0.149 A 
ATOM     26  C   UNL     1      48.724  15.125  16.881  0.00  0.00    -0.102 A 
ATOM     27  C   UNL     1      47.326  14.954  16.859  0.00  0.00    +0.160 A 
ATOM     30  C   UNL     1      46.510  16.007  17.210  0.00  0.00    -0.097 A 
ENDROOT
BRANCH   5   6
ATOM      6  C   UNL     1      51.256  17.852  17.670  0.00  0.00    -0.052 A 
ATOM      7  C   UNL     1      51.623  18.771  16.688  0.00  0.00    +0.042 A 
ATOM      8  C   UNL     1      52.169  19.982  17.057  0.00  0.00    -0.019 A 
ATOM      9  C   UNL     1      52.353  20.279  18.399  0.00  0.00    +0.118 A 
ATOM     12  C   UNL     1      51.987  19.365  19.383  0.00  0.00    -0.133 A 
ATOM     13  C   UNL     1      52.213  19.736  20.826  0.00  0.00    +0.228 C 
ATOM     14  C   UNL     1      51.809  21.196  21.040  0.00  0.00    +0.041 C 
ATOM     15  N   UNL     1      51.400  18.887  21.707  0.00  0.00    -0.670 NA
ATOM     16  H   UNL     1      50.418  19.108  21.629  0.00  0.00    +0.342 HD
ATOM     17  C   UNL     1      51.646  17.468  21.402  0.00  0.00    +0.170 C 
ATOM     18  C   UNL     1      53.152  17.207  21.334  0.00  0.00    +0.032 C 
ATOM     19  C   UNL     1      51.007  17.143  20.052  0.00  0.00    +0.050 C 
ATOM     20  C   UNL     1      51.434  18.158  19.024  0.00  0.00    -0.042 A 
BRANCH   9  10
ATOM     10  O   UNL     1      52.892  21.474  18.756  0.00  0.00    -0.493 OA
ATOM     11  H   UNL     1      53.452  21.873  18.075  0.00  0.00    +0.390 HD
ENDBRANCH   9  10
ENDBRANCH   5   6
BRANCH  23  24
ATOM     24  O   UNL     1      49.085  12.864  16.170  0.00  0.00    -0.481 OA
ATOM     25  H   UNL     1      48.548  12.888  15.366  0.00  0.00    +0.392 HD
ENDBRANCH  23  24
BRANCH  27  28
ATOM     28  O   UNL     1      46.787  13.761  16.500  0.00  0.00    -0.295 OA
ATOM     29  C   UNL     1      45.875  13.158  17.421  0.00  0.00    +0.240 C 
ENDBRANCH  27  28
TORSDOF 4
ENDMDL
MODEL 8
REMARK VINA RESULT:      -5.6      5.229      6.657
REMARK  Name = ZINC95485881
REMARK  8 active torsions:
REMARK  status: ('A' for Active; 'I' for Inactive)
REMARK    1  A    between atoms: C1_1  and  C2_2
REMARK    2  A    between atoms: C5_5  and  C13_15
REMARK    3  A    between atoms: C8_8  and  O2_14
REMARK    4  A    between atoms: C10_10  and  O1_12
REMARK    5  A    between atoms: O1_12  and  C12_13
REMARK    6  A    between atoms: C16_18  and  O3_29
REMARK    7  A    between atoms: C20_22  and  C23_28
REMARK    8  A    between atoms: C21_25  and  C22_27
REMARK                            x       y       z     vdW  Elec       q    Type
REMARK                         _______ _______ _______ _____ _____    ______ ____
ROOT
ATOM      1  C   UNL     1      51.995  19.559  15.738  0.00  0.00    +0.093 C 
ATOM      2  C   UNL     1      51.356  19.742  17.091  0.00  0.00    -0.031 A 
ATOM      3  C   UNL     1      50.324  18.933  17.460  0.00  0.00    -0.027 A 
ATOM      4  C   UNL     1      49.723  19.096  18.717  0.00  0.00    +0.019 A 
ATOM      5  C   UNL     1      48.650  18.269  19.126  0.00  0.00    -0.058 A 
ATOM     21  C   UNL     1      48.079  18.456  20.374  0.00  0.00    +0.061 A 
ATOM     22  C   UNL     1      48.548  19.447  21.227  0.00  0.00    -0.028 A 
ATOM     23  C   UNL     1      49.591  20.267  20.854  0.00  0.00    +0.149 A 
ATOM     26  C   UNL     1      50.195  20.102  19.591  0.00  0.00    -0.102 A 
ATOM     27  C   UNL     1      51.263  20.926  19.184  0.00  0.00    +0.160 A 
ATOM     30  C   UNL     1      51.833  20.733  17.944  0.00  0.00    -0.097 A 
ENDROOT
BRANCH   5   6
ATOM      6  C   UNL     1      48.139  17.209  18.225  0.00  0.00    -0.052 A 
ATOM      7  C   UNL     1      47.069  17.477  17.373  0.00  0.00    +0.042 A 
ATOM      8  C   UNL     1      46.597  16.488  16.537  0.00  0.00    -0.019 A 
ATOM      9  C   UNL     1      47.185  15.232  16.550  0.00  0.00    +0.118 A 
ATOM     12  C   UNL     1      48.254  14.958  17.399  0.00  0.00    -0.133 A 
ATOM     13  C   UNL     1      48.852  13.576  17.377  0.00  0.00    +0.228 C 
ATOM     14  C   UNL     1      48.969  13.101  15.927  0.00  0.00    +0.041 C 
ATOM     15  N   UNL     1      50.192  13.588  17.979  0.00  0.00    -0.670 NA
ATOM     16  H   UNL     1      50.857  14.067  17.391  0.00  0.00    +0.342 HD
ATOM     17  C   UNL     1      50.134  14.199  19.317  0.00  0.00    +0.170 C 
ATOM     18  C   UNL     1      48.986  13.584  20.118  0.00  0.00    +0.032 C 
ATOM     19  C   UNL     1      49.900  15.701  19.154  0.00  0.00    +0.050 C 
ATOM     20  C   UNL     1      48.736  15.943  18.229  0.00  0.00    -0.042 A 
BRANCH   9  10
ATOM     10  O   UNL     1      46.715  14.260  15.725  0.00  0.00    -0.493 OA
ATOM     11  H   UNL     1      47.265  13.465  15.697  0.00  0.00    +0.390 HD
ENDBRANCH   9  10
ENDBRANCH   5   6
BRANCH  23  24
ATOM     24  O   UNL     1      50.036  21.229  21.702  0.00  0.00    -0.481 OA
ATOM     25  H   UNL     1      50.607  20.898  22.408  0.00  0.00    +0.392 HD
ENDBRANCH  23  24
BRANCH  27  28
ATOM     28  O   UNL     1      51.732  21.898  20.008  0.00  0.00    -0.295 OA
ATOM     29  C   UNL     1      53.146  21.954  20.206  0.00  0.00    +0.240 C 
ENDBRANCH  27  28
TORSDOF 4
ENDMDL
MODEL 9
REMARK VINA RESULT:      -5.6      5.613      7.058
REMARK  Name = ZINC95485881
REMARK  8 active torsions:
REMARK  status: ('A' for Active; 'I' for Inactive)
REMARK    1  A    between atoms: C1_1  and  C2_2
REMARK    2  A    between atoms: C5_5  and  C13_15
REMARK    3  A    between atoms: C8_8  and  O2_14
REMARK    4  A    between atoms: C10_10  and  O1_12
REMARK    5  A    between atoms: O1_12  and  C12_13
REMARK    6  A    between atoms: C16_18  and  O3_29
REMARK    7  A    between atoms: C20_22  and  C23_28
REMARK    8  A    between atoms: C21_25  and  C22_27
REMARK                            x       y       z     vdW  Elec       q    Type
REMARK                         _______ _______ _______ _____ _____    ______ ____
ROOT
ATOM      1  C   UNL     1      48.187  18.671  22.011  0.00  0.00    +0.093 C 
ATOM      2  C   UNL     1      49.136  19.062  20.908  0.00  0.00    -0.031 A 
ATOM      3  C   UNL     1      49.077  18.413  19.711  0.00  0.00    -0.027 A 
ATOM      4  C   UNL     1      49.955  18.769  18.678  0.00  0.00    +0.019 A 
ATOM      5  C   UNL     1      49.914  18.111  17.425  0.00  0.00    -0.058 A 
ATOM     21  C   UNL     1      50.796  18.488  16.427  0.00  0.00    +0.061 A 
ATOM     22  C   UNL     1      51.719  19.503  16.640  0.00  0.00    -0.028 A 
ATOM     23  C   UNL     1      51.781  20.161  17.850  0.00  0.00    +0.149 A 
ATOM     26  C   UNL     1      50.897  19.803  18.888  0.00  0.00    -0.102 A 
ATOM     27  C   UNL     1      50.938  20.458  20.135  0.00  0.00    +0.160 A 
ATOM     30  C   UNL     1      50.055  20.084  21.125  0.00  0.00    -0.097 A 
ENDROOT
BRANCH   5   6
ATOM      6  C   UNL     1      48.936  17.025  17.184  0.00  0.00    -0.052 A 
ATOM      7  C   UNL     1      47.612  17.337  16.881  0.00  0.00    +0.042 A 
ATOM      8  C   UNL     1      46.705  16.323  16.657  0.00  0.00    -0.019 A 
ATOM      9  C   UNL     1      47.112  15.000  16.738  0.00  0.00    +0.118 A 
ATOM     12  C   UNL     1      48.433  14.682  17.040  0.00  0.00    -0.133 A 
ATOM     13  C   UNL     1      48.821  13.229  17.121  0.00  0.00    +0.228 C 
ATOM     14  C   UNL     1      48.163  12.467  15.968  0.00  0.00    +0.041 C 
ATOM     15  N   UNL     1      50.280  13.081  17.013  0.00  0.00    -0.670 NA
ATOM     16  H   UNL     1      50.603  13.289  16.080  0.00  0.00    +0.342 HD
ATOM     17  C   UNL     1      50.945  13.939  18.006  0.00  0.00    +0.170 C 
ATOM     18  C   UNL     1      50.297  13.742  19.378  0.00  0.00    +0.032 C 
ATOM     19  C   UNL     1      50.790  15.397  17.569  0.00  0.00    +0.050 C 
ATOM     20  C   UNL     1      49.346  15.689  17.256  0.00  0.00    -0.042 A 
BRANCH   9  10
ATOM     10  O   UNL     1      46.214  14.005  16.518  0.00  0.00    -0.493 OA
ATOM     11  H   UNL     1      45.349  14.157  16.925  0.00  0.00    +0.390 HD
ENDBRANCH   9  10
ENDBRANCH   5   6
BRANCH  23  24
ATOM     24  O   UNL     1      52.689  21.151  18.040  0.00  0.00    -0.481 OA
ATOM     25  H   UNL     1      52.726  21.795  17.320  0.00  0.00    +0.392 HD
ENDBRANCH  23  24
BRANCH  27  28
ATOM     28  O   UNL     1      51.834  21.453  20.358  0.00  0.00    -0.295 OA
ATOM     29  C   UNL     1      52.410  21.526  21.664  0.00  0.00    +0.240 C 
ENDBRANCH  27  28
TORSDOF 4
ENDMDL
