MODEL 1
REMARK VINA RESULT:      -6.3      0.000      0.000
REMARK  Name = ZINC95486030
REMARK  5 active torsions:
REMARK  status: ('A' for Active; 'I' for Inactive)
REMARK    1  A    between atoms: C1_1  and  N1_2
REMARK    2  A    between atoms: C5_6  and  O4_26
REMARK    3  A    between atoms: C6_7  and  O3_24
REMARK    4  A    between atoms: O3_24  and  C20_25
REMARK    5  A    between atoms: O4_26  and  C21_27
REMARK                            x       y       z     vdW  Elec       q    Type
REMARK                         _______ _______ _______ _____ _____    ______ ____
ROOT
ATOM      1  C   UNL     1      47.548  16.549  19.682  0.00  0.00    +0.291 C 
ATOM      2  N   UNL     1      46.977  17.739  19.045  0.00  0.00    -0.591 N 
ATOM      3  C   UNL     1      45.615  17.933  19.009  0.00  0.00    +0.353 C 
ATOM      4  C   UNL     1      45.129  19.225  19.082  0.00  0.00    -0.181 A 
ATOM      5  C   UNL     1      43.744  19.506  19.086  0.00  0.00    +0.002 A 
ATOM      6  C   UNL     1      43.323  20.785  19.267  0.00  0.00    +0.080 A 
ATOM      9  C   UNL     1      44.233  21.843  19.453  0.00  0.00    +0.175 A 
ATOM     12  C   UNL     1      45.581  21.645  19.408  0.00  0.00    -0.094 A 
ATOM     13  C   UNL     1      46.082  20.351  19.172  0.00  0.00    +0.065 A 
ATOM     14  C   UNL     1      47.432  20.099  18.977  0.00  0.00    -0.207 C 
ATOM     15  C   UNL     1      48.428  21.049  19.198  0.00  0.00    +0.073 C 
ATOM     16  C   UNL     1      49.735  20.724  19.164  0.00  0.00    -0.047 C 
ATOM     17  C   UNL     1      50.203  19.355  18.919  0.00  0.00    -0.005 A 
ATOM     18  C   UNL     1      51.573  19.060  19.050  0.00  0.00    +0.047 A 
ATOM     19  C   UNL     1      51.965  17.752  18.826  0.00  0.00    +0.044 A 
ATOM     20  O   UNL     1      53.196  17.193  18.882  0.00  0.00    -0.305 OA
ATOM     21  C   UNL     1      52.972  15.770  18.958  0.00  0.00    +0.431 C 
ATOM     22  O   UNL     1      51.689  15.583  18.324  0.00  0.00    -0.304 OA
ATOM     23  C   UNL     1      51.034  16.757  18.480  0.00  0.00    +0.018 A 
ATOM     24  C   UNL     1      49.680  17.047  18.347  0.00  0.00    +0.065 A 
ATOM     25  C   UNL     1      49.285  18.352  18.569  0.00  0.00    -0.098 A 
ATOM     26  C   UNL     1      47.839  18.746  18.441  0.00  0.00    +0.319 C 
ENDROOT
BRANCH   6   7
ATOM      7  O   UNL     1      41.989  21.051  19.269  0.00  0.00    -0.309 OA
ATOM      8  C   UNL     1      41.193  20.381  18.290  0.00  0.00    +0.236 C 
ENDBRANCH   6   7
BRANCH   9  10
ATOM     10  O   UNL     1      43.756  23.092  19.683  0.00  0.00    -0.302 OA
ATOM     11  C   UNL     1      44.495  24.182  19.129  0.00  0.00    +0.245 C 
ENDBRANCH   9  10
TORSDOF 2
ENDMDL
MODEL 2
REMARK VINA RESULT:      -6.0      1.762      7.500
REMARK  Name = ZINC95486030
REMARK  5 active torsions:
REMARK  status: ('A' for Active; 'I' for Inactive)
REMARK    1  A    between atoms: C1_1  and  N1_2
REMARK    2  A    between atoms: C5_6  and  O4_26
REMARK    3  A    between atoms: C6_7  and  O3_24
REMARK    4  A    between atoms: O3_24  and  C20_25
REMARK    5  A    between atoms: O4_26  and  C21_27
REMARK                            x       y       z     vdW  Elec       q    Type
REMARK                         _______ _______ _______ _____ _____    ______ ____
ROOT
ATOM      1  C   UNL     1      46.126  16.563  20.155  0.00  0.00    +0.291 C 
ATOM      2  N   UNL     1      47.234  17.517  20.247  0.00  0.00    -0.591 N 
ATOM      3  C   UNL     1      48.540  17.081  20.248  0.00  0.00    +0.353 C 
ATOM      4  C   UNL     1      49.501  17.874  19.651  0.00  0.00    -0.181 A 
ATOM      5  C   UNL     1      50.858  17.481  19.580  0.00  0.00    +0.002 A 
ATOM      6  C   UNL     1      51.739  18.250  18.888  0.00  0.00    +0.080 A 
ATOM      9  C   UNL     1      51.337  19.431  18.237  0.00  0.00    +0.175 A 
ATOM     12  C   UNL     1      50.055  19.890  18.311  0.00  0.00    -0.094 A 
ATOM     13  C   UNL     1      49.105  19.167  19.056  0.00  0.00    +0.065 A 
ATOM     14  C   UNL     1      47.823  19.643  19.289  0.00  0.00    -0.207 C 
ATOM     15  C   UNL     1      47.293  20.761  18.648  0.00  0.00    +0.073 C 
ATOM     16  C   UNL     1      45.993  21.095  18.768  0.00  0.00    -0.047 C 
ATOM     17  C   UNL     1      45.042  20.300  19.554  0.00  0.00    -0.005 A 
ATOM     18  C   UNL     1      43.672  20.622  19.509  0.00  0.00    +0.047 A 
ATOM     19  C   UNL     1      42.812  19.833  20.254  0.00  0.00    +0.044 A 
ATOM     20  O   UNL     1      41.468  19.911  20.394  0.00  0.00    -0.305 OA
ATOM     21  C   UNL     1      41.063  18.637  20.939  0.00  0.00    +0.431 C 
ATOM     22  O   UNL     1      42.233  18.167  21.639  0.00  0.00    -0.304 OA
ATOM     23  C   UNL     1      43.284  18.757  21.024  0.00  0.00    +0.018 A 
ATOM     24  C   UNL     1      44.638  18.440  21.072  0.00  0.00    +0.065 A 
ATOM     25  C   UNL     1      45.500  19.225  20.331  0.00  0.00    -0.098 A 
ATOM     26  C   UNL     1      46.979  18.949  20.334  0.00  0.00    +0.319 C 
ENDROOT
BRANCH   6   7
ATOM      7  O   UNL     1      53.044  17.869  18.823  0.00  0.00    -0.309 OA
ATOM      8  C   UNL     1      53.340  16.511  19.154  0.00  0.00    +0.236 C 
ENDBRANCH   6   7
BRANCH   9  10
ATOM     10  O   UNL     1      52.249  20.131  17.515  0.00  0.00    -0.302 OA
ATOM     11  C   UNL     1      52.141  20.064  16.092  0.00  0.00    +0.245 C 
ENDBRANCH   9  10
TORSDOF 2
ENDMDL
MODEL 3
REMARK VINA RESULT:      -6.0      1.629      7.568
REMARK  Name = ZINC95486030
REMARK  5 active torsions:
REMARK  status: ('A' for Active; 'I' for Inactive)
REMARK    1  A    between atoms: C1_1  and  N1_2
REMARK    2  A    between atoms: C5_6  and  O4_26
REMARK    3  A    between atoms: C6_7  and  O3_24
REMARK    4  A    between atoms: O3_24  and  C20_25
REMARK    5  A    between atoms: O4_26  and  C21_27
REMARK                            x       y       z     vdW  Elec       q    Type
REMARK                         _______ _______ _______ _____ _____    ______ ____
ROOT
ATOM      1  C   UNL     1      45.785  18.476  17.841  0.00  0.00    +0.291 C 
ATOM      2  N   UNL     1      46.683  18.668  18.983  0.00  0.00    -0.591 N 
ATOM      3  C   UNL     1      47.876  17.985  19.064  0.00  0.00    +0.353 C 
ATOM      4  C   UNL     1      48.956  18.609  19.657  0.00  0.00    -0.181 A 
ATOM      5  C   UNL     1      50.223  17.989  19.748  0.00  0.00    +0.002 A 
ATOM      6  C   UNL     1      51.275  18.692  20.245  0.00  0.00    +0.080 A 
ATOM      9  C   UNL     1      51.137  20.025  20.673  0.00  0.00    +0.175 A 
ATOM     12  C   UNL     1      49.931  20.661  20.659  0.00  0.00    -0.094 A 
ATOM     13  C   UNL     1      48.792  19.972  20.204  0.00  0.00    +0.065 A 
ATOM     14  C   UNL     1      47.514  20.507  20.290  0.00  0.00    -0.207 C 
ATOM     15  C   UNL     1      47.261  21.832  20.635  0.00  0.00    +0.073 C 
ATOM     16  C   UNL     1      46.026  22.364  20.544  0.00  0.00    -0.047 C 
ATOM     17  C   UNL     1      44.871  21.600  20.056  0.00  0.00    -0.005 A 
ATOM     18  C   UNL     1      43.647  22.261  19.843  0.00  0.00    +0.047 A 
ATOM     19  C   UNL     1      42.592  21.503  19.367  0.00  0.00    +0.044 A 
ATOM     20  O   UNL     1      41.323  21.871  19.074  0.00  0.00    -0.305 OA
ATOM     21  C   UNL     1      40.791  20.806  18.258  0.00  0.00    +0.431 C 
ATOM     22  O   UNL     1      41.554  19.648  18.651  0.00  0.00    -0.304 OA
ATOM     23  C   UNL     1      42.734  20.129  19.107  0.00  0.00    +0.018 A 
ATOM     24  C   UNL     1      43.943  19.474  19.320  0.00  0.00    +0.065 A 
ATOM     25  C   UNL     1      44.998  20.227  19.797  0.00  0.00    -0.098 A 
ATOM     26  C   UNL     1      46.336  19.589  20.057  0.00  0.00    +0.319 C 
ENDROOT
BRANCH   6   7
ATOM      7  O   UNL     1      52.493  18.091  20.331  0.00  0.00    -0.309 OA
ATOM      8  C   UNL     1      52.889  17.269  19.231  0.00  0.00    +0.236 C 
ENDBRANCH   6   7
BRANCH   9  10
ATOM     10  O   UNL     1      52.233  20.695  21.111  0.00  0.00    -0.302 OA
ATOM     11  C   UNL     1      52.666  21.812  20.331  0.00  0.00    +0.245 C 
ENDBRANCH   9  10
TORSDOF 2
ENDMDL
MODEL 4
REMARK VINA RESULT:      -5.6      3.492      5.251
REMARK  Name = ZINC95486030
REMARK  5 active torsions:
REMARK  status: ('A' for Active; 'I' for Inactive)
REMARK    1  A    between atoms: C1_1  and  N1_2
REMARK    2  A    between atoms: C5_6  and  O4_26
REMARK    3  A    between atoms: C6_7  and  O3_24
REMARK    4  A    between atoms: O3_24  and  C20_25
REMARK    5  A    between atoms: O4_26  and  C21_27
REMARK                            x       y       z     vdW  Elec       q    Type
REMARK                         _______ _______ _______ _____ _____    ______ ____
ROOT
ATOM      1  C   UNL     1      46.759  16.402  15.985  0.00  0.00    +0.291 C 
ATOM      2  N   UNL     1      46.628  16.783  17.394  0.00  0.00    -0.591 N 
ATOM      3  C   UNL     1      46.377  18.089  17.750  0.00  0.00    +0.353 C 
ATOM      4  C   UNL     1      45.601  18.332  18.866  0.00  0.00    -0.181 A 
ATOM      5  C   UNL     1      45.270  19.643  19.278  0.00  0.00    +0.002 A 
ATOM      6  C   UNL     1      44.415  19.819  20.320  0.00  0.00    +0.080 A 
ATOM      9  C   UNL     1      43.847  18.728  21.002  0.00  0.00    +0.175 A 
ATOM     12  C   UNL     1      44.167  17.440  20.687  0.00  0.00    -0.094 A 
ATOM     13  C   UNL     1      45.086  17.191  19.651  0.00  0.00    +0.065 A 
ATOM     14  C   UNL     1      45.561  15.918  19.368  0.00  0.00    -0.207 C 
ATOM     15  C   UNL     1      45.029  14.760  19.929  0.00  0.00    +0.073 C 
ATOM     16  C   UNL     1      45.397  13.534  19.506  0.00  0.00    -0.047 C 
ATOM     17  C   UNL     1      46.358  13.331  18.415  0.00  0.00    -0.005 A 
ATOM     18  C   UNL     1      46.578  12.030  17.924  0.00  0.00    +0.047 A 
ATOM     19  C   UNL     1      47.480  11.890  16.884  0.00  0.00    +0.044 A 
ATOM     20  O   UNL     1      47.878  10.777  16.226  0.00  0.00    -0.305 OA
ATOM     21  C   UNL     1      48.499  11.247  15.011  0.00  0.00    +0.431 C 
ATOM     22  O   UNL     1      48.962  12.573  15.344  0.00  0.00    -0.304 OA
ATOM     23  C   UNL     1      48.151  12.999  16.340  0.00  0.00    +0.018 A 
ATOM     24  C   UNL     1      47.936  14.285  16.827  0.00  0.00    +0.065 A 
ATOM     25  C   UNL     1      47.037  14.429  17.865  0.00  0.00    -0.098 A 
ATOM     26  C   UNL     1      46.754  15.787  18.449  0.00  0.00    +0.319 C 
ENDROOT
BRANCH   6   7
ATOM      7  O   UNL     1      44.100  21.083  20.713  0.00  0.00    -0.309 OA
ATOM      8  C   UNL     1      44.172  22.108  19.720  0.00  0.00    +0.236 C 
ENDBRANCH   6   7
BRANCH   9  10
ATOM     10  O   UNL     1      42.958  18.962  22.000  0.00  0.00    -0.302 OA
ATOM     11  C   UNL     1      41.574  18.784  21.693  0.00  0.00    +0.245 C 
ENDBRANCH   9  10
TORSDOF 2
ENDMDL
MODEL 5
REMARK VINA RESULT:      -5.6      2.475      4.183
REMARK  Name = ZINC95486030
REMARK  5 active torsions:
REMARK  status: ('A' for Active; 'I' for Inactive)
REMARK    1  A    between atoms: C1_1  and  N1_2
REMARK    2  A    between atoms: C5_6  and  O4_26
REMARK    3  A    between atoms: C6_7  and  O3_24
REMARK    4  A    between atoms: O3_24  and  C20_25
REMARK    5  A    between atoms: O4_26  and  C21_27
REMARK                            x       y       z     vdW  Elec       q    Type
REMARK                         _______ _______ _______ _____ _____    ______ ____
ROOT
ATOM      1  C   UNL     1      50.665  17.838  17.367  0.00  0.00    +0.291 C 
ATOM      2  N   UNL     1      49.473  18.007  18.203  0.00  0.00    -0.591 N 
ATOM      3  C   UNL     1      49.232  19.197  18.852  0.00  0.00    +0.353 C 
ATOM      4  C   UNL     1      47.923  19.607  19.016  0.00  0.00    -0.181 A 
ATOM      5  C   UNL     1      47.594  20.831  19.641  0.00  0.00    +0.002 A 
ATOM      6  C   UNL     1      46.296  21.233  19.679  0.00  0.00    +0.080 A 
ATOM      9  C   UNL     1      45.267  20.461  19.110  0.00  0.00    +0.175 A 
ATOM     12  C   UNL     1      45.513  19.247  18.540  0.00  0.00    -0.094 A 
ATOM     13  C   UNL     1      46.829  18.750  18.514  0.00  0.00    +0.065 A 
ATOM     14  C   UNL     1      47.133  17.469  18.076  0.00  0.00    -0.207 C 
ATOM     15  C   UNL     1      46.213  16.641  17.436  0.00  0.00    +0.073 C 
ATOM     16  C   UNL     1      46.585  15.474  16.872  0.00  0.00    -0.047 C 
ATOM     17  C   UNL     1      47.975  15.005  16.869  0.00  0.00    -0.005 A 
ATOM     18  C   UNL     1      48.314  13.856  16.130  0.00  0.00    +0.047 A 
ATOM     19  C   UNL     1      49.641  13.462  16.144  0.00  0.00    +0.044 A 
ATOM     20  O   UNL     1      50.240  12.415  15.532  0.00  0.00    -0.305 OA
ATOM     21  C   UNL     1      51.653  12.710  15.556  0.00  0.00    +0.431 C 
ATOM     22  O   UNL     1      51.811  13.575  16.699  0.00  0.00    -0.304 OA
ATOM     23  C   UNL     1      50.612  14.179  16.865  0.00  0.00    +0.018 A 
ATOM     24  C   UNL     1      50.277  15.313  17.598  0.00  0.00    +0.065 A 
ATOM     25  C   UNL     1      48.954  15.709  17.588  0.00  0.00    -0.098 A 
ATOM     26  C   UNL     1      48.513  16.923  18.360  0.00  0.00    +0.319 C 
ENDROOT
BRANCH   6   7
ATOM      7  O   UNL     1      45.984  22.412  20.283  0.00  0.00    -0.309 OA
ATOM      8  C   UNL     1      46.588  22.671  21.552  0.00  0.00    +0.236 C 
ENDBRANCH   6   7
BRANCH   9  10
ATOM     10  O   UNL     1      43.995  20.936  19.130  0.00  0.00    -0.302 OA
ATOM     11  C   UNL     1      42.956  20.026  18.763  0.00  0.00    +0.245 C 
ENDBRANCH   9  10
TORSDOF 2
ENDMDL
MODEL 6
REMARK VINA RESULT:      -5.5      4.300      7.517
REMARK  Name = ZINC95486030
REMARK  5 active torsions:
REMARK  status: ('A' for Active; 'I' for Inactive)
REMARK    1  A    between atoms: C1_1  and  N1_2
REMARK    2  A    between atoms: C5_6  and  O4_26
REMARK    3  A    between atoms: C6_7  and  O3_24
REMARK    4  A    between atoms: O3_24  and  C20_25
REMARK    5  A    between atoms: O4_26  and  C21_27
REMARK                            x       y       z     vdW  Elec       q    Type
REMARK                         _______ _______ _______ _____ _____    ______ ____
ROOT
ATOM      1  C   UNL     1      47.073  17.475  17.164  0.00  0.00    +0.291 C 
ATOM      2  N   UNL     1      47.518  16.105  17.433  0.00  0.00    -0.591 N 
ATOM      3  C   UNL     1      46.631  15.053  17.380  0.00  0.00    +0.353 C 
ATOM      4  C   UNL     1      47.087  13.826  16.942  0.00  0.00    -0.181 A 
ATOM      5  C   UNL     1      46.232  12.706  16.826  0.00  0.00    +0.002 A 
ATOM      6  C   UNL     1      46.711  11.553  16.289  0.00  0.00    +0.080 A 
ATOM      9  C   UNL     1      48.040  11.444  15.840  0.00  0.00    +0.175 A 
ATOM     12  C   UNL     1      48.928  12.470  15.972  0.00  0.00    -0.094 A 
ATOM     13  C   UNL     1      48.509  13.674  16.568  0.00  0.00    +0.065 A 
ATOM     14  C   UNL     1      49.388  14.707  16.859  0.00  0.00    -0.207 C 
ATOM     15  C   UNL     1      50.706  14.739  16.409  0.00  0.00    +0.073 C 
ATOM     16  C   UNL     1      51.480  15.832  16.564  0.00  0.00    -0.047 C 
ATOM     17  C   UNL     1      50.989  17.066  17.189  0.00  0.00    -0.005 A 
ATOM     18  C   UNL     1      51.802  18.215  17.178  0.00  0.00    +0.047 A 
ATOM     19  C   UNL     1      51.289  19.359  17.765  0.00  0.00    +0.044 A 
ATOM     20  O   UNL     1      51.841  20.588  17.895  0.00  0.00    -0.305 OA
ATOM     21  C   UNL     1      50.745  21.472  18.210  0.00  0.00    +0.431 C 
ATOM     22  O   UNL     1      49.771  20.613  18.838  0.00  0.00    -0.304 OA
ATOM     23  C   UNL     1      50.011  19.375  18.348  0.00  0.00    +0.018 A 
ATOM     24  C   UNL     1      49.208  18.238  18.363  0.00  0.00    +0.065 A 
ATOM     25  C   UNL     1      49.716  17.094  17.779  0.00  0.00    -0.098 A 
ATOM     26  C   UNL     1      48.910  15.824  17.758  0.00  0.00    +0.319 C 
ENDROOT
BRANCH   6   7
ATOM      7  O   UNL     1      45.884  10.478  16.180  0.00  0.00    -0.309 OA
ATOM      8  C   UNL     1      44.700  10.647  15.400  0.00  0.00    +0.236 C 
ENDBRANCH   6   7
BRANCH   9  10
ATOM     10  O   UNL     1      48.450  10.286  15.263  0.00  0.00    -0.302 OA
ATOM     11  C   UNL     1      49.755  10.277  14.681  0.00  0.00    +0.245 C 
ENDBRANCH   9  10
TORSDOF 2
ENDMDL
MODEL 7
REMARK VINA RESULT:      -5.5      1.100      1.347
REMARK  Name = ZINC95486030
REMARK  5 active torsions:
REMARK  status: ('A' for Active; 'I' for Inactive)
REMARK    1  A    between atoms: C1_1  and  N1_2
REMARK    2  A    between atoms: C5_6  and  O4_26
REMARK    3  A    between atoms: C6_7  and  O3_24
REMARK    4  A    between atoms: O3_24  and  C20_25
REMARK    5  A    between atoms: O4_26  and  C21_27
REMARK                            x       y       z     vdW  Elec       q    Type
REMARK                         _______ _______ _______ _____ _____    ______ ____
ROOT
ATOM      1  C   UNL     1      46.877  15.814  19.737  0.00  0.00    +0.291 C 
ATOM      2  N   UNL     1      46.558  17.077  19.065  0.00  0.00    -0.591 N 
ATOM      3  C   UNL     1      45.282  17.593  19.106  0.00  0.00    +0.353 C 
ATOM      4  C   UNL     1      45.125  18.965  19.129  0.00  0.00    -0.181 A 
ATOM      5  C   UNL     1      43.851  19.573  19.205  0.00  0.00    +0.002 A 
ATOM      6  C   UNL     1      43.763  20.923  19.332  0.00  0.00    +0.080 A 
ATOM      9  C   UNL     1      44.910  21.736  19.392  0.00  0.00    +0.175 A 
ATOM     12  C   UNL     1      46.164  21.216  19.271  0.00  0.00    -0.094 A 
ATOM     13  C   UNL     1      46.322  19.831  19.085  0.00  0.00    +0.065 A 
ATOM     14  C   UNL     1      47.555  19.251  18.819  0.00  0.00    -0.207 C 
ATOM     15  C   UNL     1      48.761  19.940  18.914  0.00  0.00    +0.073 C 
ATOM     16  C   UNL     1      49.948  19.308  18.816  0.00  0.00    -0.047 C 
ATOM     17  C   UNL     1      50.055  17.856  18.627  0.00  0.00    -0.005 A 
ATOM     18  C   UNL     1      51.322  17.245  18.687  0.00  0.00    +0.047 A 
ATOM     19  C   UNL     1      51.372  15.872  18.520  0.00  0.00    +0.044 A 
ATOM     20  O   UNL     1      52.435  15.036  18.532  0.00  0.00    -0.305 OA
ATOM     21  C   UNL     1      51.885  13.714  18.711  0.00  0.00    +0.431 C 
ATOM     22  O   UNL     1      50.550  13.814  18.176  0.00  0.00    -0.304 OA
ATOM     23  C   UNL     1      50.207  15.117  18.300  0.00  0.00    +0.018 A 
ATOM     24  C   UNL     1      48.955  15.720  18.237  0.00  0.00    +0.065 A 
ATOM     25  C   UNL     1      48.901  17.090  18.402  0.00  0.00    -0.098 A 
ATOM     26  C   UNL     1      47.584  17.817  18.343  0.00  0.00    +0.319 C 
ENDROOT
BRANCH   6   7
ATOM      7  O   UNL     1      42.534  21.504  19.405  0.00  0.00    -0.309 OA
ATOM      8  C   UNL     1      41.522  20.990  18.536  0.00  0.00    +0.236 C 
ENDBRANCH   6   7
BRANCH   9  10
ATOM     10  O   UNL     1      44.763  23.074  19.573  0.00  0.00    -0.302 OA
ATOM     11  C   UNL     1      45.154  23.604  20.841  0.00  0.00    +0.245 C 
ENDBRANCH   9  10
TORSDOF 2
ENDMDL
MODEL 8
REMARK VINA RESULT:      -5.4      2.056      8.072
REMARK  Name = ZINC95486030
REMARK  5 active torsions:
REMARK  status: ('A' for Active; 'I' for Inactive)
REMARK    1  A    between atoms: C1_1  and  N1_2
REMARK    2  A    between atoms: C5_6  and  O4_26
REMARK    3  A    between atoms: C6_7  and  O3_24
REMARK    4  A    between atoms: O3_24  and  C20_25
REMARK    5  A    between atoms: O4_26  and  C21_27
REMARK                            x       y       z     vdW  Elec       q    Type
REMARK                         _______ _______ _______ _____ _____    ______ ____
ROOT
ATOM      1  C   UNL     1      45.772  21.514  18.888  0.00  0.00    +0.291 C 
ATOM      2  N   UNL     1      46.529  20.271  19.052  0.00  0.00    -0.591 N 
ATOM      3  C   UNL     1      47.888  20.240  18.831  0.00  0.00    +0.353 C 
ATOM      4  C   UNL     1      48.663  19.392  19.599  0.00  0.00    -0.181 A 
ATOM      5  C   UNL     1      50.068  19.327  19.458  0.00  0.00    +0.002 A 
ATOM      6  C   UNL     1      50.789  18.555  20.313  0.00  0.00    +0.080 A 
ATOM      9  C   UNL     1      50.173  17.816  21.340  0.00  0.00    +0.175 A 
ATOM     12  C   UNL     1      48.818  17.796  21.495  0.00  0.00    -0.094 A 
ATOM     13  C   UNL     1      48.011  18.534  20.611  0.00  0.00    +0.065 A 
ATOM     14  C   UNL     1      46.626  18.452  20.623  0.00  0.00    -0.207 C 
ATOM     15  C   UNL     1      45.906  17.808  21.626  0.00  0.00    +0.073 C 
ATOM     16  C   UNL     1      44.563  17.893  21.699  0.00  0.00    -0.047 C 
ATOM     17  C   UNL     1      43.768  18.683  20.751  0.00  0.00    -0.005 A 
ATOM     18  C   UNL     1      42.389  18.850  20.979  0.00  0.00    +0.047 A 
ATOM     19  C   UNL     1      41.685  19.617  20.068  0.00  0.00    +0.044 A 
ATOM     20  O   UNL     1      40.372  19.942  20.039  0.00  0.00    -0.305 OA
ATOM     21  C   UNL     1      40.269  21.057  19.129  0.00  0.00    +0.431 C 
ATOM     22  O   UNL     1      41.397  20.894  18.246  0.00  0.00    -0.304 OA
ATOM     23  C   UNL     1      42.318  20.205  18.959  0.00  0.00    +0.018 A 
ATOM     24  C   UNL     1      43.681  20.037  18.731  0.00  0.00    +0.065 A 
ATOM     25  C   UNL     1      44.387  19.272  19.638  0.00  0.00    -0.098 A 
ATOM     26  C   UNL     1      45.863  19.040  19.458  0.00  0.00    +0.319 C 
ENDROOT
BRANCH   6   7
ATOM      7  O   UNL     1      52.141  18.494  20.172  0.00  0.00    -0.309 OA
ATOM      8  C   UNL     1      52.643  17.840  19.005  0.00  0.00    +0.236 C 
ENDBRANCH   6   7
BRANCH   9  10
ATOM     10  O   UNL     1      50.948  17.104  22.197  0.00  0.00    -0.302 OA
ATOM     11  C   UNL     1      50.972  15.686  22.026  0.00  0.00    +0.245 C 
ENDBRANCH   9  10
TORSDOF 2
ENDMDL
MODEL 9
REMARK VINA RESULT:      -5.3      1.785      3.545
REMARK  Name = ZINC95486030
REMARK  5 active torsions:
REMARK  status: ('A' for Active; 'I' for Inactive)
REMARK    1  A    between atoms: C1_1  and  N1_2
REMARK    2  A    between atoms: C5_6  and  O4_26
REMARK    3  A    between atoms: C6_7  and  O3_24
REMARK    4  A    between atoms: O3_24  and  C20_25
REMARK    5  A    between atoms: O4_26  and  C21_27
REMARK                            x       y       z     vdW  Elec       q    Type
REMARK                         _______ _______ _______ _____ _____    ______ ____
ROOT
ATOM      1  C   UNL     1      50.215  19.149  18.439  0.00  0.00    +0.291 C 
ATOM      2  N   UNL     1      48.958  19.272  19.182  0.00  0.00    -0.591 N 
ATOM      3  C   UNL     1      48.664  20.420  19.883  0.00  0.00    +0.353 C 
ATOM      4  C   UNL     1      47.346  20.824  19.964  0.00  0.00    -0.181 A 
ATOM      5  C   UNL     1      46.966  22.009  20.636  0.00  0.00    +0.002 A 
ATOM      6  C   UNL     1      45.669  22.413  20.592  0.00  0.00    +0.080 A 
ATOM      9  C   UNL     1      44.690  21.683  19.893  0.00  0.00    +0.175 A 
ATOM     12  C   UNL     1      44.983  20.506  19.270  0.00  0.00    -0.094 A 
ATOM     13  C   UNL     1      46.297  20.006  19.321  0.00  0.00    +0.065 A 
ATOM     14  C   UNL     1      46.637  18.754  18.830  0.00  0.00    -0.207 C 
ATOM     15  C   UNL     1      45.773  17.971  18.066  0.00  0.00    +0.073 C 
ATOM     16  C   UNL     1      46.190  16.840  17.463  0.00  0.00    -0.047 C 
ATOM     17  C   UNL     1      47.577  16.366  17.544  0.00  0.00    -0.005 A 
ATOM     18  C   UNL     1      47.975  15.264  16.766  0.00  0.00    +0.047 A 
ATOM     19  C   UNL     1      49.297  14.863  16.863  0.00  0.00    +0.044 A 
ATOM     20  O   UNL     1      49.945  13.853  16.239  0.00  0.00    -0.305 OA
ATOM     21  C   UNL     1      51.351  14.140  16.396  0.00  0.00    +0.431 C 
ATOM     22  O   UNL     1      51.414  14.931  17.601  0.00  0.00    -0.304 OA
ATOM     23  C   UNL     1      50.205  15.529  17.705  0.00  0.00    +0.018 A 
ATOM     24  C   UNL     1      49.811  16.617  18.478  0.00  0.00    +0.065 A 
ATOM     25  C   UNL     1      48.493  17.018  18.384  0.00  0.00    -0.098 A 
ATOM     26  C   UNL     1      47.989  18.184  19.192  0.00  0.00    +0.319 C 
ENDROOT
BRANCH   6   7
ATOM      7  O   UNL     1      45.308  23.554  21.241  0.00  0.00    -0.309 OA
ATOM      8  C   UNL     1      45.797  24.786  20.707  0.00  0.00    +0.236 C 
ENDBRANCH   6   7
BRANCH   9  10
ATOM     10  O   UNL     1      43.422  22.162  19.839  0.00  0.00    -0.302 OA
ATOM     11  C   UNL     1      42.442  21.337  19.204  0.00  0.00    +0.245 C 
ENDBRANCH   9  10
TORSDOF 2
ENDMDL
