MODEL 1
REMARK VINA RESULT:      -5.9      0.000      0.000
REMARK  Name = ZINC95486003
REMARK  9 active torsions:
REMARK  status: ('A' for Active; 'I' for Inactive)
REMARK    1  A    between atoms: C1_1  and  C2_2
REMARK    2  A    between atoms: C7_8  and  C20_26
REMARK    3  A    between atoms: C7_8  and  C21_27
REMARK    4  A    between atoms: C8_9  and  O3_25
REMARK    5  A    between atoms: C10_12  and  C19_24
REMARK    6  A    between atoms: C11_13  and  C18_23
REMARK    7  A    between atoms: C14_16  and  O2_22
REMARK    8  A    between atoms: C15_18  and  C16_19
REMARK    9  A    between atoms: C15_18  and  C17_20
REMARK                            x       y       z     vdW  Elec       q    Type
REMARK                         _______ _______ _______ _____ _____    ______ ____
ROOT
ATOM      1  C   UNL     1      46.457  18.248  21.196  0.00  0.00    +0.020 C 
ATOM      2  C   UNL     1      46.263  19.026  19.873  0.00  0.00    -0.014 C 
ATOM      3  C   UNL     1      46.454  18.017  18.737  0.00  0.00    +0.024 C 
ATOM      4  C   UNL     1      47.894  17.494  18.744  0.00  0.00    +0.013 C 
ATOM      5  C   UNL     1      48.864  18.654  18.531  0.00  0.00    -0.002 C 
ATOM      6  C   UNL     1      50.299  18.142  18.464  0.00  0.00    +0.034 C 
ATOM      7  C   UNL     1      51.277  19.285  18.201  0.00  0.00    -0.018 C 
ATOM     10  C   UNL     1      51.104  19.809  16.772  0.00  0.00    +0.038 C 
ATOM     11  C   UNL     1      51.088  20.425  19.199  0.00  0.00    +0.177 C 
ATOM     14  C   UNL     1      49.630  20.884  19.256  0.00  0.00    +0.000 C 
ATOM     15  C   UNL     1      48.720  19.702  19.635  0.00  0.00    -0.025 C 
ATOM     16  C   UNL     1      49.249  19.163  20.967  0.00  0.00    +0.023 C 
ATOM     17  C   UNL     1      44.811  19.496  19.952  0.00  0.00    -0.092 C 
ATOM     20  C   UNL     1      44.178  19.820  18.607  0.00  0.00    +0.064 C 
ATOM     21  C   UNL     1      44.624  20.644  20.938  0.00  0.00    +0.182 C 
ATOM     24  C   UNL     1      45.670  21.740  20.819  0.00  0.00    -0.015 C 
ATOM     25  C   UNL     1      47.084  21.162  20.875  0.00  0.00    +0.028 C 
ATOM     26  C   UNL     1      47.265  20.160  19.732  0.00  0.00    -0.019 C 
ATOM     27  C   UNL     1      46.978  20.934  18.421  0.00  0.00    +0.020 C 
ENDROOT
BRANCH   7   8
ATOM      8  C   UNL     1      52.689  18.751  18.342  0.00  0.00    -0.044 C 
ATOM      9  C   UNL     1      52.907  17.645  19.008  0.00  0.00    +0.007 C 
ENDBRANCH   7   8
BRANCH  11  12
ATOM     12  O   UNL     1      51.895  21.539  18.777  0.00  0.00    -0.568 OA
ATOM     13  H   UNL     1      51.840  21.728  17.831  0.00  0.00    +0.374 HD
ENDBRANCH  11  12
BRANCH  17  18
ATOM     18  C   UNL     1      44.013  18.321  20.529  0.00  0.00    +0.437 C 
ATOM     19  O   UNL     1      42.895  18.500  20.950  0.00  0.00    -0.456 OA
ENDBRANCH  17  18
BRANCH  21  22
ATOM     22  O   UNL     1      43.321  21.214  20.744  0.00  0.00    -0.565 OA
ATOM     23  H   UNL     1      42.645  20.861  21.338  0.00  0.00    +0.377 HD
ENDBRANCH  21  22
TORSDOF 4
ENDMDL
MODEL 2
REMARK VINA RESULT:      -5.8      1.518      3.073
REMARK  Name = ZINC95486003
REMARK  9 active torsions:
REMARK  status: ('A' for Active; 'I' for Inactive)
REMARK    1  A    between atoms: C1_1  and  C2_2
REMARK    2  A    between atoms: C7_8  and  C20_26
REMARK    3  A    between atoms: C7_8  and  C21_27
REMARK    4  A    between atoms: C8_9  and  O3_25
REMARK    5  A    between atoms: C10_12  and  C19_24
REMARK    6  A    between atoms: C11_13  and  C18_23
REMARK    7  A    between atoms: C14_16  and  O2_22
REMARK    8  A    between atoms: C15_18  and  C16_19
REMARK    9  A    between atoms: C15_18  and  C17_20
REMARK                            x       y       z     vdW  Elec       q    Type
REMARK                         _______ _______ _______ _____ _____    ______ ____
ROOT
ATOM      1  C   UNL     1      44.962  18.795  18.645  0.00  0.00    +0.020 C 
ATOM      2  C   UNL     1      45.330  19.265  20.072  0.00  0.00    -0.014 C 
ATOM      3  C   UNL     1      45.527  20.783  19.999  0.00  0.00    +0.024 C 
ATOM      4  C   UNL     1      46.722  21.108  19.096  0.00  0.00    +0.013 C 
ATOM      5  C   UNL     1      47.988  20.481  19.673  0.00  0.00    -0.002 C 
ATOM      6  C   UNL     1      49.201  20.854  18.825  0.00  0.00    +0.034 C 
ATOM      7  C   UNL     1      50.483  20.276  19.417  0.00  0.00    -0.018 C 
ATOM     10  C   UNL     1      50.830  20.995  20.725  0.00  0.00    +0.038 C 
ATOM     11  C   UNL     1      50.359  18.775  19.667  0.00  0.00    +0.177 C 
ATOM     14  C   UNL     1      49.114  18.445  20.493  0.00  0.00    +0.000 C 
ATOM     15  C   UNL     1      47.855  18.962  19.775  0.00  0.00    -0.025 C 
ATOM     16  C   UNL     1      47.859  18.321  18.385  0.00  0.00    +0.023 C 
ATOM     17  C   UNL     1      44.089  18.912  20.890  0.00  0.00    -0.092 C 
ATOM     20  C   UNL     1      43.934  19.707  22.179  0.00  0.00    +0.064 C 
ATOM     21  C   UNL     1      43.971  17.414  21.151  0.00  0.00    +0.182 C 
ATOM     24  C   UNL     1      45.268  16.760  21.598  0.00  0.00    -0.015 C 
ATOM     25  C   UNL     1      46.411  17.085  20.636  0.00  0.00    +0.028 C 
ATOM     26  C   UNL     1      46.603  18.603  20.575  0.00  0.00    -0.019 C 
ATOM     27  C   UNL     1      46.881  19.068  22.027  0.00  0.00    +0.020 C 
ENDROOT
BRANCH   7   8
ATOM      8  C   UNL     1      51.614  20.509  18.435  0.00  0.00    -0.044 C 
ATOM      9  C   UNL     1      51.369  21.067  17.276  0.00  0.00    +0.007 C 
ENDBRANCH   7   8
BRANCH  11  12
ATOM     12  O   UNL     1      51.516  18.337  20.400  0.00  0.00    -0.568 OA
ATOM     13  H   UNL     1      51.358  17.563  20.957  0.00  0.00    +0.374 HD
ENDBRANCH  11  12
BRANCH  17  18
ATOM     18  C   UNL     1      42.883  19.274  20.015  0.00  0.00    +0.437 C 
ATOM     19  O   UNL     1      41.763  19.137  20.444  0.00  0.00    -0.456 OA
ENDBRANCH  17  18
BRANCH  21  22
ATOM     22  O   UNL     1      42.965  17.195  22.151  0.00  0.00    -0.565 OA
ATOM     23  H   UNL     1      42.065  17.161  21.802  0.00  0.00    +0.377 HD
ENDBRANCH  21  22
TORSDOF 4
ENDMDL
MODEL 3
REMARK VINA RESULT:      -5.5      3.105      4.935
REMARK  Name = ZINC95486003
REMARK  9 active torsions:
REMARK  status: ('A' for Active; 'I' for Inactive)
REMARK    1  A    between atoms: C1_1  and  C2_2
REMARK    2  A    between atoms: C7_8  and  C20_26
REMARK    3  A    between atoms: C7_8  and  C21_27
REMARK    4  A    between atoms: C8_9  and  O3_25
REMARK    5  A    between atoms: C10_12  and  C19_24
REMARK    6  A    between atoms: C11_13  and  C18_23
REMARK    7  A    between atoms: C14_16  and  O2_22
REMARK    8  A    between atoms: C15_18  and  C16_19
REMARK    9  A    between atoms: C15_18  and  C17_20
REMARK                            x       y       z     vdW  Elec       q    Type
REMARK                         _______ _______ _______ _____ _____    ______ ____
ROOT
ATOM      1  C   UNL     1      46.859  20.971  19.272  0.00  0.00    +0.020 C 
ATOM      2  C   UNL     1      45.998  20.532  20.480  0.00  0.00    -0.014 C 
ATOM      3  C   UNL     1      46.971  20.188  21.612  0.00  0.00    +0.024 C 
ATOM      4  C   UNL     1      47.829  18.982  21.210  0.00  0.00    +0.013 C 
ATOM      5  C   UNL     1      46.931  17.774  20.956  0.00  0.00    -0.002 C 
ATOM      6  C   UNL     1      47.774  16.546  20.623  0.00  0.00    +0.034 C 
ATOM      7  C   UNL     1      46.893  15.317  20.415  0.00  0.00    -0.018 C 
ATOM     10  C   UNL     1      46.279  14.877  21.748  0.00  0.00    +0.038 C 
ATOM     11  C   UNL     1      45.788  15.585  19.397  0.00  0.00    +0.177 C 
ATOM     14  C   UNL     1      44.991  16.841  19.753  0.00  0.00    +0.000 C 
ATOM     15  C   UNL     1      45.932  18.056  19.834  0.00  0.00    -0.025 C 
ATOM     16  C   UNL     1      46.642  18.140  18.481  0.00  0.00    +0.023 C 
ATOM     17  C   UNL     1      45.193  21.787  20.812  0.00  0.00    -0.092 C 
ATOM     20  C   UNL     1      44.663  21.840  22.238  0.00  0.00    +0.064 C 
ATOM     21  C   UNL     1      44.079  22.048  19.803  0.00  0.00    +0.182 C 
ATOM     24  C   UNL     1      43.267  20.814  19.445  0.00  0.00    -0.015 C 
ATOM     25  C   UNL     1      44.175  19.662  19.011  0.00  0.00    +0.028 C 
ATOM     26  C   UNL     1      45.137  19.323  20.152  0.00  0.00    -0.019 C 
ATOM     27  C   UNL     1      44.258  18.974  21.379  0.00  0.00    +0.020 C 
ENDROOT
BRANCH   7   8
ATOM      8  C   UNL     1      47.761  14.187  19.898  0.00  0.00    -0.044 C 
ATOM      9  C   UNL     1      48.428  14.332  18.780  0.00  0.00    +0.007 C 
ENDBRANCH   7   8
BRANCH  11  12
ATOM     12  O   UNL     1      44.887  14.464  19.396  0.00  0.00    -0.568 OA
ATOM     13  H   UNL     1      44.790  14.037  18.534  0.00  0.00    +0.374 HD
ENDBRANCH  11  12
BRANCH  17  18
ATOM     18  C   UNL     1      46.162  22.967  20.671  0.00  0.00    +0.437 C 
ATOM     19  O   UNL     1      45.851  24.057  21.085  0.00  0.00    -0.456 OA
ENDBRANCH  17  18
BRANCH  21  22
ATOM     22  O   UNL     1      43.201  23.053  20.331  0.00  0.00    -0.565 OA
ATOM     23  H   UNL     1      42.865  23.670  19.667  0.00  0.00    +0.377 HD
ENDBRANCH  21  22
TORSDOF 4
ENDMDL
MODEL 4
REMARK VINA RESULT:      -5.4      1.661      6.433
REMARK  Name = ZINC95486003
REMARK  9 active torsions:
REMARK  status: ('A' for Active; 'I' for Inactive)
REMARK    1  A    between atoms: C1_1  and  C2_2
REMARK    2  A    between atoms: C7_8  and  C20_26
REMARK    3  A    between atoms: C7_8  and  C21_27
REMARK    4  A    between atoms: C8_9  and  O3_25
REMARK    5  A    between atoms: C10_12  and  C19_24
REMARK    6  A    between atoms: C11_13  and  C18_23
REMARK    7  A    between atoms: C14_16  and  O2_22
REMARK    8  A    between atoms: C15_18  and  C16_19
REMARK    9  A    between atoms: C15_18  and  C17_20
REMARK                            x       y       z     vdW  Elec       q    Type
REMARK                         _______ _______ _______ _____ _____    ______ ____
ROOT
ATOM      1  C   UNL     1      48.337  17.766  17.887  0.00  0.00    +0.020 C 
ATOM      2  C   UNL     1      48.517  18.112  19.384  0.00  0.00    -0.014 C 
ATOM      3  C   UNL     1      47.917  16.949  20.180  0.00  0.00    +0.024 C 
ATOM      4  C   UNL     1      46.409  16.865  19.917  0.00  0.00    +0.013 C 
ATOM      5  C   UNL     1      45.735  18.159  20.365  0.00  0.00    -0.002 C 
ATOM      6  C   UNL     1      44.224  18.065  20.176  0.00  0.00    +0.034 C 
ATOM      7  C   UNL     1      43.531  19.334  20.666  0.00  0.00    -0.018 C 
ATOM     10  C   UNL     1      43.613  19.423  22.192  0.00  0.00    +0.038 C 
ATOM     11  C   UNL     1      44.141  20.585  20.039  0.00  0.00    +0.177 C 
ATOM     14  C   UNL     1      45.659  20.621  20.224  0.00  0.00    +0.000 C 
ATOM     15  C   UNL     1      46.295  19.363  19.606  0.00  0.00    -0.025 C 
ATOM     16  C   UNL     1      45.855  19.334  18.141  0.00  0.00    +0.023 C 
ATOM     17  C   UNL     1      50.035  18.166  19.551  0.00  0.00    -0.092 C 
ATOM     20  C   UNL     1      50.521  17.963  20.979  0.00  0.00    +0.064 C 
ATOM     21  C   UNL     1      50.644  19.421  18.937  0.00  0.00    +0.182 C 
ATOM     24  C   UNL     1      49.895  20.701  19.272  0.00  0.00    -0.015 C 
ATOM     25  C   UNL     1      48.406  20.569  18.948  0.00  0.00    +0.028 C 
ATOM     26  C   UNL     1      47.816  19.409  19.754  0.00  0.00    -0.019 C 
ATOM     27  C   UNL     1      48.087  19.728  21.245  0.00  0.00    +0.020 C 
ENDROOT
BRANCH   7   8
ATOM      8  C   UNL     1      42.068  19.264  20.273  0.00  0.00    -0.044 C 
ATOM      9  C   UNL     1      41.170  18.907  21.157  0.00  0.00    +0.007 C 
ENDBRANCH   7   8
BRANCH  11  12
ATOM     12  O   UNL     1      43.580  21.740  20.686  0.00  0.00    -0.568 OA
ATOM     13  H   UNL     1      42.659  21.630  20.957  0.00  0.00    +0.374 HD
ENDBRANCH  11  12
BRANCH  17  18
ATOM     18  C   UNL     1      50.596  16.994  18.737  0.00  0.00    +0.437 C 
ATOM     19  O   UNL     1      51.739  17.021  18.350  0.00  0.00    -0.456 OA
ENDBRANCH  17  18
BRANCH  21  22
ATOM     22  O   UNL     1      52.003  19.542  19.382  0.00  0.00    -0.565 OA
ATOM     23  H   UNL     1      52.184  20.351  19.881  0.00  0.00    +0.377 HD
ENDBRANCH  21  22
TORSDOF 4
ENDMDL
MODEL 5
REMARK VINA RESULT:      -5.3      2.916      6.106
REMARK  Name = ZINC95486003
REMARK  9 active torsions:
REMARK  status: ('A' for Active; 'I' for Inactive)
REMARK    1  A    between atoms: C1_1  and  C2_2
REMARK    2  A    between atoms: C7_8  and  C20_26
REMARK    3  A    between atoms: C7_8  and  C21_27
REMARK    4  A    between atoms: C8_9  and  O3_25
REMARK    5  A    between atoms: C10_12  and  C19_24
REMARK    6  A    between atoms: C11_13  and  C18_23
REMARK    7  A    between atoms: C14_16  and  O2_22
REMARK    8  A    between atoms: C15_18  and  C16_19
REMARK    9  A    between atoms: C15_18  and  C17_20
REMARK                            x       y       z     vdW  Elec       q    Type
REMARK                         _______ _______ _______ _____ _____    ______ ____
ROOT
ATOM      1  C   UNL     1      52.037  17.904  20.079  0.00  0.00    +0.020 C 
ATOM      2  C   UNL     1      50.831  18.857  20.253  0.00  0.00    -0.014 C 
ATOM      3  C   UNL     1      50.011  18.316  21.429  0.00  0.00    +0.024 C 
ATOM      4  C   UNL     1      49.446  16.936  21.077  0.00  0.00    +0.013 C 
ATOM      5  C   UNL     1      48.533  17.049  19.859  0.00  0.00    -0.002 C 
ATOM      6  C   UNL     1      47.906  15.696  19.537  0.00  0.00    +0.034 C 
ATOM      7  C   UNL     1      46.951  15.802  18.351  0.00  0.00    -0.018 C 
ATOM     10  C   UNL     1      45.703  16.596  18.749  0.00  0.00    +0.038 C 
ATOM     11  C   UNL     1      47.622  16.459  17.147  0.00  0.00    +0.177 C 
ATOM     14  C   UNL     1      48.264  17.796  17.523  0.00  0.00    +0.000 C 
ATOM     15  C   UNL     1      49.294  17.587  18.647  0.00  0.00    -0.025 C 
ATOM     16  C   UNL     1      50.293  16.549  18.128  0.00  0.00    +0.023 C 
ATOM     17  C   UNL     1      51.485  20.191  20.608  0.00  0.00    -0.092 C 
ATOM     20  C   UNL     1      50.575  21.166  21.340  0.00  0.00    +0.064 C 
ATOM     21  C   UNL     1      52.144  20.854  19.403  0.00  0.00    +0.182 C 
ATOM     24  C   UNL     1      51.288  20.848  18.147  0.00  0.00    -0.015 C 
ATOM     25  C   UNL     1      50.791  19.439  17.825  0.00  0.00    +0.028 C 
ATOM     26  C   UNL     1      49.968  18.912  19.003  0.00  0.00    -0.019 C 
ATOM     27  C   UNL     1      48.817  19.926  19.222  0.00  0.00    +0.020 C 
ENDROOT
BRANCH   7   8
ATOM      8  C   UNL     1      46.516  14.405  17.956  0.00  0.00    -0.044 C 
ATOM      9  C   UNL     1      45.602  13.781  18.657  0.00  0.00    +0.007 C 
ENDBRANCH   7   8
BRANCH  11  12
ATOM     12  O   UNL     1      46.621  16.705  16.144  0.00  0.00    -0.568 OA
ATOM     13  H   UNL     1      45.716  16.543  16.444  0.00  0.00    +0.374 HD
ENDBRANCH  11  12
BRANCH  17  18
ATOM     18  C   UNL     1      52.628  19.862  21.575  0.00  0.00    +0.437 C 
ATOM     19  O   UNL     1      53.010  20.694  22.363  0.00  0.00    -0.456 OA
ENDBRANCH  17  18
BRANCH  21  22
ATOM     22  O   UNL     1      52.473  22.209  19.742  0.00  0.00    -0.565 OA
ATOM     23  H   UNL     1      53.347  22.314  20.142  0.00  0.00    +0.377 HD
ENDBRANCH  21  22
TORSDOF 4
ENDMDL
MODEL 6
REMARK VINA RESULT:      -5.3      2.428      4.341
REMARK  Name = ZINC95486003
REMARK  9 active torsions:
REMARK  status: ('A' for Active; 'I' for Inactive)
REMARK    1  A    between atoms: C1_1  and  C2_2
REMARK    2  A    between atoms: C7_8  and  C20_26
REMARK    3  A    between atoms: C7_8  and  C21_27
REMARK    4  A    between atoms: C8_9  and  O3_25
REMARK    5  A    between atoms: C10_12  and  C19_24
REMARK    6  A    between atoms: C11_13  and  C18_23
REMARK    7  A    between atoms: C14_16  and  O2_22
REMARK    8  A    between atoms: C15_18  and  C16_19
REMARK    9  A    between atoms: C15_18  and  C17_20
REMARK                            x       y       z     vdW  Elec       q    Type
REMARK                         _______ _______ _______ _____ _____    ______ ____
ROOT
ATOM      1  C   UNL     1      45.881  17.464  18.583  0.00  0.00    +0.020 C 
ATOM      2  C   UNL     1      46.893  16.851  19.580  0.00  0.00    -0.014 C 
ATOM      3  C   UNL     1      47.391  17.999  20.463  0.00  0.00    +0.024 C 
ATOM      4  C   UNL     1      48.159  19.014  19.610  0.00  0.00    +0.013 C 
ATOM      5  C   UNL     1      49.367  18.337  18.967  0.00  0.00    -0.002 C 
ATOM      6  C   UNL     1      50.184  19.350  18.171  0.00  0.00    +0.034 C 
ATOM      7  C   UNL     1      51.423  18.699  17.562  0.00  0.00    -0.018 C 
ATOM     10  C   UNL     1      52.425  18.342  18.664  0.00  0.00    +0.038 C 
ATOM     11  C   UNL     1      51.064  17.450  16.762  0.00  0.00    +0.177 C 
ATOM     14  C   UNL     1      50.219  16.478  17.588  0.00  0.00    +0.000 C 
ATOM     15  C   UNL     1      48.936  17.176  18.071  0.00  0.00    -0.025 C 
ATOM     16  C   UNL     1      48.229  17.692  16.816  0.00  0.00    +0.023 C 
ATOM     17  C   UNL     1      46.043  15.868  20.384  0.00  0.00    -0.092 C 
ATOM     20  C   UNL     1      46.611  15.512  21.749  0.00  0.00    +0.064 C 
ATOM     21  C   UNL     1      45.695  14.614  19.589  0.00  0.00    +0.182 C 
ATOM     24  C   UNL     1      46.870  14.012  18.836  0.00  0.00    -0.015 C 
ATOM     25  C   UNL     1      47.569  15.062  17.972  0.00  0.00    +0.028 C 
ATOM     26  C   UNL     1      48.067  16.200  18.866  0.00  0.00    -0.019 C 
ATOM     27  C   UNL     1      49.008  15.555  19.914  0.00  0.00    +0.020 C 
ENDROOT
BRANCH   7   8
ATOM      8  C   UNL     1      52.081  19.696  16.629  0.00  0.00    -0.044 C 
ATOM      9  C   UNL     1      51.616  20.918  16.544  0.00  0.00    +0.007 C 
ENDBRANCH   7   8
BRANCH  11  12
ATOM     12  O   UNL     1      52.282  16.782  16.387  0.00  0.00    -0.568 OA
ATOM     13  H   UNL     1      53.080  17.186  16.753  0.00  0.00    +0.374 HD
ENDBRANCH  11  12
BRANCH  17  18
ATOM     18  C   UNL     1      44.707  16.575  20.646  0.00  0.00    +0.437 C 
ATOM     19  O   UNL     1      44.074  16.317  21.641  0.00  0.00    -0.456 OA
ENDBRANCH  17  18
BRANCH  21  22
ATOM     22  O   UNL     1      45.158  13.631  20.486  0.00  0.00    -0.565 OA
ATOM     23  H   UNL     1      45.712  12.845  20.587  0.00  0.00    +0.377 HD
ENDBRANCH  21  22
TORSDOF 4
ENDMDL
MODEL 7
REMARK VINA RESULT:      -5.2      1.645      2.053
REMARK  Name = ZINC95486003
REMARK  9 active torsions:
REMARK  status: ('A' for Active; 'I' for Inactive)
REMARK    1  A    between atoms: C1_1  and  C2_2
REMARK    2  A    between atoms: C7_8  and  C20_26
REMARK    3  A    between atoms: C7_8  and  C21_27
REMARK    4  A    between atoms: C8_9  and  O3_25
REMARK    5  A    between atoms: C10_12  and  C19_24
REMARK    6  A    between atoms: C11_13  and  C18_23
REMARK    7  A    between atoms: C14_16  and  O2_22
REMARK    8  A    between atoms: C15_18  and  C16_19
REMARK    9  A    between atoms: C15_18  and  C17_20
REMARK                            x       y       z     vdW  Elec       q    Type
REMARK                         _______ _______ _______ _____ _____    ______ ____
ROOT
ATOM      1  C   UNL     1      45.062  17.486  20.066  0.00  0.00    +0.020 C 
ATOM      2  C   UNL     1      45.567  18.849  19.536  0.00  0.00    -0.014 C 
ATOM      3  C   UNL     1      45.480  18.786  18.009  0.00  0.00    +0.024 C 
ATOM      4  C   UNL     1      46.440  17.715  17.479  0.00  0.00    +0.013 C 
ATOM      5  C   UNL     1      47.872  18.068  17.870  0.00  0.00    -0.002 C 
ATOM      6  C   UNL     1      48.849  17.049  17.290  0.00  0.00    +0.034 C 
ATOM      7  C   UNL     1      50.291  17.416  17.632  0.00  0.00    -0.018 C 
ATOM     10  C   UNL     1      50.712  18.671  16.861  0.00  0.00    +0.038 C 
ATOM     11  C   UNL     1      50.473  17.641  19.130  0.00  0.00    +0.177 C 
ATOM     14  C   UNL     1      49.453  18.644  19.674  0.00  0.00    +0.000 C 
ATOM     15  C   UNL     1      48.024  18.149  19.389  0.00  0.00    -0.025 C 
ATOM     16  C   UNL     1      47.917  16.759  20.021  0.00  0.00    +0.023 C 
ATOM     17  C   UNL     1      44.554  19.843  20.103  0.00  0.00    -0.092 C 
ATOM     20  C   UNL     1      44.470  21.160  19.346  0.00  0.00    +0.064 C 
ATOM     21  C   UNL     1      44.743  20.079  21.597  0.00  0.00    +0.182 C 
ATOM     24  C   UNL     1      46.189  20.297  22.012  0.00  0.00    -0.015 C 
ATOM     25  C   UNL     1      47.088  19.175  21.490  0.00  0.00    +0.028 C 
ATOM     26  C   UNL     1      46.999  19.127  19.963  0.00  0.00    -0.019 C 
ATOM     27  C   UNL     1      47.420  20.528  19.454  0.00  0.00    +0.020 C 
ENDROOT
BRANCH   7   8
ATOM      8  C   UNL     1      51.191  16.274  17.204  0.00  0.00    -0.044 C 
ATOM      9  C   UNL     1      50.707  15.061  17.102  0.00  0.00    +0.007 C 
ENDBRANCH   7   8
BRANCH  11  12
ATOM     12  O   UNL     1      51.791  18.171  19.356  0.00  0.00    -0.568 OA
ATOM     13  H   UNL     1      52.448  17.876  18.712  0.00  0.00    +0.374 HD
ENDBRANCH  11  12
BRANCH  17  18
ATOM     18  C   UNL     1      43.179  19.179  19.960  0.00  0.00    +0.437 C 
ATOM     19  O   UNL     1      42.178  19.855  19.968  0.00  0.00    -0.456 OA
ENDBRANCH  17  18
BRANCH  21  22
ATOM     22  O   UNL     1      43.964  21.218  21.989  0.00  0.00    -0.565 OA
ATOM     23  H   UNL     1      43.644  21.750  21.248  0.00  0.00    +0.377 HD
ENDBRANCH  21  22
TORSDOF 4
ENDMDL
MODEL 8
REMARK VINA RESULT:      -5.2      2.968      6.282
REMARK  Name = ZINC95486003
REMARK  9 active torsions:
REMARK  status: ('A' for Active; 'I' for Inactive)
REMARK    1  A    between atoms: C1_1  and  C2_2
REMARK    2  A    between atoms: C7_8  and  C20_26
REMARK    3  A    between atoms: C7_8  and  C21_27
REMARK    4  A    between atoms: C8_9  and  O3_25
REMARK    5  A    between atoms: C10_12  and  C19_24
REMARK    6  A    between atoms: C11_13  and  C18_23
REMARK    7  A    between atoms: C14_16  and  O2_22
REMARK    8  A    between atoms: C15_18  and  C16_19
REMARK    9  A    between atoms: C15_18  and  C17_20
REMARK                            x       y       z     vdW  Elec       q    Type
REMARK                         _______ _______ _______ _____ _____    ______ ____
ROOT
ATOM      1  C   UNL     1      48.427  17.154  18.971  0.00  0.00    +0.020 C 
ATOM      2  C   UNL     1      47.039  16.476  19.067  0.00  0.00    -0.014 C 
ATOM      3  C   UNL     1      46.298  16.805  17.768  0.00  0.00    +0.024 C 
ATOM      4  C   UNL     1      46.055  18.316  17.678  0.00  0.00    +0.013 C 
ATOM      5  C   UNL     1      45.197  18.770  18.856  0.00  0.00    -0.002 C 
ATOM      6  C   UNL     1      44.885  20.260  18.744  0.00  0.00    +0.034 C 
ATOM      7  C   UNL     1      43.986  20.719  19.889  0.00  0.00    -0.018 C 
ATOM     10  C   UNL     1      42.581  20.131  19.724  0.00  0.00    +0.038 C 
ATOM     11  C   UNL     1      44.559  20.321  21.247  0.00  0.00    +0.177 C 
ATOM     14  C   UNL     1      44.885  18.828  21.302  0.00  0.00    +0.000 C 
ATOM     15  C   UNL     1      45.883  18.466  20.188  0.00  0.00    -0.025 C 
ATOM     16  C   UNL     1      47.101  19.370  20.390  0.00  0.00    +0.023 C 
ATOM     17  C   UNL     1      47.380  14.989  19.142  0.00  0.00    -0.092 C 
ATOM     20  C   UNL     1      46.251  14.060  18.720  0.00  0.00    +0.064 C 
ATOM     21  C   UNL     1      47.940  14.588  20.503  0.00  0.00    +0.182 C 
ATOM     24  C   UNL     1      47.164  15.151  21.682  0.00  0.00    -0.015 C 
ATOM     25  C   UNL     1      46.991  16.666  21.557  0.00  0.00    +0.028 C 
ATOM     26  C   UNL     1      46.244  16.982  20.259  0.00  0.00    -0.019 C 
ATOM     27  C   UNL     1      44.896  16.222  20.333  0.00  0.00    +0.020 C 
ENDROOT
BRANCH   7   8
ATOM      8  C   UNL     1      43.875  22.230  19.837  0.00  0.00    -0.044 C 
ATOM      9  C   UNL     1      44.956  22.967  19.883  0.00  0.00    +0.007 C 
ENDBRANCH   7   8
BRANCH  11  12
ATOM     12  O   UNL     1      43.576  20.606  22.258  0.00  0.00    -0.568 OA
ATOM     13  H   UNL     1      43.777  21.387  22.792  0.00  0.00    +0.374 HD
ENDBRANCH  11  12
BRANCH  17  18
ATOM     18  C   UNL     1      48.520  14.760  18.143  0.00  0.00    +0.437 C 
ATOM     19  O   UNL     1      48.764  13.645  17.751  0.00  0.00    -0.456 OA
ENDBRANCH  17  18
BRANCH  21  22
ATOM     22  O   UNL     1      47.959  13.156  20.593  0.00  0.00    -0.565 OA
ATOM     23  H   UNL     1      48.841  12.768  20.519  0.00  0.00    +0.377 HD
ENDBRANCH  21  22
TORSDOF 4
ENDMDL
MODEL 9
REMARK VINA RESULT:      -5.2      3.562      5.541
REMARK  Name = ZINC95486003
REMARK  9 active torsions:
REMARK  status: ('A' for Active; 'I' for Inactive)
REMARK    1  A    between atoms: C1_1  and  C2_2
REMARK    2  A    between atoms: C7_8  and  C20_26
REMARK    3  A    between atoms: C7_8  and  C21_27
REMARK    4  A    between atoms: C8_9  and  O3_25
REMARK    5  A    between atoms: C10_12  and  C19_24
REMARK    6  A    between atoms: C11_13  and  C18_23
REMARK    7  A    between atoms: C14_16  and  O2_22
REMARK    8  A    between atoms: C15_18  and  C16_19
REMARK    9  A    between atoms: C15_18  and  C17_20
REMARK                            x       y       z     vdW  Elec       q    Type
REMARK                         _______ _______ _______ _____ _____    ______ ____
ROOT
ATOM      1  C   UNL     1      46.216  15.790  18.314  0.00  0.00    +0.020 C 
ATOM      2  C   UNL     1      47.473  15.051  18.832  0.00  0.00    -0.014 C 
ATOM      3  C   UNL     1      47.838  15.693  20.174  0.00  0.00    +0.024 C 
ATOM      4  C   UNL     1      48.235  17.157  19.957  0.00  0.00    +0.013 C 
ATOM      5  C   UNL     1      49.450  17.231  19.037  0.00  0.00    -0.002 C 
ATOM      6  C   UNL     1      49.902  18.679  18.868  0.00  0.00    +0.034 C 
ATOM      7  C   UNL     1      51.148  18.765  17.989  0.00  0.00    -0.018 C 
ATOM     10  C   UNL     1      52.356  18.183  18.729  0.00  0.00    +0.038 C 
ATOM     11  C   UNL     1      50.950  18.034  16.663  0.00  0.00    +0.177 C 
ATOM     14  C   UNL     1      50.467  16.599  16.880  0.00  0.00    +0.000 C 
ATOM     15  C   UNL     1      49.150  16.602  17.676  0.00  0.00    -0.025 C 
ATOM     16  C   UNL     1      48.169  17.469  16.882  0.00  0.00    +0.023 C 
ATOM     17  C   UNL     1      46.983  13.617  19.024  0.00  0.00    -0.092 C 
ATOM     20  C   UNL     1      47.811  12.792  19.998  0.00  0.00    +0.064 C 
ATOM     21  C   UNL     1      46.798  12.882  17.701  0.00  0.00    +0.182 C 
ATOM     24  C   UNL     1      47.950  13.064  16.726  0.00  0.00    -0.015 C 
ATOM     25  C   UNL     1      48.270  14.545  16.519  0.00  0.00    +0.028 C 
ATOM     26  C   UNL     1      48.640  15.174  17.865  0.00  0.00    -0.019 C 
ATOM     27  C   UNL     1      49.842  14.364  18.411  0.00  0.00    +0.020 C 
ENDROOT
BRANCH   7   8
ATOM      8  C   UNL     1      51.429  20.225  17.697  0.00  0.00    -0.044 C 
ATOM      9  C   UNL     1      50.617  21.150  18.142  0.00  0.00    +0.007 C 
ENDBRANCH   7   8
BRANCH  11  12
ATOM     12  O   UNL     1      52.213  17.986  15.976  0.00  0.00    -0.568 OA
ATOM     13  H   UNL     1      52.365  17.164  15.491  0.00  0.00    +0.374 HD
ENDBRANCH  11  12
BRANCH  17  18
ATOM     18  C   UNL     1      45.581  13.723  19.636  0.00  0.00    +0.437 C 
ATOM     19  O   UNL     1      44.732  12.917  19.343  0.00  0.00    -0.456 OA
ENDBRANCH  17  18
BRANCH  21  22
ATOM     22  O   UNL     1      46.625  11.483  17.968  0.00  0.00    -0.565 OA
ATOM     23  H   UNL     1      45.796  11.268  18.418  0.00  0.00    +0.377 HD
ENDBRANCH  21  22
TORSDOF 4
ENDMDL
