MODEL 1
REMARK VINA RESULT:      -4.8      0.000      0.000
REMARK  Name = ZINC18157343
REMARK  3 active torsions:
REMARK  status: ('A' for Active; 'I' for Inactive)
REMARK    1  A    between atoms: C1_1  and  C2_2
REMARK    2  A    between atoms: C6_7  and  C7_8
REMARK    3  A    between atoms: C6_7  and  C8_9
REMARK                            x       y       z     vdW  Elec       q    Type
REMARK                         _______ _______ _______ _____ _____    ______ ____
ROOT
ATOM      1  C   UNL     1      39.414  21.485  18.659  0.00  0.00    +0.087 C 
ATOM      2  C   UNL     1      40.866  21.198  18.946  0.00  0.00    -0.035 C 
ATOM      3  C   UNL     1      41.184  19.972  19.326  0.00  0.00    -0.105 C 
ATOM      4  C   UNL     1      42.585  19.625  19.645  0.00  0.00    +0.426 C 
ATOM      5  C   UNL     1      43.592  20.686  19.380  0.00  0.00    -0.224 C 
ATOM      6  C   UNL     1      43.104  22.106  19.614  0.00  0.00    +0.088 C 
ATOM      7  C   UNL     1      44.828  20.413  18.969  0.00  0.00    -0.042 C 
ATOM      8  C   UNL     1      45.803  21.533  18.717  0.00  0.00    +0.094 C 
ATOM      9  C   UNL     1      45.251  18.983  18.754  0.00  0.00    +0.086 C 
ATOM     10  O   UNL     1      42.894  18.538  20.096  0.00  0.00    -0.454 OA
ATOM     11  C   UNL     1      41.842  22.320  18.774  0.00  0.00    +0.079 C 
ENDROOT
TORSDOF 0
ENDMDL
MODEL 2
REMARK VINA RESULT:      -4.4      1.998      2.808
REMARK  Name = ZINC18157343
REMARK  3 active torsions:
REMARK  status: ('A' for Active; 'I' for Inactive)
REMARK    1  A    between atoms: C1_1  and  C2_2
REMARK    2  A    between atoms: C6_7  and  C7_8
REMARK    3  A    between atoms: C6_7  and  C8_9
REMARK                            x       y       z     vdW  Elec       q    Type
REMARK                         _______ _______ _______ _____ _____    ______ ____
ROOT
ATOM      1  C   UNL     1      39.678  21.186  18.349  0.00  0.00    +0.087 C 
ATOM      2  C   UNL     1      41.056  21.052  18.943  0.00  0.00    -0.035 C 
ATOM      3  C   UNL     1      41.818  22.133  18.974  0.00  0.00    -0.105 C 
ATOM      4  C   UNL     1      43.189  22.069  19.522  0.00  0.00    +0.426 C 
ATOM      5  C   UNL     1      43.580  20.775  20.141  0.00  0.00    -0.224 C 
ATOM      6  C   UNL     1      42.983  19.543  19.484  0.00  0.00    +0.088 C 
ATOM      7  C   UNL     1      44.392  20.702  21.193  0.00  0.00    -0.042 C 
ATOM      8  C   UNL     1      44.752  19.360  21.776  0.00  0.00    +0.094 C 
ATOM      9  C   UNL     1      44.952  21.962  21.801  0.00  0.00    +0.086 C 
ATOM     10  O   UNL     1      43.950  23.017  19.469  0.00  0.00    -0.454 OA
ATOM     11  C   UNL     1      41.461  19.707  19.460  0.00  0.00    +0.079 C 
ENDROOT
TORSDOF 0
ENDMDL
MODEL 3
REMARK VINA RESULT:      -4.3     20.242     22.314
REMARK  Name = ZINC18157343
REMARK  3 active torsions:
REMARK  status: ('A' for Active; 'I' for Inactive)
REMARK    1  A    between atoms: C1_1  and  C2_2
REMARK    2  A    between atoms: C6_7  and  C7_8
REMARK    3  A    between atoms: C6_7  and  C8_9
REMARK                            x       y       z     vdW  Elec       q    Type
REMARK                         _______ _______ _______ _____ _____    ______ ____
ROOT
ATOM      1  C   UNL     1      57.527  32.643   4.755  0.00  0.00    +0.087 C 
ATOM      2  C   UNL     1      56.113  33.101   5.008  0.00  0.00    -0.035 C 
ATOM      3  C   UNL     1      55.154  32.553   4.281  0.00  0.00    -0.105 C 
ATOM      4  C   UNL     1      53.747  32.970   4.460  0.00  0.00    +0.426 C 
ATOM      5  C   UNL     1      53.488  33.917   5.577  0.00  0.00    -0.224 C 
ATOM      6  C   UNL     1      54.601  34.917   5.840  0.00  0.00    +0.088 C 
ATOM      7  C   UNL     1      52.367  33.890   6.293  0.00  0.00    -0.042 C 
ATOM      8  C   UNL     1      52.163  34.876   7.413  0.00  0.00    +0.094 C 
ATOM      9  C   UNL     1      51.300  32.871   5.983  0.00  0.00    +0.086 C 
ATOM     10  O   UNL     1      52.856  32.563   3.738  0.00  0.00    -0.454 OA
ATOM     11  C   UNL     1      55.899  34.137   6.066  0.00  0.00    +0.079 C 
ENDROOT
TORSDOF 0
ENDMDL
MODEL 4
REMARK VINA RESULT:      -4.3      1.674      4.549
REMARK  Name = ZINC18157343
REMARK  3 active torsions:
REMARK  status: ('A' for Active; 'I' for Inactive)
REMARK    1  A    between atoms: C1_1  and  C2_2
REMARK    2  A    between atoms: C6_7  and  C7_8
REMARK    3  A    between atoms: C6_7  and  C8_9
REMARK                            x       y       z     vdW  Elec       q    Type
REMARK                         _______ _______ _______ _____ _____    ______ ____
ROOT
ATOM      1  C   UNL     1      47.365  20.554  18.829  0.00  0.00    +0.087 C 
ATOM      2  C   UNL     1      45.882  20.638  19.079  0.00  0.00    -0.035 C 
ATOM      3  C   UNL     1      45.361  21.838  19.275  0.00  0.00    -0.105 C 
ATOM      4  C   UNL     1      43.916  21.993  19.548  0.00  0.00    +0.426 C 
ATOM      5  C   UNL     1      43.101  20.753  19.449  0.00  0.00    -0.224 C 
ATOM      6  C   UNL     1      43.810  19.483  19.887  0.00  0.00    +0.088 C 
ATOM      7  C   UNL     1      41.845  20.757  19.009  0.00  0.00    -0.042 C 
ATOM      8  C   UNL     1      41.070  19.467  18.932  0.00  0.00    +0.094 C 
ATOM      9  C   UNL     1      41.198  22.051  18.588  0.00  0.00    +0.086 C 
ATOM     10  O   UNL     1      43.425  23.069  19.836  0.00  0.00    -0.454 OA
ATOM     11  C   UNL     1      45.105  19.358  19.081  0.00  0.00    +0.079 C 
ENDROOT
TORSDOF 0
ENDMDL
MODEL 5
REMARK VINA RESULT:      -4.2     20.162     22.213
REMARK  Name = ZINC18157343
REMARK  3 active torsions:
REMARK  status: ('A' for Active; 'I' for Inactive)
REMARK    1  A    between atoms: C1_1  and  C2_2
REMARK    2  A    between atoms: C6_7  and  C7_8
REMARK    3  A    between atoms: C6_7  and  C8_9
REMARK                            x       y       z     vdW  Elec       q    Type
REMARK                         _______ _______ _______ _____ _____    ______ ____
ROOT
ATOM      1  C   UNL     1      56.320  32.128   2.918  0.00  0.00    +0.087 C 
ATOM      2  C   UNL     1      55.363  32.534   4.010  0.00  0.00    -0.035 C 
ATOM      3  C   UNL     1      55.729  33.521   4.809  0.00  0.00    -0.105 C 
ATOM      4  C   UNL     1      54.849  33.956   5.915  0.00  0.00    +0.426 C 
ATOM      5  C   UNL     1      53.510  33.314   5.969  0.00  0.00    -0.224 C 
ATOM      6  C   UNL     1      53.475  31.865   5.515  0.00  0.00    +0.088 C 
ATOM      7  C   UNL     1      52.423  33.960   6.382  0.00  0.00    -0.042 C 
ATOM      8  C   UNL     1      51.092  33.255   6.414  0.00  0.00    +0.094 C 
ATOM      9  C   UNL     1      52.523  35.399   6.819  0.00  0.00    +0.086 C 
ATOM     10  O   UNL     1      55.201  34.788   6.730  0.00  0.00    -0.454 OA
ATOM     11  C   UNL     1      54.066  31.793   4.105  0.00  0.00    +0.079 C 
ENDROOT
TORSDOF 0
ENDMDL
MODEL 6
REMARK VINA RESULT:      -4.2     21.029     21.742
REMARK  Name = ZINC18157343
REMARK  3 active torsions:
REMARK  status: ('A' for Active; 'I' for Inactive)
REMARK    1  A    between atoms: C1_1  and  C2_2
REMARK    2  A    between atoms: C6_7  and  C7_8
REMARK    3  A    between atoms: C6_7  and  C8_9
REMARK                            x       y       z     vdW  Elec       q    Type
REMARK                         _______ _______ _______ _____ _____    ______ ____
ROOT
ATOM      1  C   UNL     1      52.213  35.284   7.506  0.00  0.00    +0.087 C 
ATOM      2  C   UNL     1      52.510  34.299   6.404  0.00  0.00    -0.035 C 
ATOM      3  C   UNL     1      51.555  34.063   5.520  0.00  0.00    -0.105 C 
ATOM      4  C   UNL     1      51.769  33.093   4.425  0.00  0.00    +0.426 C 
ATOM      5  C   UNL     1      53.140  32.528   4.319  0.00  0.00    -0.224 C 
ATOM      6  C   UNL     1      53.855  32.326   5.644  0.00  0.00    +0.088 C 
ATOM      7  C   UNL     1      53.699  32.222   3.151  0.00  0.00    -0.042 C 
ATOM      8  C   UNL     1      55.093  31.652   3.108  0.00  0.00    +0.094 C 
ATOM      9  C   UNL     1      52.937  32.446   1.870  0.00  0.00    +0.086 C 
ATOM     10  O   UNL     1      50.878  32.776   3.660  0.00  0.00    -0.454 OA
ATOM     11  C   UNL     1      53.865  33.664   6.388  0.00  0.00    +0.079 C 
ENDROOT
TORSDOF 0
ENDMDL
MODEL 7
REMARK VINA RESULT:      -4.2     20.591     21.731
REMARK  Name = ZINC18157343
REMARK  3 active torsions:
REMARK  status: ('A' for Active; 'I' for Inactive)
REMARK    1  A    between atoms: C1_1  and  C2_2
REMARK    2  A    between atoms: C6_7  and  C7_8
REMARK    3  A    between atoms: C6_7  and  C8_9
REMARK                            x       y       z     vdW  Elec       q    Type
REMARK                         _______ _______ _______ _____ _____    ______ ____
ROOT
ATOM      1  C   UNL     1      51.086  32.373   1.781  0.00  0.00    +0.087 C 
ATOM      2  C   UNL     1      51.690  32.727   3.116  0.00  0.00    -0.035 C 
ATOM      3  C   UNL     1      52.986  32.519   3.276  0.00  0.00    -0.105 C 
ATOM      4  C   UNL     1      53.641  32.823   4.565  0.00  0.00    +0.426 C 
ATOM      5  C   UNL     1      52.787  33.487   5.585  0.00  0.00    -0.224 C 
ATOM      6  C   UNL     1      51.327  33.067   5.572  0.00  0.00    +0.088 C 
ATOM      7  C   UNL     1      53.266  34.383   6.445  0.00  0.00    -0.042 C 
ATOM      8  C   UNL     1      52.349  35.022   7.456  0.00  0.00    +0.094 C 
ATOM      9  C   UNL     1      54.725  34.759   6.408  0.00  0.00    +0.086 C 
ATOM     10  O   UNL     1      54.807  32.546   4.779  0.00  0.00    -0.454 OA
ATOM     11  C   UNL     1      50.780  33.294   4.160  0.00  0.00    +0.079 C 
ENDROOT
TORSDOF 0
ENDMDL
MODEL 8
REMARK VINA RESULT:      -4.1      2.667      5.176
REMARK  Name = ZINC18157343
REMARK  3 active torsions:
REMARK  status: ('A' for Active; 'I' for Inactive)
REMARK    1  A    between atoms: C1_1  and  C2_2
REMARK    2  A    between atoms: C6_7  and  C7_8
REMARK    3  A    between atoms: C6_7  and  C8_9
REMARK                            x       y       z     vdW  Elec       q    Type
REMARK                         _______ _______ _______ _____ _____    ______ ____
ROOT
ATOM      1  C   UNL     1      45.473  15.408  21.335  0.00  0.00    +0.087 C 
ATOM      2  C   UNL     1      44.534  16.577  21.187  0.00  0.00    -0.035 C 
ATOM      3  C   UNL     1      44.705  17.371  20.144  0.00  0.00    -0.105 C 
ATOM      4  C   UNL     1      43.834  18.550  19.948  0.00  0.00    +0.426 C 
ATOM      5  C   UNL     1      42.705  18.687  20.905  0.00  0.00    -0.224 C 
ATOM      6  C   UNL     1      42.995  18.202  22.314  0.00  0.00    +0.088 C 
ATOM      7  C   UNL     1      41.527  19.197  20.552  0.00  0.00    -0.042 C 
ATOM      8  C   UNL     1      40.420  19.310  21.568  0.00  0.00    +0.094 C 
ATOM      9  C   UNL     1      41.300  19.660  19.136  0.00  0.00    +0.086 C 
ATOM     10  O   UNL     1      44.031  19.358  19.059  0.00  0.00    -0.454 OA
ATOM     11  C   UNL     1      43.473  16.750  22.229  0.00  0.00    +0.079 C 
ENDROOT
TORSDOF 0
ENDMDL
MODEL 9
REMARK VINA RESULT:      -4.1      5.660      7.607
REMARK  Name = ZINC18157343
REMARK  3 active torsions:
REMARK  status: ('A' for Active; 'I' for Inactive)
REMARK    1  A    between atoms: C1_1  and  C2_2
REMARK    2  A    between atoms: C6_7  and  C7_8
REMARK    3  A    between atoms: C6_7  and  C8_9
REMARK                            x       y       z     vdW  Elec       q    Type
REMARK                         _______ _______ _______ _____ _____    ______ ____
ROOT
ATOM      1  C   UNL     1      47.203  19.233  20.232  0.00  0.00    +0.087 C 
ATOM      2  C   UNL     1      48.471  19.388  19.432  0.00  0.00    -0.035 C 
ATOM      3  C   UNL     1      49.183  18.299  19.195  0.00  0.00    -0.105 C 
ATOM      4  C   UNL     1      50.448  18.381  18.436  0.00  0.00    +0.426 C 
ATOM      5  C   UNL     1      50.774  19.712  17.860  0.00  0.00    -0.224 C 
ATOM      6  C   UNL     1      50.330  20.899  18.698  0.00  0.00    +0.088 C 
ATOM      7  C   UNL     1      51.407  19.854  16.698  0.00  0.00    -0.042 C 
ATOM      8  C   UNL     1      51.709  21.231  16.167  0.00  0.00    +0.094 C 
ATOM      9  C   UNL     1      51.821  18.636  15.913  0.00  0.00    +0.086 C 
ATOM     10  O   UNL     1      51.178  17.418  18.291  0.00  0.00    -0.454 OA
ATOM     11  C   UNL     1      48.828  20.763  18.959  0.00  0.00    +0.079 C 
ENDROOT
TORSDOF 0
ENDMDL
