MODEL 1
REMARK VINA RESULT:      -5.8      0.000      0.000
REMARK  Name = ZINC28373262
REMARK  3 active torsions:
REMARK  status: ('A' for Active; 'I' for Inactive)
REMARK    1  A    between atoms: C1_1  and  O1_2
REMARK    2  A    between atoms: O1_2  and  C2_3
REMARK    3  A    between atoms: C10_12  and  O4_18
REMARK                            x       y       z     vdW  Elec       q    Type
REMARK                         _______ _______ _______ _____ _____    ______ ____
ROOT
ATOM      3  C   UNL     1      45.587  23.195  20.857  0.00  0.00    +0.108 A 
ATOM      4  C   UNL     1      46.735  22.848  21.545  0.00  0.00    -0.002 A 
ATOM      5  C   UNL     1      46.979  21.528  21.891  0.00  0.00    +0.032 A 
ATOM      6  C   UNL     1      46.070  20.545  21.563  0.00  0.00    +0.080 A 
ATOM      7  C   UNL     1      44.904  20.882  20.874  0.00  0.00    -0.191 A 
ATOM      8  C   UNL     1      43.914  19.847  20.511  0.00  0.00    +0.444 A 
ATOM      9  O   UNL     1      44.080  18.676  20.798  0.00  0.00    -0.451 OA
ATOM     10  C   UNL     1      42.714  20.303  19.786  0.00  0.00    -0.279 A 
ATOM     11  C   UNL     1      41.723  19.397  19.401  0.00  0.00    +0.162 A 
ATOM     12  C   UNL     1      40.620  19.841  18.730  0.00  0.00    -0.105 A 
ATOM     13  C   UNL     1      40.480  21.194  18.427  0.00  0.00    +0.231 A 
ATOM     16  C   UNL     1      41.453  22.104  18.802  0.00  0.00    -0.051 A 
ATOM     17  C   UNL     1      42.583  21.670  19.485  0.00  0.00    +0.214 A 
ATOM     18  O   UNL     1      43.531  22.556  19.850  0.00  0.00    -0.218 OA
ATOM     19  C   UNL     1      44.653  22.214  20.515  0.00  0.00    +0.134 A 
ENDROOT
BRANCH   3   2
ATOM      1  C   UNL     1      46.186  25.478  21.147  0.00  0.00    +0.248 C 
ATOM      2  O   UNL     1      45.363  24.493  20.519  0.00  0.00    -0.304 OA
ENDBRANCH   3   2
BRANCH  13  14
ATOM     14  O   UNL     1      39.379  21.623  17.760  0.00  0.00    -0.498 OA
ATOM     15  H   UNL     1      38.640  22.260  18.268  0.00  0.00    +0.446 HD
ENDBRANCH  13  14
TORSDOF 2
ENDMDL
MODEL 2
REMARK VINA RESULT:      -5.3      2.805      3.894
REMARK  Name = ZINC28373262
REMARK  3 active torsions:
REMARK  status: ('A' for Active; 'I' for Inactive)
REMARK    1  A    between atoms: C1_1  and  O1_2
REMARK    2  A    between atoms: O1_2  and  C2_3
REMARK    3  A    between atoms: C10_12  and  O4_18
REMARK                            x       y       z     vdW  Elec       q    Type
REMARK                         _______ _______ _______ _____ _____    ______ ____
ROOT
ATOM      3  C   UNL     1      45.480  18.258  21.331  0.00  0.00    +0.108 A 
ATOM      4  C   UNL     1      45.628  17.111  22.089  0.00  0.00    -0.002 A 
ATOM      5  C   UNL     1      44.518  16.392  22.505  0.00  0.00    +0.032 A 
ATOM      6  C   UNL     1      43.250  16.821  22.177  0.00  0.00    +0.080 A 
ATOM      7  C   UNL     1      43.086  17.980  21.418  0.00  0.00    -0.191 A 
ATOM      8  C   UNL     1      41.737  18.460  21.052  0.00  0.00    +0.444 A 
ATOM      9  O   UNL     1      40.733  17.867  21.399  0.00  0.00    -0.451 OA
ATOM     10  C   UNL     1      41.668  19.695  20.249  0.00  0.00    -0.279 A 
ATOM     11  C   UNL     1      40.438  20.225  19.856  0.00  0.00    +0.162 A 
ATOM     12  C   UNL     1      40.397  21.369  19.112  0.00  0.00    -0.105 A 
ATOM     13  C   UNL     1      41.578  22.009  18.743  0.00  0.00    +0.231 A 
ATOM     16  C   UNL     1      42.806  21.495  19.124  0.00  0.00    -0.051 A 
ATOM     17  C   UNL     1      42.866  20.331  19.881  0.00  0.00    +0.214 A 
ATOM     18  O   UNL     1      44.061  19.831  20.253  0.00  0.00    -0.218 OA
ATOM     19  C   UNL     1      44.204  18.709  20.987  0.00  0.00    +0.134 A 
ENDROOT
BRANCH   3   2
ATOM      1  C   UNL     1      47.474  18.280  20.036  0.00  0.00    +0.248 C 
ATOM      2  O   UNL     1      46.577  18.950  20.924  0.00  0.00    -0.304 OA
ENDBRANCH   3   2
BRANCH  13  14
ATOM     14  O   UNL     1      41.525  23.145  18.003  0.00  0.00    -0.498 OA
ATOM     15  H   UNL     1      42.099  24.031  18.312  0.00  0.00    +0.446 HD
ENDBRANCH  13  14
TORSDOF 2
ENDMDL
MODEL 3
REMARK VINA RESULT:      -5.2      1.545      3.860
REMARK  Name = ZINC28373262
REMARK  3 active torsions:
REMARK  status: ('A' for Active; 'I' for Inactive)
REMARK    1  A    between atoms: C1_1  and  O1_2
REMARK    2  A    between atoms: O1_2  and  C2_3
REMARK    3  A    between atoms: C10_12  and  O4_18
REMARK                            x       y       z     vdW  Elec       q    Type
REMARK                         _______ _______ _______ _____ _____    ______ ____
ROOT
ATOM      3  C   UNL     1      44.707  18.220  21.210  0.00  0.00    +0.108 A 
ATOM      4  C   UNL     1      45.990  18.272  21.725  0.00  0.00    -0.002 A 
ATOM      5  C   UNL     1      46.718  19.450  21.690  0.00  0.00    +0.032 A 
ATOM      6  C   UNL     1      46.174  20.586  21.128  0.00  0.00    +0.080 A 
ATOM      7  C   UNL     1      44.884  20.546  20.600  0.00  0.00    -0.191 A 
ATOM      8  C   UNL     1      44.278  21.750  19.992  0.00  0.00    +0.444 A 
ATOM      9  O   UNL     1      44.880  22.806  19.932  0.00  0.00    -0.451 OA
ATOM     10  C   UNL     1      42.910  21.607  19.460  0.00  0.00    -0.279 A 
ATOM     11  C   UNL     1      42.257  22.689  18.867  0.00  0.00    +0.162 A 
ATOM     12  C   UNL     1      40.990  22.535  18.382  0.00  0.00    -0.105 A 
ATOM     13  C   UNL     1      40.348  21.302  18.475  0.00  0.00    +0.231 A 
ATOM     16  C   UNL     1      40.983  20.220  19.060  0.00  0.00    -0.051 A 
ATOM     17  C   UNL     1      42.272  20.359  19.560  0.00  0.00    +0.214 A 
ATOM     18  O   UNL     1      42.890  19.306  20.130  0.00  0.00    -0.218 OA
ATOM     19  C   UNL     1      44.138  19.359  20.637  0.00  0.00    +0.134 A 
ENDROOT
BRANCH   3   2
ATOM      1  C   UNL     1      43.977  16.365  22.505  0.00  0.00    +0.248 C 
ATOM      2  O   UNL     1      44.002  17.059  21.257  0.00  0.00    -0.304 OA
ENDBRANCH   3   2
BRANCH  13  14
ATOM     14  O   UNL     1      39.088  21.161  17.989  0.00  0.00    -0.498 OA
ATOM     15  H   UNL     1      38.346  21.959  18.143  0.00  0.00    +0.446 HD
ENDBRANCH  13  14
TORSDOF 2
ENDMDL
MODEL 4
REMARK VINA RESULT:      -5.2     20.430     22.536
REMARK  Name = ZINC28373262
REMARK  3 active torsions:
REMARK  status: ('A' for Active; 'I' for Inactive)
REMARK    1  A    between atoms: C1_1  and  O1_2
REMARK    2  A    between atoms: O1_2  and  C2_3
REMARK    3  A    between atoms: C10_12  and  O4_18
REMARK                            x       y       z     vdW  Elec       q    Type
REMARK                         _______ _______ _______ _____ _____    ______ ____
ROOT
ATOM      3  C   UNL     1      57.860  33.271   4.695  0.00  0.00    +0.108 A 
ATOM      4  C   UNL     1      58.567  32.491   3.797  0.00  0.00    -0.002 A 
ATOM      5  C   UNL     1      57.909  31.595   2.970  0.00  0.00    +0.032 A 
ATOM      6  C   UNL     1      56.539  31.460   3.042  0.00  0.00    +0.080 A 
ATOM      7  C   UNL     1      55.814  32.236   3.947  0.00  0.00    -0.191 A 
ATOM      8  C   UNL     1      54.345  32.112   4.043  0.00  0.00    +0.444 A 
ATOM      9  O   UNL     1      53.723  31.335   3.343  0.00  0.00    -0.451 OA
ATOM     10  C   UNL     1      53.669  32.974   5.031  0.00  0.00    -0.279 A 
ATOM     11  C   UNL     1      52.283  32.925   5.193  0.00  0.00    +0.162 A 
ATOM     12  C   UNL     1      51.679  33.733   6.113  0.00  0.00    -0.105 A 
ATOM     13  C   UNL     1      52.439  34.604   6.891  0.00  0.00    +0.231 A 
ATOM     16  C   UNL     1      53.814  34.663   6.741  0.00  0.00    -0.051 A 
ATOM     17  C   UNL     1      54.446  33.849   5.809  0.00  0.00    +0.214 A 
ATOM     18  O   UNL     1      55.785  33.907   5.663  0.00  0.00    -0.218 OA
ATOM     19  C   UNL     1      56.472  33.150   4.782  0.00  0.00    +0.134 A 
ENDROOT
BRANCH   3   2
ATOM      1  C   UNL     1      59.011  35.343   4.882  0.00  0.00    +0.248 C 
ATOM      2  O   UNL     1      58.518  34.150   5.496  0.00  0.00    -0.304 OA
ENDBRANCH   3   2
BRANCH  13  14
ATOM     14  O   UNL     1      51.826  35.401   7.802  0.00  0.00    -0.498 OA
ATOM     15  H   UNL     1      52.385  36.218   8.283  0.00  0.00    +0.446 HD
ENDBRANCH  13  14
TORSDOF 2
ENDMDL
MODEL 5
REMARK VINA RESULT:      -5.1      3.734      5.815
REMARK  Name = ZINC28373262
REMARK  3 active torsions:
REMARK  status: ('A' for Active; 'I' for Inactive)
REMARK    1  A    between atoms: C1_1  and  O1_2
REMARK    2  A    between atoms: O1_2  and  C2_3
REMARK    3  A    between atoms: C10_12  and  O4_18
REMARK                            x       y       z     vdW  Elec       q    Type
REMARK                         _______ _______ _______ _____ _____    ______ ____
ROOT
ATOM      3  C   UNL     1      43.735  20.662  19.048  0.00  0.00    +0.108 A 
ATOM      4  C   UNL     1      43.578  21.844  19.747  0.00  0.00    -0.002 A 
ATOM      5  C   UNL     1      44.675  22.496  20.288  0.00  0.00    +0.032 A 
ATOM      6  C   UNL     1      45.939  21.963  20.146  0.00  0.00    +0.080 A 
ATOM      7  C   UNL     1      46.111  20.767  19.448  0.00  0.00    -0.191 A 
ATOM      8  C   UNL     1      47.454  20.175  19.282  0.00  0.00    +0.444 A 
ATOM      9  O   UNL     1      48.448  20.706  19.744  0.00  0.00    -0.451 OA
ATOM     10  C   UNL     1      47.533  18.909  18.530  0.00  0.00    -0.279 A 
ATOM     11  C   UNL     1      48.760  18.276  18.322  0.00  0.00    +0.162 A 
ATOM     12  C   UNL     1      48.809  17.104  17.623  0.00  0.00    -0.105 A 
ATOM     13  C   UNL     1      47.641  16.539  17.116  0.00  0.00    +0.231 A 
ATOM     16  C   UNL     1      46.417  17.155  17.315  0.00  0.00    -0.051 A 
ATOM     17  C   UNL     1      46.348  18.348  18.023  0.00  0.00    +0.214 A 
ATOM     18  O   UNL     1      45.157  18.949  18.216  0.00  0.00    -0.218 OA
ATOM     19  C   UNL     1      45.007  20.106  18.892  0.00  0.00    +0.134 A 
ENDROOT
BRANCH   3   2
ATOM      1  C   UNL     1      41.421  20.764  18.512  0.00  0.00    +0.248 C 
ATOM      2  O   UNL     1      42.651  20.037  18.517  0.00  0.00    -0.304 OA
ENDBRANCH   3   2
BRANCH  13  14
ATOM     14  O   UNL     1      47.703  15.374  16.423  0.00  0.00    -0.498 OA
ATOM     15  H   UNL     1      47.149  15.264  15.479  0.00  0.00    +0.446 HD
ENDBRANCH  13  14
TORSDOF 2
ENDMDL
MODEL 6
REMARK VINA RESULT:      -5.1      7.503      9.859
REMARK  Name = ZINC28373262
REMARK  3 active torsions:
REMARK  status: ('A' for Active; 'I' for Inactive)
REMARK    1  A    between atoms: C1_1  and  O1_2
REMARK    2  A    between atoms: O1_2  and  C2_3
REMARK    3  A    between atoms: C10_12  and  O4_18
REMARK                            x       y       z     vdW  Elec       q    Type
REMARK                         _______ _______ _______ _____ _____    ______ ____
ROOT
ATOM      3  C   UNL     1      50.517  14.849  16.933  0.00  0.00    +0.108 A 
ATOM      4  C   UNL     1      49.814  13.889  17.638  0.00  0.00    -0.002 A 
ATOM      5  C   UNL     1      49.025  14.244  18.721  0.00  0.00    +0.032 A 
ATOM      6  C   UNL     1      48.941  15.562  19.116  0.00  0.00    +0.080 A 
ATOM      7  C   UNL     1      49.649  16.540  18.417  0.00  0.00    -0.191 A 
ATOM      8  C   UNL     1      49.576  17.960  18.820  0.00  0.00    +0.444 A 
ATOM      9  O   UNL     1      48.902  18.321  19.768  0.00  0.00    -0.451 OA
ATOM     10  C   UNL     1      50.361  18.918  18.020  0.00  0.00    -0.279 A 
ATOM     11  C   UNL     1      50.354  20.280  18.326  0.00  0.00    +0.162 A 
ATOM     12  C   UNL     1      51.089  21.150  17.572  0.00  0.00    -0.105 A 
ATOM     13  C   UNL     1      51.844  20.683  16.498  0.00  0.00    +0.231 A 
ATOM     16  C   UNL     1      51.861  19.335  16.182  0.00  0.00    -0.051 A 
ATOM     17  C   UNL     1      51.119  18.436  16.939  0.00  0.00    +0.214 A 
ATOM     18  O   UNL     1      51.135  17.124  16.632  0.00  0.00    -0.218 OA
ATOM     19  C   UNL     1      50.444  16.190  17.317  0.00  0.00    +0.134 A 
ENDROOT
BRANCH   3   2
ATOM      1  C   UNL     1      50.988  13.230  15.256  0.00  0.00    +0.248 C 
ATOM      2  O   UNL     1      51.282  14.487  15.869  0.00  0.00    -0.304 OA
ENDBRANCH   3   2
BRANCH  13  14
ATOM     14  O   UNL     1      52.569  21.557  15.756  0.00  0.00    -0.498 OA
ATOM     15  H   UNL     1      52.579  22.626  16.016  0.00  0.00    +0.446 HD
ENDBRANCH  13  14
TORSDOF 2
ENDMDL
MODEL 7
REMARK VINA RESULT:      -5.0      3.926      5.608
REMARK  Name = ZINC28373262
REMARK  3 active torsions:
REMARK  status: ('A' for Active; 'I' for Inactive)
REMARK    1  A    between atoms: C1_1  and  O1_2
REMARK    2  A    between atoms: O1_2  and  C2_3
REMARK    3  A    between atoms: C10_12  and  O4_18
REMARK                            x       y       z     vdW  Elec       q    Type
REMARK                         _______ _______ _______ _____ _____    ______ ____
ROOT
ATOM      3  C   UNL     1      47.344  17.252  17.366  0.00  0.00    +0.108 A 
ATOM      4  C   UNL     1      48.688  16.934  17.305  0.00  0.00    -0.002 A 
ATOM      5  C   UNL     1      49.632  17.729  17.935  0.00  0.00    +0.032 A 
ATOM      6  C   UNL     1      49.241  18.859  18.622  0.00  0.00    +0.080 A 
ATOM      7  C   UNL     1      47.889  19.195  18.687  0.00  0.00    -0.191 A 
ATOM      8  C   UNL     1      47.443  20.400  19.418  0.00  0.00    +0.444 A 
ATOM      9  O   UNL     1      48.235  21.133  19.982  0.00  0.00    -0.451 OA
ATOM     10  C   UNL     1      45.994  20.671  19.428  0.00  0.00    -0.279 A 
ATOM     11  C   UNL     1      45.480  21.787  20.092  0.00  0.00    +0.162 A 
ATOM     12  C   UNL     1      44.134  22.019  20.090  0.00  0.00    -0.105 A 
ATOM     13  C   UNL     1      43.273  21.147  19.427  0.00  0.00    +0.231 A 
ATOM     16  C   UNL     1      43.768  20.037  18.764  0.00  0.00    -0.051 A 
ATOM     17  C   UNL     1      45.135  19.785  18.757  0.00  0.00    +0.214 A 
ATOM     18  O   UNL     1      45.616  18.704  18.112  0.00  0.00    -0.218 OA
ATOM     19  C   UNL     1      46.927  18.391  18.058  0.00  0.00    +0.134 A 
ENDROOT
BRANCH   3   2
ATOM      1  C   UNL     1      46.745  15.070  16.636  0.00  0.00    +0.248 C 
ATOM      2  O   UNL     1      46.429  16.459  16.749  0.00  0.00    -0.304 OA
ENDBRANCH   3   2
BRANCH  13  14
ATOM     14  O   UNL     1      41.938  21.388  19.431  0.00  0.00    -0.498 OA
ATOM     15  H   UNL     1      41.227  20.553  19.339  0.00  0.00    +0.446 HD
ENDBRANCH  13  14
TORSDOF 2
ENDMDL
MODEL 8
REMARK VINA RESULT:      -5.0      4.445      6.521
REMARK  Name = ZINC28373262
REMARK  3 active torsions:
REMARK  status: ('A' for Active; 'I' for Inactive)
REMARK    1  A    between atoms: C1_1  and  O1_2
REMARK    2  A    between atoms: O1_2  and  C2_3
REMARK    3  A    between atoms: C10_12  and  O4_18
REMARK                            x       y       z     vdW  Elec       q    Type
REMARK                         _______ _______ _______ _____ _____    ______ ____
ROOT
ATOM      3  C   UNL     1      43.657  18.817  20.070  0.00  0.00    +0.108 A 
ATOM      4  C   UNL     1      42.901  19.061  21.201  0.00  0.00    -0.002 A 
ATOM      5  C   UNL     1      42.861  18.141  22.237  0.00  0.00    +0.032 A 
ATOM      6  C   UNL     1      43.569  16.961  22.144  0.00  0.00    +0.080 A 
ATOM      7  C   UNL     1      44.332  16.699  21.006  0.00  0.00    -0.191 A 
ATOM      8  C   UNL     1      45.099  15.443  20.882  0.00  0.00    +0.444 A 
ATOM      9  O   UNL     1      45.092  14.601  21.762  0.00  0.00    -0.451 OA
ATOM     10  C   UNL     1      45.873  15.257  19.641  0.00  0.00    -0.279 A 
ATOM     11  C   UNL     1      46.629  14.102  19.434  0.00  0.00    +0.162 A 
ATOM     12  C   UNL     1      47.338  13.951  18.277  0.00  0.00    -0.105 A 
ATOM     13  C   UNL     1      47.310  14.947  17.302  0.00  0.00    +0.231 A 
ATOM     16  C   UNL     1      46.566  16.098  17.492  0.00  0.00    -0.051 A 
ATOM     17  C   UNL     1      45.838  16.268  18.664  0.00  0.00    +0.214 A 
ATOM     18  O   UNL     1      45.114  17.389  18.850  0.00  0.00    -0.218 OA
ATOM     19  C   UNL     1      44.382  17.629  19.957  0.00  0.00    +0.134 A 
ENDROOT
BRANCH   3   2
ATOM      1  C   UNL     1      42.467  20.401  18.755  0.00  0.00    +0.248 C 
ATOM      2  O   UNL     1      43.691  19.731  19.065  0.00  0.00    -0.304 OA
ENDBRANCH   3   2
BRANCH  13  14
ATOM     14  O   UNL     1      48.020  14.785  16.157  0.00  0.00    -0.498 OA
ATOM     15  H   UNL     1      47.496  14.654  15.198  0.00  0.00    +0.446 HD
ENDBRANCH  13  14
TORSDOF 2
ENDMDL
MODEL 9
REMARK VINA RESULT:      -5.0      3.735      4.595
REMARK  Name = ZINC28373262
REMARK  3 active torsions:
REMARK  status: ('A' for Active; 'I' for Inactive)
REMARK    1  A    between atoms: C1_1  and  O1_2
REMARK    2  A    between atoms: O1_2  and  C2_3
REMARK    3  A    between atoms: C10_12  and  O4_18
REMARK                            x       y       z     vdW  Elec       q    Type
REMARK                         _______ _______ _______ _____ _____    ______ ____
ROOT
ATOM      3  C   UNL     1      49.498  19.967  18.756  0.00  0.00    +0.108 A 
ATOM      4  C   UNL     1      50.263  18.877  18.386  0.00  0.00    -0.002 A 
ATOM      5  C   UNL     1      49.663  17.673  18.053  0.00  0.00    +0.032 A 
ATOM      6  C   UNL     1      48.291  17.545  18.100  0.00  0.00    +0.080 A 
ATOM      7  C   UNL     1      47.507  18.636  18.478  0.00  0.00    -0.191 A 
ATOM      8  C   UNL     1      46.035  18.525  18.536  0.00  0.00    +0.444 A 
ATOM      9  O   UNL     1      45.461  17.487  18.258  0.00  0.00    -0.451 OA
ATOM     10  C   UNL     1      45.294  19.732  18.947  0.00  0.00    -0.279 A 
ATOM     11  C   UNL     1      43.901  19.722  19.032  0.00  0.00    +0.162 A 
ATOM     12  C   UNL     1      43.235  20.851  19.415  0.00  0.00    -0.105 A 
ATOM     13  C   UNL     1      43.942  22.012  19.722  0.00  0.00    +0.231 A 
ATOM     16  C   UNL     1      45.324  22.037  19.643  0.00  0.00    -0.051 A 
ATOM     17  C   UNL     1      46.017  20.897  19.254  0.00  0.00    +0.214 A 
ATOM     18  O   UNL     1      47.362  20.921  19.177  0.00  0.00    -0.218 OA
ATOM     19  C   UNL     1      48.107  19.859  18.809  0.00  0.00    +0.134 A 
ENDROOT
BRANCH   3   2
ATOM      1  C   UNL     1      51.524  21.131  19.199  0.00  0.00    +0.248 C 
ATOM      2  O   UNL     1      50.100  21.144  19.074  0.00  0.00    -0.304 OA
ENDBRANCH   3   2
BRANCH  13  14
ATOM     14  O   UNL     1      43.269  23.128  20.101  0.00  0.00    -0.498 OA
ATOM     15  H   UNL     1      42.671  23.687  19.367  0.00  0.00    +0.446 HD
ENDBRANCH  13  14
TORSDOF 2
ENDMDL
