MODEL 1
REMARK VINA RESULT:      -6.1      0.000      0.000
REMARK  Name = ZINC03830747
REMARK  12 active torsions:
REMARK  status: ('A' for Active; 'I' for Inactive)
REMARK    1  A    between atoms: C1_1  and  C2_2
REMARK    2  A    between atoms: C2_2  and  C3_3
REMARK    3  A    between atoms: C9_11  and  O4_38
REMARK    4  A    between atoms: C10_12  and  O3_36
REMARK    5  A    between atoms: C15_18  and  C16_20
REMARK    6  A    between atoms: C16_20  and  C17_21
REMARK    7  A    between atoms: C20_25  and  O2_34
REMARK    8  A    between atoms: C21_26  and  O1_32
REMARK    9  A    between atoms: O1_32  and  C26_33
REMARK   10  A    between atoms: O2_34  and  C27_35
REMARK   11  A    between atoms: O3_36  and  C28_37
REMARK   12  A    between atoms: O4_38  and  C29_39
REMARK                            x       y       z     vdW  Elec       q    Type
REMARK                         _______ _______ _______ _____ _____    ______ ____
ROOT
ATOM      3  C   UNL     1      50.967  17.639  17.141  0.00  0.00    -0.007 C 
ATOM      4  C   UNL     1      51.569  16.254  16.890  0.00  0.00    +0.260 C 
ATOM      5  N   UNL     1      50.507  15.327  16.484  0.00  0.00    -0.378 N 
ATOM      6  H   UNL     1      50.035  15.693  15.671  0.00  0.00    +0.422 HD
ATOM      7  C   UNL     1      51.082  14.015  16.157  0.00  0.00    +0.267 C 
ATOM      8  C   UNL     1      50.017  13.179  15.446  0.00  0.00    +0.124 C 
ATOM      9  C   UNL     1      48.737  13.191  16.244  0.00  0.00    -0.083 A 
ATOM     10  C   UNL     1      47.773  12.236  15.963  0.00  0.00    -0.020 A 
ATOM     11  C   UNL     1      46.584  12.214  16.670  0.00  0.00    +0.132 A 
ATOM     14  C   UNL     1      46.357  13.159  17.667  0.00  0.00    +0.118 A 
ATOM     17  C   UNL     1      47.323  14.109  17.944  0.00  0.00    -0.010 A 
ATOM     18  C   UNL     1      48.515  14.126  17.234  0.00  0.00    -0.125 A 
ATOM     19  C   UNL     1      49.542  15.170  17.575  0.00  0.00    +0.230 C 
ATOM     20  C   UNL     1      48.854  16.510  17.847  0.00  0.00    +0.063 C 
ATOM     21  C   UNL     1      49.913  17.543  18.246  0.00  0.00    -0.003 C 
ENDROOT
BRANCH   3   2
ATOM      1  C   UNL     1      52.278  19.662  16.483  0.00  0.00    +0.017 C 
ATOM      2  C   UNL     1      52.072  18.606  17.571  0.00  0.00    +0.046 C 
ENDBRANCH   3   2
BRANCH  11  12
ATOM     12  O   UNL     1      45.640  11.274  16.391  0.00  0.00    -0.296 OA
ATOM     13  C   UNL     1      45.818  10.511  15.197  0.00  0.00    +0.253 C 
ENDBRANCH  11  12
BRANCH  14  15
ATOM     15  O   UNL     1      45.191  13.146  18.366  0.00  0.00    -0.295 OA
ATOM     16  C   UNL     1      45.220  13.694  19.686  0.00  0.00    +0.248 C 
ENDBRANCH  14  15
BRANCH  21  22
ATOM     22  C   UNL     1      49.248  18.908  18.439  0.00  0.00    +0.060 C 
BRANCH  22  23
ATOM     23  C   UNL     1      49.028  19.162  19.931  0.00  0.00    +0.183 C 
ATOM     24  C   UNL     1      47.886  20.128  20.108  0.00  0.00    -0.084 A 
ATOM     25  C   UNL     1      46.759  19.968  19.313  0.00  0.00    -0.038 A 
ATOM     26  C   UNL     1      45.684  20.828  19.442  0.00  0.00    +0.099 A 
ATOM     29  C   UNL     1      45.733  21.859  20.375  0.00  0.00    +0.112 A 
ATOM     32  C   UNL     1      46.859  22.017  21.164  0.00  0.00    -0.038 A 
ATOM     33  C   UNL     1      47.936  21.153  21.028  0.00  0.00    -0.058 A 
ATOM     34  C   UNL     1      49.144  21.373  21.902  0.00  0.00    +0.089 C 
ATOM     35  C   UNL     1      50.019  20.118  21.909  0.00  0.00    +0.178 C 
ATOM     36  N   UNL     1      50.257  19.708  20.516  0.00  0.00    -0.676 NA
ATOM     37  H   UNL     1      51.011  19.041  20.460  0.00  0.00    +0.340 HD
BRANCH  26  27
ATOM     27  O   UNL     1      44.583  20.666  18.661  0.00  0.00    -0.303 OA
ATOM     28  C   UNL     1      43.613  19.711  19.097  0.00  0.00    +0.235 C 
ENDBRANCH  26  27
BRANCH  29  30
ATOM     30  O   UNL     1      44.679  22.708  20.512  0.00  0.00    -0.304 OA
ATOM     31  C   UNL     1      44.660  23.860  19.666  0.00  0.00    +0.243 C 
ENDBRANCH  29  30
ENDBRANCH  22  23
ENDBRANCH  21  22
TORSDOF 7
ENDMDL
MODEL 2
REMARK VINA RESULT:      -6.1      3.185      5.569
REMARK  Name = ZINC03830747
REMARK  12 active torsions:
REMARK  status: ('A' for Active; 'I' for Inactive)
REMARK    1  A    between atoms: C1_1  and  C2_2
REMARK    2  A    between atoms: C2_2  and  C3_3
REMARK    3  A    between atoms: C9_11  and  O4_38
REMARK    4  A    between atoms: C10_12  and  O3_36
REMARK    5  A    between atoms: C15_18  and  C16_20
REMARK    6  A    between atoms: C16_20  and  C17_21
REMARK    7  A    between atoms: C20_25  and  O2_34
REMARK    8  A    between atoms: C21_26  and  O1_32
REMARK    9  A    between atoms: O1_32  and  C26_33
REMARK   10  A    between atoms: O2_34  and  C27_35
REMARK   11  A    between atoms: O3_36  and  C28_37
REMARK   12  A    between atoms: O4_38  and  C29_39
REMARK                            x       y       z     vdW  Elec       q    Type
REMARK                         _______ _______ _______ _____ _____    ______ ____
ROOT
ATOM      3  C   UNL     1      46.204  14.501  19.204  0.00  0.00    -0.007 C 
ATOM      4  C   UNL     1      45.515  13.373  18.431  0.00  0.00    +0.260 C 
ATOM      5  N   UNL     1      46.525  12.587  17.711  0.00  0.00    -0.378 N 
ATOM      6  H   UNL     1      47.209  12.242  18.367  0.00  0.00    +0.422 HD
ATOM      7  C   UNL     1      45.888  11.450  17.035  0.00  0.00    +0.267 C 
ATOM      8  C   UNL     1      46.980  10.488  16.566  0.00  0.00    +0.124 C 
ATOM      9  C   UNL     1      48.036  11.243  15.799  0.00  0.00    -0.083 A 
ATOM     10  C   UNL     1      48.919  10.526  15.007  0.00  0.00    -0.020 A 
ATOM     11  C   UNL     1      49.904  11.181  14.289  0.00  0.00    +0.132 A 
ATOM     14  C   UNL     1      50.008  12.567  14.367  0.00  0.00    +0.118 A 
ATOM     17  C   UNL     1      49.124  13.277  15.159  0.00  0.00    -0.010 A 
ATOM     18  C   UNL     1      48.136  12.616  15.875  0.00  0.00    -0.125 A 
ATOM     19  C   UNL     1      47.189  13.430  16.715  0.00  0.00    +0.230 C 
ATOM     20  C   UNL     1      47.951  14.554  17.420  0.00  0.00    +0.063 C 
ATOM     21  C   UNL     1      46.960  15.401  18.224  0.00  0.00    -0.003 C 
ENDROOT
BRANCH   3   2
ATOM      1  C   UNL     1      45.222  15.008  21.445  0.00  0.00    +0.017 C 
ATOM      2  C   UNL     1      45.153  15.325  19.949  0.00  0.00    +0.046 C 
ENDBRANCH   3   2
BRANCH  11  12
ATOM     12  O   UNL     1      50.768  10.473  13.512  0.00  0.00    -0.296 OA
ATOM     13  C   UNL     1      52.088  10.277  14.022  0.00  0.00    +0.253 C 
ENDBRANCH  11  12
BRANCH  14  15
ATOM     15  O   UNL     1      50.974  13.219  13.667  0.00  0.00    -0.295 OA
ATOM     16  C   UNL     1      51.902  14.004  14.420  0.00  0.00    +0.248 C 
ENDBRANCH  14  15
BRANCH  21  22
ATOM     22  C   UNL     1      47.720  16.478  19.001  0.00  0.00    +0.060 C 
BRANCH  22  23
ATOM     23  C   UNL     1      47.442  17.848  18.379  0.00  0.00    +0.183 C 
ATOM     24  C   UNL     1      48.685  18.695  18.468  0.00  0.00    -0.084 A 
ATOM     25  C   UNL     1      49.908  18.102  18.188  0.00  0.00    -0.038 A 
ATOM     26  C   UNL     1      51.075  18.840  18.253  0.00  0.00    +0.099 A 
ATOM     29  C   UNL     1      51.022  20.187  18.600  0.00  0.00    +0.112 A 
ATOM     32  C   UNL     1      49.801  20.774  18.880  0.00  0.00    -0.038 A 
ATOM     33  C   UNL     1      48.633  20.028  18.816  0.00  0.00    -0.058 A 
ATOM     34  C   UNL     1      47.329  20.710  19.142  0.00  0.00    +0.089 C 
ATOM     35  C   UNL     1      46.158  19.872  18.625  0.00  0.00    +0.178 C 
ATOM     36  N   UNL     1      46.333  18.488  19.093  0.00  0.00    -0.676 NA
ATOM     37  H   UNL     1      45.481  17.960  18.984  0.00  0.00    +0.340 HD
BRANCH  26  27
ATOM     27  O   UNL     1      52.270  18.253  17.977  0.00  0.00    -0.303 OA
ATOM     28  C   UNL     1      52.559  17.023  18.645  0.00  0.00    +0.235 C 
ENDBRANCH  26  27
BRANCH  29  30
ATOM     30  O   UNL     1      52.164  20.922  18.663  0.00  0.00    -0.304 OA
ATOM     31  C   UNL     1      52.521  21.458  19.939  0.00  0.00    +0.243 C 
ENDBRANCH  29  30
ENDBRANCH  22  23
ENDBRANCH  21  22
TORSDOF 7
ENDMDL
MODEL 3
REMARK VINA RESULT:      -5.9      2.053      3.071
REMARK  Name = ZINC03830747
REMARK  12 active torsions:
REMARK  status: ('A' for Active; 'I' for Inactive)
REMARK    1  A    between atoms: C1_1  and  C2_2
REMARK    2  A    between atoms: C2_2  and  C3_3
REMARK    3  A    between atoms: C9_11  and  O4_38
REMARK    4  A    between atoms: C10_12  and  O3_36
REMARK    5  A    between atoms: C15_18  and  C16_20
REMARK    6  A    between atoms: C16_20  and  C17_21
REMARK    7  A    between atoms: C20_25  and  O2_34
REMARK    8  A    between atoms: C21_26  and  O1_32
REMARK    9  A    between atoms: O1_32  and  C26_33
REMARK   10  A    between atoms: O2_34  and  C27_35
REMARK   11  A    between atoms: O3_36  and  C28_37
REMARK   12  A    between atoms: O4_38  and  C29_39
REMARK                            x       y       z     vdW  Elec       q    Type
REMARK                         _______ _______ _______ _____ _____    ______ ____
ROOT
ATOM      3  C   UNL     1      50.302  19.937  18.593  0.00  0.00    -0.007 C 
ATOM      4  C   UNL     1      51.402  18.875  18.506  0.00  0.00    +0.260 C 
ATOM      5  N   UNL     1      50.904  17.718  17.754  0.00  0.00    -0.378 N 
ATOM      6  H   UNL     1      50.589  18.020  16.844  0.00  0.00    +0.422 HD
ATOM      7  C   UNL     1      51.976  16.727  17.588  0.00  0.00    +0.267 C 
ATOM      8  C   UNL     1      51.532  15.697  16.549  0.00  0.00    +0.124 C 
ATOM      9  C   UNL     1      50.160  15.176  16.895  0.00  0.00    -0.083 A 
ATOM     10  C   UNL     1      49.723  14.007  16.292  0.00  0.00    -0.020 A 
ATOM     11  C   UNL     1      48.470  13.497  16.581  0.00  0.00    +0.132 A 
ATOM     14  C   UNL     1      47.644  14.165  17.482  0.00  0.00    +0.118 A 
ATOM     17  C   UNL     1      48.085  15.331  18.081  0.00  0.00    -0.010 A 
ATOM     18  C   UNL     1      49.344  15.837  17.791  0.00  0.00    -0.125 A 
ATOM     19  C   UNL     1      49.788  17.102  18.474  0.00  0.00    +0.230 C 
ATOM     20  C   UNL     1      48.621  18.089  18.552  0.00  0.00    +0.063 C 
ATOM     21  C   UNL     1      49.080  19.345  19.300  0.00  0.00    -0.003 C 
ENDROOT
BRANCH   3   2
ATOM      1  C   UNL     1      52.338  21.049  19.521  0.00  0.00    +0.017 C 
ATOM      2  C   UNL     1      50.817  21.141  19.383  0.00  0.00    +0.046 C 
ENDBRANCH   3   2
BRANCH  11  12
ATOM     12  O   UNL     1      48.045  12.349  15.987  0.00  0.00    -0.296 OA
ATOM     13  C   UNL     1      47.804  12.398  14.580  0.00  0.00    +0.253 C 
ENDBRANCH  11  12
BRANCH  14  15
ATOM     15  O   UNL     1      46.410  13.673  17.771  0.00  0.00    -0.295 OA
ATOM     16  C   UNL     1      46.289  12.878  18.952  0.00  0.00    +0.248 C 
ENDBRANCH  14  15
BRANCH  21  22
ATOM     22  C   UNL     1      47.948  20.376  19.312  0.00  0.00    +0.060 C 
BRANCH  22  23
ATOM     23  C   UNL     1      47.501  20.625  20.753  0.00  0.00    +0.183 C 
ATOM     24  C   UNL     1      46.135  20.025  20.961  0.00  0.00    -0.084 A 
ATOM     25  C   UNL     1      45.876  18.773  20.419  0.00  0.00    -0.038 A 
ATOM     26  C   UNL     1      44.638  18.180  20.586  0.00  0.00    +0.099 A 
ATOM     29  C   UNL     1      43.647  18.842  21.304  0.00  0.00    +0.112 A 
ATOM     32  C   UNL     1      43.908  20.090  21.841  0.00  0.00    -0.038 A 
ATOM     33  C   UNL     1      45.151  20.682  21.668  0.00  0.00    -0.058 A 
ATOM     34  C   UNL     1      45.383  22.048  22.262  0.00  0.00    +0.089 C 
ATOM     35  C   UNL     1      46.882  22.340  22.329  0.00  0.00    +0.178 C 
ATOM     36  N   UNL     1      47.470  22.069  21.008  0.00  0.00    -0.676 NA
ATOM     37  H   UNL     1      48.393  22.468  20.934  0.00  0.00    +0.340 HD
BRANCH  26  27
ATOM     27  O   UNL     1      44.392  16.954  20.053  0.00  0.00    -0.303 OA
ATOM     28  C   UNL     1      44.995  15.831  20.700  0.00  0.00    +0.235 C 
ENDBRANCH  26  27
BRANCH  29  30
ATOM     30  O   UNL     1      42.428  18.266  21.477  0.00  0.00    -0.304 OA
ATOM     31  C   UNL     1      41.299  18.960  20.941  0.00  0.00    +0.243 C 
ENDBRANCH  29  30
ENDBRANCH  22  23
ENDBRANCH  21  22
TORSDOF 7
ENDMDL
MODEL 4
REMARK VINA RESULT:      -5.9      2.423      5.256
REMARK  Name = ZINC03830747
REMARK  12 active torsions:
REMARK  status: ('A' for Active; 'I' for Inactive)
REMARK    1  A    between atoms: C1_1  and  C2_2
REMARK    2  A    between atoms: C2_2  and  C3_3
REMARK    3  A    between atoms: C9_11  and  O4_38
REMARK    4  A    between atoms: C10_12  and  O3_36
REMARK    5  A    between atoms: C15_18  and  C16_20
REMARK    6  A    between atoms: C16_20  and  C17_21
REMARK    7  A    between atoms: C20_25  and  O2_34
REMARK    8  A    between atoms: C21_26  and  O1_32
REMARK    9  A    between atoms: O1_32  and  C26_33
REMARK   10  A    between atoms: O2_34  and  C27_35
REMARK   11  A    between atoms: O3_36  and  C28_37
REMARK   12  A    between atoms: O4_38  and  C29_39
REMARK                            x       y       z     vdW  Elec       q    Type
REMARK                         _______ _______ _______ _____ _____    ______ ____
ROOT
ATOM      3  C   UNL     1      47.613  21.127  21.375  0.00  0.00    -0.007 C 
ATOM      4  C   UNL     1      49.046  20.924  20.875  0.00  0.00    +0.260 C 
ATOM      5  N   UNL     1      49.052  19.917  19.808  0.00  0.00    -0.378 N 
ATOM      6  H   UNL     1      48.426  20.205  19.072  0.00  0.00    +0.422 HD
ATOM      7  C   UNL     1      50.408  19.774  19.260  0.00  0.00    +0.267 C 
ATOM      8  C   UNL     1      50.327  18.968  17.963  0.00  0.00    +0.124 C 
ATOM      9  C   UNL     1      49.539  17.703  18.193  0.00  0.00    -0.083 A 
ATOM     10  C   UNL     1      49.637  16.683  17.259  0.00  0.00    -0.020 A 
ATOM     11  C   UNL     1      48.929  15.507  17.432  0.00  0.00    +0.132 A 
ATOM     14  C   UNL     1      48.113  15.350  18.549  0.00  0.00    +0.118 A 
ATOM     17  C   UNL     1      48.020  16.371  19.478  0.00  0.00    -0.010 A 
ATOM     18  C   UNL     1      48.734  17.548  19.302  0.00  0.00    -0.125 A 
ATOM     19  C   UNL     1      48.612  18.627  20.343  0.00  0.00    +0.230 C 
ATOM     20  C   UNL     1      47.160  18.736  20.814  0.00  0.00    +0.063 C 
ATOM     21  C   UNL     1      47.069  19.801  21.911  0.00  0.00    -0.003 C 
ENDROOT
BRANCH   3   2
ATOM      1  C   UNL     1      46.979  23.469  21.973  0.00  0.00    +0.017 C 
ATOM      2  C   UNL     1      47.605  22.172  22.492  0.00  0.00    +0.046 C 
ENDBRANCH   3   2
BRANCH  11  12
ATOM     12  O   UNL     1      49.028  14.508  16.513  0.00  0.00    -0.296 OA
ATOM     13  C   UNL     1      50.334  13.991  16.256  0.00  0.00    +0.253 C 
ENDBRANCH  11  12
BRANCH  14  15
ATOM     15  O   UNL     1      47.412  14.199  18.726  0.00  0.00    -0.295 OA
ATOM     16  C   UNL     1      46.054  14.327  19.152  0.00  0.00    +0.248 C 
ENDBRANCH  14  15
BRANCH  21  22
ATOM     22  C   UNL     1      45.609  19.980  22.331  0.00  0.00    +0.060 C 
BRANCH  22  23
ATOM     23  C   UNL     1      44.730  18.999  21.552  0.00  0.00    +0.183 C 
ATOM     24  C   UNL     1      43.683  19.768  20.788  0.00  0.00    -0.084 A 
ATOM     25  C   UNL     1      44.064  20.937  20.144  0.00  0.00    -0.038 A 
ATOM     26  C   UNL     1      43.139  21.675  19.428  0.00  0.00    +0.099 A 
ATOM     29  C   UNL     1      41.819  21.241  19.353  0.00  0.00    +0.112 A 
ATOM     32  C   UNL     1      41.443  20.076  19.998  0.00  0.00    -0.038 A 
ATOM     33  C   UNL     1      42.375  19.341  20.718  0.00  0.00    -0.058 A 
ATOM     34  C   UNL     1      41.914  18.086  21.413  0.00  0.00    +0.089 C 
ATOM     35  C   UNL     1      43.120  17.222  21.784  0.00  0.00    +0.178 C 
ATOM     36  N   UNL     1      44.099  18.065  22.489  0.00  0.00    -0.676 NA
ATOM     37  H   UNL     1      44.790  17.500  22.957  0.00  0.00    +0.340 HD
BRANCH  26  27
ATOM     27  O   UNL     1      43.519  22.819  18.798  0.00  0.00    -0.303 OA
ATOM     28  C   UNL     1      44.374  23.705  19.523  0.00  0.00    +0.235 C 
ENDBRANCH  26  27
BRANCH  29  30
ATOM     30  O   UNL     1      40.903  21.957  18.648  0.00  0.00    -0.304 OA
ATOM     31  C   UNL     1      39.650  21.324  18.382  0.00  0.00    +0.243 C 
ENDBRANCH  29  30
ENDBRANCH  22  23
ENDBRANCH  21  22
TORSDOF 7
ENDMDL
MODEL 5
REMARK VINA RESULT:      -5.7      3.587      7.814
REMARK  Name = ZINC03830747
REMARK  12 active torsions:
REMARK  status: ('A' for Active; 'I' for Inactive)
REMARK    1  A    between atoms: C1_1  and  C2_2
REMARK    2  A    between atoms: C2_2  and  C3_3
REMARK    3  A    between atoms: C9_11  and  O4_38
REMARK    4  A    between atoms: C10_12  and  O3_36
REMARK    5  A    between atoms: C15_18  and  C16_20
REMARK    6  A    between atoms: C16_20  and  C17_21
REMARK    7  A    between atoms: C20_25  and  O2_34
REMARK    8  A    between atoms: C21_26  and  O1_32
REMARK    9  A    between atoms: O1_32  and  C26_33
REMARK   10  A    between atoms: O2_34  and  C27_35
REMARK   11  A    between atoms: O3_36  and  C28_37
REMARK   12  A    between atoms: O4_38  and  C29_39
REMARK                            x       y       z     vdW  Elec       q    Type
REMARK                         _______ _______ _______ _____ _____    ______ ____
ROOT
ATOM      3  C   UNL     1      51.127  19.084  17.919  0.00  0.00    -0.007 C 
ATOM      4  C   UNL     1      50.181  20.209  18.347  0.00  0.00    +0.260 C 
ATOM      5  N   UNL     1      49.199  19.683  19.302  0.00  0.00    -0.378 N 
ATOM      6  H   UNL     1      49.682  19.270  20.085  0.00  0.00    +0.422 HD
ATOM      7  C   UNL     1      48.338  20.770  19.787  0.00  0.00    +0.267 C 
ATOM      8  C   UNL     1      47.548  20.265  20.995  0.00  0.00    +0.124 C 
ATOM      9  C   UNL     1      46.882  18.954  20.661  0.00  0.00    -0.083 A 
ATOM     10  C   UNL     1      45.858  18.504  21.480  0.00  0.00    -0.020 A 
ATOM     11  C   UNL     1      45.222  17.305  21.210  0.00  0.00    +0.132 A 
ATOM     14  C   UNL     1      45.616  16.548  20.110  0.00  0.00    +0.118 A 
ATOM     17  C   UNL     1      46.638  17.002  19.296  0.00  0.00    -0.010 A 
ATOM     18  C   UNL     1      47.271  18.206  19.569  0.00  0.00    -0.125 A 
ATOM     19  C   UNL     1      48.370  18.667  18.651  0.00  0.00    +0.230 C 
ATOM     20  C   UNL     1      49.242  17.478  18.243  0.00  0.00    +0.063 C 
ATOM     21  C   UNL     1      50.319  17.960  17.266  0.00  0.00    -0.003 C 
ENDROOT
BRANCH   3   2
ATOM      1  C   UNL     1      51.687  20.997  16.412  0.00  0.00    +0.017 C 
ATOM      2  C   UNL     1      52.148  19.628  16.917  0.00  0.00    +0.046 C 
ENDBRANCH   3   2
BRANCH  11  12
ATOM     12  O   UNL     1      44.217  16.868  22.016  0.00  0.00    -0.296 OA
ATOM     13  C   UNL     1      43.120  17.758  22.227  0.00  0.00    +0.253 C 
ENDBRANCH  11  12
BRANCH  14  15
ATOM     15  O   UNL     1      44.999  15.368  19.838  0.00  0.00    -0.295 OA
ATOM     16  C   UNL     1      45.711  14.437  19.019  0.00  0.00    +0.248 C 
ENDBRANCH  14  15
BRANCH  21  22
ATOM     22  C   UNL     1      51.250  16.798  16.916  0.00  0.00    +0.060 C 
BRANCH  22  23
ATOM     23  C   UNL     1      50.771  15.529  17.625  0.00  0.00    +0.183 C 
ATOM     24  C   UNL     1      51.929  14.899  18.353  0.00  0.00    -0.084 A 
ATOM     25  C   UNL     1      52.801  15.728  19.046  0.00  0.00    -0.038 A 
ATOM     26  C   UNL     1      53.877  15.195  19.733  0.00  0.00    +0.099 A 
ATOM     29  C   UNL     1      54.084  13.819  19.729  0.00  0.00    +0.112 A 
ATOM     32  C   UNL     1      53.214  12.997  19.036  0.00  0.00    -0.038 A 
ATOM     33  C   UNL     1      52.138  13.537  18.347  0.00  0.00    -0.058 A 
ATOM     34  C   UNL     1      51.225  12.600  17.597  0.00  0.00    +0.089 C 
ATOM     35  C   UNL     1      49.910  13.307  17.266  0.00  0.00    +0.178 C 
ATOM     36  N   UNL     1      50.221  14.599  16.633  0.00  0.00    -0.676 NA
ATOM     37  H   UNL     1      49.405  14.988  16.186  0.00  0.00    +0.340 HD
BRANCH  26  27
ATOM     27  O   UNL     1      54.727  16.012  20.409  0.00  0.00    -0.303 OA
ATOM     28  C   UNL     1      54.301  16.472  21.694  0.00  0.00    +0.235 C 
ENDBRANCH  26  27
BRANCH  29  30
ATOM     30  O   UNL     1      55.137  13.285  20.405  0.00  0.00    -0.304 OA
ATOM     31  C   UNL     1      56.241  12.822  19.624  0.00  0.00    +0.243 C 
ENDBRANCH  29  30
ENDBRANCH  22  23
ENDBRANCH  21  22
TORSDOF 7
ENDMDL
MODEL 6
REMARK VINA RESULT:      -5.5      1.234      8.062
REMARK  Name = ZINC03830747
REMARK  12 active torsions:
REMARK  status: ('A' for Active; 'I' for Inactive)
REMARK    1  A    between atoms: C1_1  and  C2_2
REMARK    2  A    between atoms: C2_2  and  C3_3
REMARK    3  A    between atoms: C9_11  and  O4_38
REMARK    4  A    between atoms: C10_12  and  O3_36
REMARK    5  A    between atoms: C15_18  and  C16_20
REMARK    6  A    between atoms: C16_20  and  C17_21
REMARK    7  A    between atoms: C20_25  and  O2_34
REMARK    8  A    between atoms: C21_26  and  O1_32
REMARK    9  A    between atoms: O1_32  and  C26_33
REMARK   10  A    between atoms: O2_34  and  C27_35
REMARK   11  A    between atoms: O3_36  and  C28_37
REMARK   12  A    between atoms: O4_38  and  C29_39
REMARK                            x       y       z     vdW  Elec       q    Type
REMARK                         _______ _______ _______ _____ _____    ______ ____
ROOT
ATOM      3  C   UNL     1      51.694  16.925  19.297  0.00  0.00    -0.007 C 
ATOM      4  C   UNL     1      51.959  18.429  19.421  0.00  0.00    +0.260 C 
ATOM      5  N   UNL     1      50.762  19.092  19.952  0.00  0.00    -0.378 N 
ATOM      6  H   UNL     1      50.510  18.672  20.834  0.00  0.00    +0.422 HD
ATOM      7  C   UNL     1      51.030  20.521  20.158  0.00  0.00    +0.267 C 
ATOM      8  C   UNL     1      49.894  21.114  20.993  0.00  0.00    +0.124 C 
ATOM      9  C   UNL     1      48.563  20.742  20.389  0.00  0.00    -0.083 A 
ATOM     10  C   UNL     1      47.437  21.449  20.781  0.00  0.00    -0.020 A 
ATOM     11  C   UNL     1      46.197  21.137  20.253  0.00  0.00    +0.132 A 
ATOM     14  C   UNL     1      46.083  20.106  19.324  0.00  0.00    +0.118 A 
ATOM     17  C   UNL     1      47.210  19.404  18.936  0.00  0.00    -0.010 A 
ATOM     18  C   UNL     1      48.452  19.723  19.467  0.00  0.00    -0.125 A 
ATOM     19  C   UNL     1      49.653  18.941  19.008  0.00  0.00    +0.230 C 
ATOM     20  C   UNL     1      49.292  17.460  18.874  0.00  0.00    +0.063 C 
ATOM     21  C   UNL     1      50.512  16.694  18.353  0.00  0.00    -0.003 C 
ENDROOT
BRANCH   3   2
ATOM      1  C   UNL     1      53.787  15.696  19.892  0.00  0.00    +0.017 C 
ATOM      2  C   UNL     1      52.939  16.233  18.737  0.00  0.00    +0.046 C 
ENDBRANCH   3   2
BRANCH  11  12
ATOM     12  O   UNL     1      45.095  21.833  20.640  0.00  0.00    -0.296 OA
ATOM     13  C   UNL     1      44.867  23.093  20.005  0.00  0.00    +0.253 C 
ENDBRANCH  11  12
BRANCH  14  15
ATOM     15  O   UNL     1      44.868  19.791  18.801  0.00  0.00    -0.295 OA
ATOM     16  C   UNL     1      44.092  18.819  19.505  0.00  0.00    +0.248 C 
ENDBRANCH  14  15
BRANCH  21  22
ATOM     22  C   UNL     1      50.190  15.199  18.295  0.00  0.00    +0.060 C 
BRANCH  22  23
ATOM     23  C   UNL     1      50.051  14.764  16.834  0.00  0.00    +0.183 C 
ATOM     24  C   UNL     1      48.877  13.828  16.704  0.00  0.00    -0.084 A 
ATOM     25  C   UNL     1      47.712  14.133  17.395  0.00  0.00    -0.038 A 
ATOM     26  C   UNL     1      46.608  13.306  17.304  0.00  0.00    +0.099 A 
ATOM     29  C   UNL     1      46.666  12.162  16.513  0.00  0.00    +0.112 A 
ATOM     32  C   UNL     1      47.829  11.861  15.827  0.00  0.00    -0.038 A 
ATOM     33  C   UNL     1      48.935  12.693  15.925  0.00  0.00    -0.058 A 
ATOM     34  C   UNL     1      50.183  12.316  15.169  0.00  0.00    +0.089 C 
ATOM     35  C   UNL     1      51.115  13.524  15.063  0.00  0.00    +0.178 C 
ATOM     36  N   UNL     1      51.286  14.100  16.406  0.00  0.00    -0.676 NA
ATOM     37  H   UNL     1      52.066  14.739  16.429  0.00  0.00    +0.340 HD
BRANCH  26  27
ATOM     27  O   UNL     1      45.470  13.609  17.983  0.00  0.00    -0.303 OA
ATOM     28  C   UNL     1      45.523  13.529  19.409  0.00  0.00    +0.235 C 
ENDBRANCH  26  27
BRANCH  29  30
ATOM     30  O   UNL     1      45.584  11.344  16.414  0.00  0.00    -0.304 OA
ATOM     31  C   UNL     1      45.526  10.479  15.278  0.00  0.00    +0.243 C 
ENDBRANCH  29  30
ENDBRANCH  22  23
ENDBRANCH  21  22
TORSDOF 7
ENDMDL
MODEL 7
REMARK VINA RESULT:      -5.4      2.330      8.638
REMARK  Name = ZINC03830747
REMARK  12 active torsions:
REMARK  status: ('A' for Active; 'I' for Inactive)
REMARK    1  A    between atoms: C1_1  and  C2_2
REMARK    2  A    between atoms: C2_2  and  C3_3
REMARK    3  A    between atoms: C9_11  and  O4_38
REMARK    4  A    between atoms: C10_12  and  O3_36
REMARK    5  A    between atoms: C15_18  and  C16_20
REMARK    6  A    between atoms: C16_20  and  C17_21
REMARK    7  A    between atoms: C20_25  and  O2_34
REMARK    8  A    between atoms: C21_26  and  O1_32
REMARK    9  A    between atoms: O1_32  and  C26_33
REMARK   10  A    between atoms: O2_34  and  C27_35
REMARK   11  A    between atoms: O3_36  and  C28_37
REMARK   12  A    between atoms: O4_38  and  C29_39
REMARK                            x       y       z     vdW  Elec       q    Type
REMARK                         _______ _______ _______ _____ _____    ______ ____
ROOT
ATOM      3  C   UNL     1      45.735  16.024  20.352  0.00  0.00    -0.007 C 
ATOM      4  C   UNL     1      44.329  16.587  20.578  0.00  0.00    +0.260 C 
ATOM      5  N   UNL     1      44.302  18.001  20.188  0.00  0.00    -0.378 N 
ATOM      6  H   UNL     1      44.601  18.090  19.229  0.00  0.00    +0.422 HD
ATOM      7  C   UNL     1      42.938  18.532  20.317  0.00  0.00    +0.267 C 
ATOM      8  C   UNL     1      42.874  19.889  19.616  0.00  0.00    +0.124 C 
ATOM      9  C   UNL     1      44.004  20.767  20.093  0.00  0.00    -0.083 A 
ATOM     10  C   UNL     1      43.931  22.130  19.849  0.00  0.00    -0.020 A 
ATOM     11  C   UNL     1      44.948  22.970  20.268  0.00  0.00    +0.132 A 
ATOM     14  C   UNL     1      46.049  22.440  20.936  0.00  0.00    +0.118 A 
ATOM     17  C   UNL     1      46.116  21.080  21.176  0.00  0.00    -0.010 A 
ATOM     18  C   UNL     1      45.092  20.242  20.757  0.00  0.00    -0.125 A 
ATOM     19  C   UNL     1      45.201  18.770  21.050  0.00  0.00    +0.230 C 
ATOM     20  C   UNL     1      46.642  18.301  20.837  0.00  0.00    +0.063 C 
ATOM     21  C   UNL     1      46.740  16.814  21.195  0.00  0.00    -0.003 C 
ENDROOT
BRANCH   3   2
ATOM      1  C   UNL     1      45.251  13.687  19.613  0.00  0.00    +0.017 C 
ATOM      2  C   UNL     1      45.768  14.552  20.765  0.00  0.00    +0.046 C 
ENDBRANCH   3   2
BRANCH  11  12
ATOM     12  O   UNL     1      44.873  24.307  20.027  0.00  0.00    -0.296 OA
ATOM     13  C   UNL     1      44.426  24.708  18.731  0.00  0.00    +0.253 C 
ENDBRANCH  11  12
BRANCH  14  15
ATOM     15  O   UNL     1      47.054  23.257  21.349  0.00  0.00    -0.295 OA
ATOM     16  C   UNL     1      47.788  22.849  22.505  0.00  0.00    +0.248 C 
ENDBRANCH  14  15
BRANCH  21  22
ATOM     22  C   UNL     1      48.156  16.311  20.905  0.00  0.00    +0.060 C 
BRANCH  22  23
ATOM     23  C   UNL     1      48.808  17.203  19.846  0.00  0.00    +0.183 C 
ATOM     24  C   UNL     1      49.370  16.340  18.747  0.00  0.00    -0.084 A 
ATOM     25  C   UNL     1      48.612  15.266  18.300  0.00  0.00    -0.038 A 
ATOM     26  C   UNL     1      49.085  14.447  17.291  0.00  0.00    +0.099 A 
ATOM     29  C   UNL     1      50.328  14.704  16.720  0.00  0.00    +0.112 A 
ATOM     32  C   UNL     1      51.081  15.775  17.169  0.00  0.00    -0.038 A 
ATOM     33  C   UNL     1      50.602  16.591  18.184  0.00  0.00    -0.058 A 
ATOM     34  C   UNL     1      51.465  17.737  18.647  0.00  0.00    +0.089 C 
ATOM     35  C   UNL     1      50.623  18.735  19.443  0.00  0.00    +0.178 C 
ATOM     36  N   UNL     1      49.871  17.997  20.470  0.00  0.00    -0.676 NA
ATOM     37  H   UNL     1      49.494  18.625  21.163  0.00  0.00    +0.340 HD
BRANCH  26  27
ATOM     27  O   UNL     1      48.339  13.397  16.858  0.00  0.00    -0.303 OA
ATOM     28  C   UNL     1      47.034  13.692  16.353  0.00  0.00    +0.235 C 
ENDBRANCH  26  27
BRANCH  29  30
ATOM     30  O   UNL     1      50.800  13.908  15.724  0.00  0.00    -0.304 OA
ATOM     31  C   UNL     1      51.550  12.755  16.115  0.00  0.00    +0.243 C 
ENDBRANCH  29  30
ENDBRANCH  22  23
ENDBRANCH  21  22
TORSDOF 7
ENDMDL
MODEL 8
REMARK VINA RESULT:      -5.4      3.281      8.498
REMARK  Name = ZINC03830747
REMARK  12 active torsions:
REMARK  status: ('A' for Active; 'I' for Inactive)
REMARK    1  A    between atoms: C1_1  and  C2_2
REMARK    2  A    between atoms: C2_2  and  C3_3
REMARK    3  A    between atoms: C9_11  and  O4_38
REMARK    4  A    between atoms: C10_12  and  O3_36
REMARK    5  A    between atoms: C15_18  and  C16_20
REMARK    6  A    between atoms: C16_20  and  C17_21
REMARK    7  A    between atoms: C20_25  and  O2_34
REMARK    8  A    between atoms: C21_26  and  O1_32
REMARK    9  A    between atoms: O1_32  and  C26_33
REMARK   10  A    between atoms: O2_34  and  C27_35
REMARK   11  A    between atoms: O3_36  and  C28_37
REMARK   12  A    between atoms: O4_38  and  C29_39
REMARK                            x       y       z     vdW  Elec       q    Type
REMARK                         _______ _______ _______ _____ _____    ______ ____
ROOT
ATOM      3  C   UNL     1      45.086  17.141  21.184  0.00  0.00    -0.007 C 
ATOM      4  C   UNL     1      45.233  18.658  21.337  0.00  0.00    +0.260 C 
ATOM      5  N   UNL     1      46.318  19.132  20.471  0.00  0.00    -0.378 N 
ATOM      6  H   UNL     1      46.129  18.859  19.519  0.00  0.00    +0.422 HD
ATOM      7  C   UNL     1      46.413  20.596  20.542  0.00  0.00    +0.267 C 
ATOM      8  C   UNL     1      47.322  21.081  19.411  0.00  0.00    +0.124 C 
ATOM      9  C   UNL     1      48.614  20.304  19.421  0.00  0.00    -0.083 A 
ATOM     10  C   UNL     1      49.695  20.808  18.714  0.00  0.00    -0.020 A 
ATOM     11  C   UNL     1      50.898  20.124  18.696  0.00  0.00    +0.132 A 
ATOM     14  C   UNL     1      51.020  18.924  19.392  0.00  0.00    +0.118 A 
ATOM     17  C   UNL     1      49.939  18.427  20.096  0.00  0.00    -0.010 A 
ATOM     18  C   UNL     1      48.735  19.117  20.114  0.00  0.00    -0.125 A 
ATOM     19  C   UNL     1      47.588  18.545  20.902  0.00  0.00    +0.230 C 
ATOM     20  C   UNL     1      47.538  17.026  20.724  0.00  0.00    +0.063 C 
ATOM     21  C   UNL     1      46.399  16.461  21.579  0.00  0.00    -0.003 C 
ENDROOT
BRANCH   3   2
ATOM      1  C   UNL     1      42.838  17.683  22.130  0.00  0.00    +0.017 C 
ATOM      2  C   UNL     1      43.960  16.643  22.092  0.00  0.00    +0.046 C 
ENDBRANCH   3   2
BRANCH  11  12
ATOM     12  O   UNL     1      51.956  20.622  18.001  0.00  0.00    -0.296 OA
ATOM     13  C   UNL     1      51.801  20.750  16.586  0.00  0.00    +0.253 C 
ENDBRANCH  11  12
BRANCH  14  15
ATOM     15  O   UNL     1      52.197  18.244  19.378  0.00  0.00    -0.295 OA
ATOM     16  C   UNL     1      52.301  17.145  18.470  0.00  0.00    +0.248 C 
ENDBRANCH  14  15
BRANCH  21  22
ATOM     22  C   UNL     1      46.284  14.953  21.344  0.00  0.00    +0.060 C 
BRANCH  22  23
ATOM     23  C   UNL     1      47.684  14.348  21.222  0.00  0.00    +0.183 C 
ATOM     24  C   UNL     1      47.759  13.517  19.967  0.00  0.00    -0.084 A 
ATOM     25  C   UNL     1      47.175  14.016  18.811  0.00  0.00    -0.038 A 
ATOM     26  C   UNL     1      47.221  13.291  17.634  0.00  0.00    +0.099 A 
ATOM     29  C   UNL     1      47.858  12.055  17.610  0.00  0.00    +0.112 A 
ATOM     32  C   UNL     1      48.437  11.560  18.765  0.00  0.00    -0.038 A 
ATOM     33  C   UNL     1      48.385  12.290  19.944  0.00  0.00    -0.058 A 
ATOM     34  C   UNL     1      49.021  11.703  21.178  0.00  0.00    +0.089 C 
ATOM     35  C   UNL     1      49.227  12.794  22.229  0.00  0.00    +0.178 C 
ATOM     36  N   UNL     1      47.959  13.521  22.401  0.00  0.00    -0.676 NA
ATOM     37  H   UNL     1      47.975  14.081  23.240  0.00  0.00    +0.340 HD
BRANCH  26  27
ATOM     27  O   UNL     1      46.647  13.786  16.505  0.00  0.00    -0.303 OA
ATOM     28  C   UNL     1      46.589  15.208  16.377  0.00  0.00    +0.235 C 
ENDBRANCH  26  27
BRANCH  29  30
ATOM     30  O   UNL     1      47.912  11.336  16.457  0.00  0.00    -0.304 OA
ATOM     31  C   UNL     1      46.956  10.285  16.302  0.00  0.00    +0.243 C 
ENDBRANCH  29  30
ENDBRANCH  22  23
ENDBRANCH  21  22
TORSDOF 7
ENDMDL
MODEL 9
REMARK VINA RESULT:      -5.4      2.972      3.586
REMARK  Name = ZINC03830747
REMARK  12 active torsions:
REMARK  status: ('A' for Active; 'I' for Inactive)
REMARK    1  A    between atoms: C1_1  and  C2_2
REMARK    2  A    between atoms: C2_2  and  C3_3
REMARK    3  A    between atoms: C9_11  and  O4_38
REMARK    4  A    between atoms: C10_12  and  O3_36
REMARK    5  A    between atoms: C15_18  and  C16_20
REMARK    6  A    between atoms: C16_20  and  C17_21
REMARK    7  A    between atoms: C20_25  and  O2_34
REMARK    8  A    between atoms: C21_26  and  O1_32
REMARK    9  A    between atoms: O1_32  and  C26_33
REMARK   10  A    between atoms: O2_34  and  C27_35
REMARK   11  A    between atoms: O3_36  and  C28_37
REMARK   12  A    between atoms: O4_38  and  C29_39
REMARK                            x       y       z     vdW  Elec       q    Type
REMARK                         _______ _______ _______ _____ _____    ______ ____
ROOT
ATOM      3  C   UNL     1      50.266  19.642  18.070  0.00  0.00    -0.007 C 
ATOM      4  C   UNL     1      51.430  18.647  18.048  0.00  0.00    +0.260 C 
ATOM      5  N   UNL     1      50.914  17.289  18.254  0.00  0.00    -0.378 N 
ATOM      6  H   UNL     1      50.221  17.084  17.552  0.00  0.00    +0.422 HD
ATOM      7  C   UNL     1      52.009  16.315  18.150  0.00  0.00    +0.267 C 
ATOM      8  C   UNL     1      51.406  14.913  18.054  0.00  0.00    +0.124 C 
ATOM      9  C   UNL     1      50.404  14.707  19.161  0.00  0.00    -0.083 A 
ATOM     10  C   UNL     1      50.004  13.414  19.461  0.00  0.00    -0.020 A 
ATOM     11  C   UNL     1      49.084  13.183  20.469  0.00  0.00    +0.132 A 
ATOM     14  C   UNL     1      48.558  14.257  21.182  0.00  0.00    +0.118 A 
ATOM     17  C   UNL     1      48.961  15.544  20.880  0.00  0.00    -0.010 A 
ATOM     18  C   UNL     1      49.886  15.771  19.870  0.00  0.00    -0.125 A 
ATOM     19  C   UNL     1      50.305  17.187  19.582  0.00  0.00    +0.230 C 
ATOM     20  C   UNL     1      49.092  18.117  19.662  0.00  0.00    +0.063 C 
ATOM     21  C   UNL     1      49.551  19.559  19.421  0.00  0.00    -0.003 C 
ENDROOT
BRANCH   3   2
ATOM      1  C   UNL     1      51.601  21.116  16.557  0.00  0.00    +0.017 C 
ATOM      2  C   UNL     1      50.801  21.059  17.861  0.00  0.00    +0.046 C 
ENDBRANCH   3   2
BRANCH  11  12
ATOM     12  O   UNL     1      48.694  11.912  20.759  0.00  0.00    -0.296 OA
ATOM     13  C   UNL     1      49.728  10.953  20.988  0.00  0.00    +0.253 C 
ENDBRANCH  11  12
BRANCH  14  15
ATOM     15  O   UNL     1      47.652  14.039  22.172  0.00  0.00    -0.295 OA
ATOM     16  C   UNL     1      46.344  14.583  21.984  0.00  0.00    +0.248 C 
ENDBRANCH  14  15
BRANCH  21  22
ATOM     22  C   UNL     1      48.336  20.488  19.414  0.00  0.00    +0.060 C 
BRANCH  22  23
ATOM     23  C   UNL     1      47.799  20.636  20.839  0.00  0.00    +0.183 C 
ATOM     24  C   UNL     1      46.408  20.062  20.909  0.00  0.00    -0.084 A 
ATOM     25  C   UNL     1      46.156  18.865  20.251  0.00  0.00    -0.038 A 
ATOM     26  C   UNL     1      44.895  18.298  20.289  0.00  0.00    +0.099 A 
ATOM     29  C   UNL     1      43.875  18.931  20.992  0.00  0.00    +0.112 A 
ATOM     32  C   UNL     1      44.130  20.124  21.645  0.00  0.00    -0.038 A 
ATOM     33  C   UNL     1      45.396  20.690  21.601  0.00  0.00    -0.058 A 
ATOM     34  C   UNL     1      45.620  21.997  22.318  0.00  0.00    +0.089 C 
ATOM     35  C   UNL     1      47.119  22.238  22.505  0.00  0.00    +0.178 C 
ATOM     36  N   UNL     1      47.787  22.055  21.207  0.00  0.00    -0.676 NA
ATOM     37  H   UNL     1      48.722  22.432  21.226  0.00  0.00    +0.340 HD
BRANCH  26  27
ATOM     27  O   UNL     1      44.654  17.126  19.643  0.00  0.00    -0.303 OA
ATOM     28  C   UNL     1      45.738  16.557  18.905  0.00  0.00    +0.235 C 
ENDBRANCH  26  27
BRANCH  29  30
ATOM     30  O   UNL     1      42.632  18.379  21.039  0.00  0.00    -0.304 OA
ATOM     31  C   UNL     1      41.548  19.180  20.566  0.00  0.00    +0.243 C 
ENDBRANCH  29  30
ENDBRANCH  22  23
ENDBRANCH  21  22
TORSDOF 7
ENDMDL
