MODEL 1
REMARK VINA RESULT:      -5.5      0.000      0.000
REMARK  Name = ZINC14680293
REMARK  2 active torsions:
REMARK  status: ('A' for Active; 'I' for Inactive)
REMARK    1  A    between atoms: C1_1  and  C2_2
REMARK    2  A    between atoms: C3_4  and  C4_7
REMARK                            x       y       z     vdW  Elec       q    Type
REMARK                         _______ _______ _______ _____ _____    ______ ____
ROOT
ATOM      4  C   UNL     1      36.647  33.414  12.167  0.00  0.00    +0.165 A 
ATOM      5  C   UNL     1      35.704  32.457  11.800  0.00  0.00    -0.015 A 
ATOM      6  C   UNL     1      35.189  32.458  10.535  0.00  0.00    +0.088 A 
ATOM      7  C   UNL     1      35.644  33.438   9.634  0.00  0.00    -0.100 A 
ATOM      8  C   UNL     1      35.156  33.505   8.319  0.00  0.00    +0.035 A 
ATOM      9  C   UNL     1      35.616  34.473   7.479  0.00  0.00    +0.017 A 
ATOM     10  C   UNL     1      36.562  35.401   7.909  0.00  0.00    +0.033 A 
ATOM     11  C   UNL     1      37.052  35.369   9.177  0.00  0.00    +0.047 A 
ATOM     12  C   UNL     1      36.601  34.385  10.074  0.00  0.00    +0.128 A 
ATOM     13  N   UNL     1      37.065  34.329  11.327  0.00  0.00    -0.456 NA
ENDROOT
BRANCH   4   3
ATOM      1  C   UNL     1      38.377  31.797  15.280  0.00  0.00    +0.080 C 
ATOM      2  C   UNL     1      37.221  32.059  14.311  0.00  0.00    +0.139 C 
ATOM      3  C   UNL     1      37.203  33.396  13.569  0.00  0.00    +0.180 C 
ATOM     14  O   UNL     1      36.302  33.105  14.639  0.00  0.00    -0.341 OA
ENDBRANCH   4   3
TORSDOF 1
ENDMDL
MODEL 2
REMARK VINA RESULT:      -5.3     16.075     19.843
REMARK  Name = ZINC14680293
REMARK  2 active torsions:
REMARK  status: ('A' for Active; 'I' for Inactive)
REMARK    1  A    between atoms: C1_1  and  C2_2
REMARK    2  A    between atoms: C3_4  and  C4_7
REMARK                            x       y       z     vdW  Elec       q    Type
REMARK                         _______ _______ _______ _____ _____    ______ ____
ROOT
ATOM      4  C   UNL     1      42.830  19.154  20.268  0.00  0.00    +0.165 A 
ATOM      5  C   UNL     1      42.319  18.843  21.525  0.00  0.00    -0.015 A 
ATOM      6  C   UNL     1      42.817  17.777  22.219  0.00  0.00    +0.088 A 
ATOM      7  C   UNL     1      43.849  17.024  21.627  0.00  0.00    -0.100 A 
ATOM      8  C   UNL     1      44.406  15.911  22.277  0.00  0.00    +0.035 A 
ATOM      9  C   UNL     1      45.398  15.204  21.669  0.00  0.00    +0.017 A 
ATOM     10  C   UNL     1      45.865  15.568  20.408  0.00  0.00    +0.033 A 
ATOM     11  C   UNL     1      45.344  16.638  19.748  0.00  0.00    +0.047 A 
ATOM     12  C   UNL     1      44.318  17.392  20.343  0.00  0.00    +0.128 A 
ATOM     13  N   UNL     1      43.787  18.448  19.718  0.00  0.00    -0.456 NA
ENDROOT
BRANCH   4   3
ATOM      1  C   UNL     1      39.988  21.335  18.698  0.00  0.00    +0.080 C 
ATOM      2  C   UNL     1      40.945  20.142  18.774  0.00  0.00    +0.139 C 
ATOM      3  C   UNL     1      42.267  20.336  19.519  0.00  0.00    +0.180 C 
ATOM     14  O   UNL     1      42.199  20.251  18.095  0.00  0.00    -0.341 OA
ENDBRANCH   4   3
TORSDOF 1
ENDMDL
MODEL 3
REMARK VINA RESULT:      -5.2     15.061     17.567
REMARK  Name = ZINC14680293
REMARK  2 active torsions:
REMARK  status: ('A' for Active; 'I' for Inactive)
REMARK    1  A    between atoms: C1_1  and  C2_2
REMARK    2  A    between atoms: C3_4  and  C4_7
REMARK                            x       y       z     vdW  Elec       q    Type
REMARK                         _______ _______ _______ _____ _____    ______ ____
ROOT
ATOM      4  C   UNL     1      43.228  20.588  19.159  0.00  0.00    +0.165 A 
ATOM      5  C   UNL     1      44.030  19.455  19.277  0.00  0.00    -0.015 A 
ATOM      6  C   UNL     1      45.238  19.538  19.908  0.00  0.00    +0.088 A 
ATOM      7  C   UNL     1      45.632  20.785  20.428  0.00  0.00    -0.100 A 
ATOM      8  C   UNL     1      46.863  20.948  21.084  0.00  0.00    +0.035 A 
ATOM      9  C   UNL     1      47.210  22.173  21.567  0.00  0.00    +0.017 A 
ATOM     10  C   UNL     1      46.362  23.268  21.415  0.00  0.00    +0.033 A 
ATOM     11  C   UNL     1      45.165  23.147  20.781  0.00  0.00    +0.047 A 
ATOM     12  C   UNL     1      44.771  21.899  20.268  0.00  0.00    +0.128 A 
ATOM     13  N   UNL     1      43.600  21.749  19.639  0.00  0.00    -0.456 NA
ENDROOT
BRANCH   4   3
ATOM      1  C   UNL     1      39.453  21.414  18.556  0.00  0.00    +0.080 C 
ATOM      2  C   UNL     1      40.637  20.761  19.276  0.00  0.00    +0.139 C 
ATOM      3  C   UNL     1      41.898  20.476  18.459  0.00  0.00    +0.180 C 
ATOM     14  O   UNL     1      41.010  19.439  18.879  0.00  0.00    -0.341 OA
ENDBRANCH   4   3
TORSDOF 1
ENDMDL
MODEL 4
REMARK VINA RESULT:      -5.0     20.356     20.994
REMARK  Name = ZINC14680293
REMARK  2 active torsions:
REMARK  status: ('A' for Active; 'I' for Inactive)
REMARK    1  A    between atoms: C1_1  and  C2_2
REMARK    2  A    between atoms: C3_4  and  C4_7
REMARK                            x       y       z     vdW  Elec       q    Type
REMARK                         _______ _______ _______ _____ _____    ______ ____
ROOT
ATOM      4  C   UNL     1      48.755  18.551  19.127  0.00  0.00    +0.165 A 
ATOM      5  C   UNL     1      48.841  19.862  19.590  0.00  0.00    -0.015 A 
ATOM      6  C   UNL     1      49.704  20.739  18.997  0.00  0.00    +0.088 A 
ATOM      7  C   UNL     1      50.484  20.277  17.920  0.00  0.00    -0.100 A 
ATOM      8  C   UNL     1      51.397  21.119  17.266  0.00  0.00    +0.035 A 
ATOM      9  C   UNL     1      52.138  20.634  16.231  0.00  0.00    +0.017 A 
ATOM     10  C   UNL     1      52.005  19.310  15.817  0.00  0.00    +0.033 A 
ATOM     11  C   UNL     1      51.133  18.466  16.432  0.00  0.00    +0.047 A 
ATOM     12  C   UNL     1      50.351  18.930  17.503  0.00  0.00    +0.128 A 
ATOM     13  N   UNL     1      49.486  18.123  18.127  0.00  0.00    -0.456 NA
ENDROOT
BRANCH   4   3
ATOM      1  C   UNL     1      45.673  16.148  19.287  0.00  0.00    +0.080 C 
ATOM      2  C   UNL     1      46.376  17.507  19.232  0.00  0.00    +0.139 C 
ATOM      3  C   UNL     1      47.795  17.599  19.794  0.00  0.00    +0.180 C 
ATOM     14  O   UNL     1      46.668  18.155  20.473  0.00  0.00    -0.341 OA
ENDBRANCH   4   3
TORSDOF 1
ENDMDL
MODEL 5
REMARK VINA RESULT:      -4.9      1.487      2.311
REMARK  Name = ZINC14680293
REMARK  2 active torsions:
REMARK  status: ('A' for Active; 'I' for Inactive)
REMARK    1  A    between atoms: C1_1  and  C2_2
REMARK    2  A    between atoms: C3_4  and  C4_7
REMARK                            x       y       z     vdW  Elec       q    Type
REMARK                         _______ _______ _______ _____ _____    ______ ____
ROOT
ATOM      4  C   UNL     1      36.751  32.517  12.485  0.00  0.00    +0.165 A 
ATOM      5  C   UNL     1      37.146  33.829  12.233  0.00  0.00    -0.015 A 
ATOM      6  C   UNL     1      36.730  34.459  11.095  0.00  0.00    +0.088 A 
ATOM      7  C   UNL     1      35.898  33.749  10.209  0.00  0.00    -0.100 A 
ATOM      8  C   UNL     1      35.435  34.330   9.017  0.00  0.00    +0.035 A 
ATOM      9  C   UNL     1      34.637  33.607   8.183  0.00  0.00    +0.017 A 
ATOM     10  C   UNL     1      34.278  32.298   8.494  0.00  0.00    +0.033 A 
ATOM     11  C   UNL     1      34.713  31.703   9.638  0.00  0.00    +0.047 A 
ATOM     12  C   UNL     1      35.538  32.416  10.524  0.00  0.00    +0.128 A 
ATOM     13  N   UNL     1      35.981  31.857  11.655  0.00  0.00    -0.456 NA
ENDROOT
BRANCH   4   3
ATOM      1  C   UNL     1      37.150  32.098  16.353  0.00  0.00    +0.080 C 
ATOM      2  C   UNL     1      37.448  32.712  14.983  0.00  0.00    +0.139 C 
ATOM      3  C   UNL     1      37.221  31.839  13.747  0.00  0.00    +0.180 C 
ATOM     14  O   UNL     1      38.529  32.158  14.227  0.00  0.00    -0.341 OA
ENDBRANCH   4   3
TORSDOF 1
ENDMDL
MODEL 6
REMARK VINA RESULT:      -4.9     15.227     17.898
REMARK  Name = ZINC14680293
REMARK  2 active torsions:
REMARK  status: ('A' for Active; 'I' for Inactive)
REMARK    1  A    between atoms: C1_1  and  C2_2
REMARK    2  A    between atoms: C3_4  and  C4_7
REMARK                            x       y       z     vdW  Elec       q    Type
REMARK                         _______ _______ _______ _____ _____    ______ ____
ROOT
ATOM      4  C   UNL     1      43.352  20.483  18.834  0.00  0.00    +0.165 A 
ATOM      5  C   UNL     1      43.669  21.596  19.609  0.00  0.00    -0.015 A 
ATOM      6  C   UNL     1      44.962  21.814  19.992  0.00  0.00    +0.088 A 
ATOM      7  C   UNL     1      45.942  20.892  19.577  0.00  0.00    -0.100 A 
ATOM      8  C   UNL     1      47.290  21.047  19.938  0.00  0.00    +0.035 A 
ATOM      9  C   UNL     1      48.207  20.130  19.522  0.00  0.00    +0.017 A 
ATOM     10  C   UNL     1      47.824  19.037  18.748  0.00  0.00    +0.033 A 
ATOM     11  C   UNL     1      46.525  18.853  18.385  0.00  0.00    +0.047 A 
ATOM     12  C   UNL     1      45.550  19.778  18.795  0.00  0.00    +0.128 A 
ATOM     13  N   UNL     1      44.266  19.624  18.454  0.00  0.00    -0.456 NA
ENDROOT
BRANCH   4   3
ATOM      1  C   UNL     1      39.555  21.381  18.566  0.00  0.00    +0.080 C 
ATOM      2  C   UNL     1      40.824  20.903  19.276  0.00  0.00    +0.139 C 
ATOM      3  C   UNL     1      41.919  20.261  18.422  0.00  0.00    +0.180 C 
ATOM     14  O   UNL     1      41.086  19.496  19.295  0.00  0.00    -0.341 OA
ENDBRANCH   4   3
TORSDOF 1
ENDMDL
MODEL 7
REMARK VINA RESULT:      -4.8     15.437     18.104
REMARK  Name = ZINC14680293
REMARK  2 active torsions:
REMARK  status: ('A' for Active; 'I' for Inactive)
REMARK    1  A    between atoms: C1_1  and  C2_2
REMARK    2  A    between atoms: C3_4  and  C4_7
REMARK                            x       y       z     vdW  Elec       q    Type
REMARK                         _______ _______ _______ _____ _____    ______ ____
ROOT
ATOM      4  C   UNL     1      44.244  19.097  20.409  0.00  0.00    +0.165 A 
ATOM      5  C   UNL     1      44.824  20.363  20.417  0.00  0.00    -0.015 A 
ATOM      6  C   UNL     1      44.127  21.435  19.938  0.00  0.00    +0.088 A 
ATOM      7  C   UNL     1      42.824  21.216  19.451  0.00  0.00    -0.100 A 
ATOM      8  C   UNL     1      42.050  22.269  18.937  0.00  0.00    +0.035 A 
ATOM      9  C   UNL     1      40.796  22.016  18.469  0.00  0.00    +0.017 A 
ATOM     10  C   UNL     1      40.274  20.724  18.489  0.00  0.00    +0.033 A 
ATOM     11  C   UNL     1      40.999  19.680  18.975  0.00  0.00    +0.047 A 
ATOM     12  C   UNL     1      42.297  19.902  19.466  0.00  0.00    +0.128 A 
ATOM     13  N   UNL     1      43.033  18.896  19.949  0.00  0.00    -0.456 NA
ENDROOT
BRANCH   4   3
ATOM      1  C   UNL     1      47.018  16.342  20.307  0.00  0.00    +0.080 C 
ATOM      2  C   UNL     1      45.681  16.984  19.928  0.00  0.00    +0.139 C 
ATOM      3  C   UNL     1      45.030  17.926  20.942  0.00  0.00    +0.180 C 
ATOM     14  O   UNL     1      44.526  16.614  20.687  0.00  0.00    -0.341 OA
ENDBRANCH   4   3
TORSDOF 1
ENDMDL
MODEL 8
REMARK VINA RESULT:      -4.8     19.023     19.987
REMARK  Name = ZINC14680293
REMARK  2 active torsions:
REMARK  status: ('A' for Active; 'I' for Inactive)
REMARK    1  A    between atoms: C1_1  and  C2_2
REMARK    2  A    between atoms: C3_4  and  C4_7
REMARK                            x       y       z     vdW  Elec       q    Type
REMARK                         _______ _______ _______ _____ _____    ______ ____
ROOT
ATOM      4  C   UNL     1      56.030  33.315   4.758  0.00  0.00    +0.165 A 
ATOM      5  C   UNL     1      56.243  34.348   5.667  0.00  0.00    -0.015 A 
ATOM      6  C   UNL     1      55.207  34.812   6.427  0.00  0.00    +0.088 A 
ATOM      7  C   UNL     1      53.944  34.213   6.263  0.00  0.00    -0.100 A 
ATOM      8  C   UNL     1      52.831  34.641   7.004  0.00  0.00    +0.035 A 
ATOM      9  C   UNL     1      51.623  34.041   6.812  0.00  0.00    +0.017 A 
ATOM     10  C   UNL     1      51.477  33.011   5.884  0.00  0.00    +0.033 A 
ATOM     11  C   UNL     1      52.533  32.576   5.145  0.00  0.00    +0.047 A 
ATOM     12  C   UNL     1      53.795  33.171   5.315  0.00  0.00    +0.128 A 
ATOM     13  N   UNL     1      54.852  32.764   4.603  0.00  0.00    -0.456 NA
ENDROOT
BRANCH   4   3
ATOM      1  C   UNL     1      58.785  30.757   3.680  0.00  0.00    +0.080 C 
ATOM      2  C   UNL     1      58.154  31.825   4.576  0.00  0.00    +0.139 C 
ATOM      3  C   UNL     1      57.187  32.818   3.928  0.00  0.00    +0.180 C 
ATOM     14  O   UNL     1      58.506  33.190   4.333  0.00  0.00    -0.341 OA
ENDBRANCH   4   3
TORSDOF 1
ENDMDL
MODEL 9
REMARK VINA RESULT:      -4.7     15.839     19.439
REMARK  Name = ZINC14680293
REMARK  2 active torsions:
REMARK  status: ('A' for Active; 'I' for Inactive)
REMARK    1  A    between atoms: C1_1  and  C2_2
REMARK    2  A    between atoms: C3_4  and  C4_7
REMARK                            x       y       z     vdW  Elec       q    Type
REMARK                         _______ _______ _______ _____ _____    ______ ____
ROOT
ATOM      4  C   UNL     1      43.720  19.369  19.464  0.00  0.00    +0.165 A 
ATOM      5  C   UNL     1      44.649  19.716  18.487  0.00  0.00    -0.015 A 
ATOM      6  C   UNL     1      45.661  18.854  18.172  0.00  0.00    +0.088 A 
ATOM      7  C   UNL     1      45.724  17.626  18.856  0.00  0.00    -0.100 A 
ATOM      8  C   UNL     1      46.739  16.693  18.590  0.00  0.00    +0.035 A 
ATOM      9  C   UNL     1      46.770  15.518  19.278  0.00  0.00    +0.017 A 
ATOM     10  C   UNL     1      45.809  15.231  20.246  0.00  0.00    +0.033 A 
ATOM     11  C   UNL     1      44.815  16.115  20.532  0.00  0.00    +0.047 A 
ATOM     12  C   UNL     1      44.751  17.339  19.843  0.00  0.00    +0.128 A 
ATOM     13  N   UNL     1      43.785  18.227  20.103  0.00  0.00    -0.456 NA
ENDROOT
BRANCH   4   3
ATOM      1  C   UNL     1      40.242  21.088  18.967  0.00  0.00    +0.080 C 
ATOM      2  C   UNL     1      41.715  20.812  18.653  0.00  0.00    +0.139 C 
ATOM      3  C   UNL     1      42.611  20.334  19.797  0.00  0.00    +0.180 C 
ATOM     14  O   UNL     1      42.696  21.657  19.263  0.00  0.00    -0.341 OA
ENDBRANCH   4   3
TORSDOF 1
ENDMDL
