MODEL 1
REMARK VINA RESULT:      -6.1      0.000      0.000
REMARK  Name = ZINC14727623
REMARK  13 active torsions:
REMARK  status: ('A' for Active; 'I' for Inactive)
REMARK    1  A    between atoms: C1_1  and  C2_2
REMARK    2  A    between atoms: C2_2  and  C24_30
REMARK    3  A    between atoms: C3_3  and  C4_4
REMARK    4  A    between atoms: C4_4  and  C5_5
REMARK    5  A    between atoms: C6_6  and  O6_29
REMARK    6  A    between atoms: C10_11  and  O5_28
REMARK    7  A    between atoms: C13_14  and  O4_27
REMARK    8  A    between atoms: C16_18  and  C19_22
REMARK    9  A    between atoms: C17_19  and  O3_20
REMARK   10  A    between atoms: O3_20  and  C18_21
REMARK   11  A    between atoms: C19_22  and  C20_23
REMARK   12  A    between atoms: C21_24  and  C22_25
REMARK   13  A    between atoms: C21_24  and  C23_26
REMARK                            x       y       z     vdW  Elec       q    Type
REMARK                         _______ _______ _______ _____ _____    ______ ____
ROOT
ATOM      6  C   UNL     1      50.010  17.210  17.919  0.00  0.00    -0.153 A 
ATOM      7  C   UNL     1      50.530  16.048  17.378  0.00  0.00    +0.216 A 
ATOM     10  C   UNL     1      49.662  15.020  16.986  0.00  0.00    -0.261 A 
ATOM     11  C   UNL     1      50.186  13.772  16.407  0.00  0.00    +0.439 A 
ATOM     12  C   UNL     1      49.196  12.741  16.039  0.00  0.00    -0.248 A 
ATOM     13  C   UNL     1      49.603  11.521  15.485  0.00  0.00    +0.196 A 
ATOM     16  C   UNL     1      48.652  10.576  15.141  0.00  0.00    -0.017 A 
ATOM     17  C   UNL     1      47.307  10.838  15.344  0.00  0.00    +0.092 A 
ATOM     18  C   UNL     1      46.895  12.040  15.891  0.00  0.00    +0.072 A 
ATOM     21  C   UNL     1      47.835  13.006  16.246  0.00  0.00    +0.155 A 
ATOM     22  O   UNL     1      47.428  14.179  16.778  0.00  0.00    -0.209 OA
ATOM     23  O   UNL     1      51.381  13.593  16.250  0.00  0.00    -0.418 OA
ATOM     24  C   UNL     1      48.273  15.163  17.146  0.00  0.00    +0.190 A 
ATOM     25  C   UNL     1      47.773  16.338  17.687  0.00  0.00    -0.126 A 
ATOM     31  C   UNL     1      48.636  17.352  18.072  0.00  0.00    +0.182 A 
ENDROOT
BRANCH   7   8
ATOM      8  O   UNL     1      51.870  15.906  17.225  0.00  0.00    -0.468 OA
ATOM      9  H   UNL     1      52.280  15.320  17.876  0.00  0.00    +0.399 HD
ENDBRANCH   7   8
BRANCH  13  14
ATOM     14  O   UNL     1      50.922  11.267  15.287  0.00  0.00    -0.475 OA
ATOM     15  H   UNL     1      51.180  11.233  14.356  0.00  0.00    +0.401 HD
ENDBRANCH  13  14
BRANCH  18  19
ATOM     19  O   UNL     1      45.569  12.278  16.082  0.00  0.00    -0.476 OA
ATOM     20  H   UNL     1      45.221  13.011  15.555  0.00  0.00    +0.389 HD
ENDBRANCH  18  19
BRANCH  31  32
ATOM     32  O   UNL     1      48.135  18.495  18.605  0.00  0.00    -0.324 OA
ATOM     33  C   UNL     1      48.173  18.619  20.029  0.00  0.00    +0.239 C 
ENDBRANCH  31  32
BRANCH   6   5
ATOM      5  C   UNL     1      50.935  18.322  18.343  0.00  0.00    +0.128 C 
BRANCH   5   4
ATOM      1  C   UNL     1      50.954  21.125  18.625  0.00  0.00    +0.076 C 
ATOM      2  C   UNL     1      51.252  20.500  17.286  0.00  0.00    -0.127 C 
ATOM      3  C   UNL     1      51.554  21.375  16.097  0.00  0.00    +0.073 C 
ATOM      4  C   UNL     1      51.247  19.196  17.157  0.00  0.00    -0.051 C 
ENDBRANCH   5   4
ENDBRANCH   6   5
BRANCH  25  26
ATOM     26  C   UNL     1      46.286  16.512  17.861  0.00  0.00    +0.136 C 
BRANCH  26  27
ATOM     27  C   UNL     1      45.840  15.799  19.112  0.00  0.00    -0.060 C 
ATOM     28  C   UNL     1      45.105  16.426  19.997  0.00  0.00    -0.121 C 
ATOM     29  C   UNL     1      44.576  17.805  19.696  0.00  0.00    +0.079 C 
ATOM     30  C   UNL     1      44.793  15.771  21.318  0.00  0.00    +0.072 C 
ENDBRANCH  26  27
ENDBRANCH  25  26
TORSDOF 8
ENDMDL
MODEL 2
REMARK VINA RESULT:      -6.0      2.364      6.441
REMARK  Name = ZINC14727623
REMARK  13 active torsions:
REMARK  status: ('A' for Active; 'I' for Inactive)
REMARK    1  A    between atoms: C1_1  and  C2_2
REMARK    2  A    between atoms: C2_2  and  C24_30
REMARK    3  A    between atoms: C3_3  and  C4_4
REMARK    4  A    between atoms: C4_4  and  C5_5
REMARK    5  A    between atoms: C6_6  and  O6_29
REMARK    6  A    between atoms: C10_11  and  O5_28
REMARK    7  A    between atoms: C13_14  and  O4_27
REMARK    8  A    between atoms: C16_18  and  C19_22
REMARK    9  A    between atoms: C17_19  and  O3_20
REMARK   10  A    between atoms: O3_20  and  C18_21
REMARK   11  A    between atoms: C19_22  and  C20_23
REMARK   12  A    between atoms: C21_24  and  C22_25
REMARK   13  A    between atoms: C21_24  and  C23_26
REMARK                            x       y       z     vdW  Elec       q    Type
REMARK                         _______ _______ _______ _____ _____    ______ ____
ROOT
ATOM      6  C   UNL     1      45.233  19.565  19.932  0.00  0.00    -0.153 A 
ATOM      7  C   UNL     1      45.361  18.224  19.619  0.00  0.00    +0.216 A 
ATOM     10  C   UNL     1      46.547  17.761  19.032  0.00  0.00    -0.261 A 
ATOM     11  C   UNL     1      46.712  16.339  18.687  0.00  0.00    +0.439 A 
ATOM     12  C   UNL     1      47.989  15.951  18.059  0.00  0.00    -0.248 A 
ATOM     13  C   UNL     1      48.232  14.621  17.694  0.00  0.00    +0.196 A 
ATOM     16  C   UNL     1      49.444  14.282  17.114  0.00  0.00    -0.017 A 
ATOM     17  C   UNL     1      50.406  15.255  16.899  0.00  0.00    +0.092 A 
ATOM     18  C   UNL     1      50.175  16.571  17.255  0.00  0.00    +0.072 A 
ATOM     21  C   UNL     1      48.963  16.935  17.840  0.00  0.00    +0.155 A 
ATOM     22  O   UNL     1      48.742  18.221  18.188  0.00  0.00    -0.209 OA
ATOM     23  O   UNL     1      45.831  15.525  18.900  0.00  0.00    -0.418 OA
ATOM     24  C   UNL     1      47.598  18.652  18.757  0.00  0.00    +0.190 A 
ATOM     25  C   UNL     1      47.451  19.993  19.083  0.00  0.00    -0.126 A 
ATOM     31  C   UNL     1      46.276  20.444  19.664  0.00  0.00    +0.182 A 
ENDROOT
BRANCH   7   8
ATOM      8  O   UNL     1      44.347  17.362  19.880  0.00  0.00    -0.468 OA
ATOM      9  H   UNL     1      44.575  16.666  20.513  0.00  0.00    +0.399 HD
ENDBRANCH   7   8
BRANCH  13  14
ATOM     14  O   UNL     1      47.288  13.670  17.906  0.00  0.00    -0.475 OA
ATOM     15  H   UNL     1      46.724  13.840  18.674  0.00  0.00    +0.401 HD
ENDBRANCH  13  14
BRANCH  18  19
ATOM     19  O   UNL     1      51.133  17.511  17.035  0.00  0.00    -0.476 OA
ATOM     20  H   UNL     1      51.779  17.590  17.751  0.00  0.00    +0.389 HD
ENDBRANCH  18  19
BRANCH  31  32
ATOM     32  O   UNL     1      46.142  21.759  19.974  0.00  0.00    -0.324 OA
ATOM     33  C   UNL     1      46.519  22.156  21.295  0.00  0.00    +0.239 C 
ENDBRANCH  31  32
BRANCH   6   5
ATOM      5  C   UNL     1      43.963  20.073  20.564  0.00  0.00    +0.128 C 
BRANCH   5   4
ATOM      1  C   UNL     1      41.326  19.081  20.593  0.00  0.00    +0.076 C 
ATOM      2  C   UNL     1      41.768  20.015  19.496  0.00  0.00    -0.127 C 
ATOM      3  C   UNL     1      40.801  20.415  18.411  0.00  0.00    +0.073 C 
ATOM      4  C   UNL     1      42.993  20.480  19.486  0.00  0.00    -0.051 C 
ENDBRANCH   5   4
ENDBRANCH   6   5
BRANCH  25  26
ATOM     26  C   UNL     1      48.569  20.963  18.801  0.00  0.00    +0.136 C 
BRANCH  26  27
ATOM     27  C   UNL     1      49.673  20.764  19.808  0.00  0.00    -0.060 C 
ATOM     28  C   UNL     1      50.924  20.777  19.420  0.00  0.00    -0.121 C 
ATOM     29  C   UNL     1      51.268  21.144  17.998  0.00  0.00    +0.079 C 
ATOM     30  C   UNL     1      52.019  20.420  20.392  0.00  0.00    +0.072 C 
ENDBRANCH  26  27
ENDBRANCH  25  26
TORSDOF 8
ENDMDL
MODEL 3
REMARK VINA RESULT:      -5.9      2.184      6.147
REMARK  Name = ZINC14727623
REMARK  13 active torsions:
REMARK  status: ('A' for Active; 'I' for Inactive)
REMARK    1  A    between atoms: C1_1  and  C2_2
REMARK    2  A    between atoms: C2_2  and  C24_30
REMARK    3  A    between atoms: C3_3  and  C4_4
REMARK    4  A    between atoms: C4_4  and  C5_5
REMARK    5  A    between atoms: C6_6  and  O6_29
REMARK    6  A    between atoms: C10_11  and  O5_28
REMARK    7  A    between atoms: C13_14  and  O4_27
REMARK    8  A    between atoms: C16_18  and  C19_22
REMARK    9  A    between atoms: C17_19  and  O3_20
REMARK   10  A    between atoms: O3_20  and  C18_21
REMARK   11  A    between atoms: C19_22  and  C20_23
REMARK   12  A    between atoms: C21_24  and  C22_25
REMARK   13  A    between atoms: C21_24  and  C23_26
REMARK                            x       y       z     vdW  Elec       q    Type
REMARK                         _______ _______ _______ _____ _____    ______ ____
ROOT
ATOM      6  C   UNL     1      46.257  19.260  19.914  0.00  0.00    -0.153 A 
ATOM      7  C   UNL     1      46.273  17.989  19.370  0.00  0.00    +0.216 A 
ATOM     10  C   UNL     1      47.455  17.495  18.801  0.00  0.00    -0.261 A 
ATOM     11  C   UNL     1      47.503  16.146  18.214  0.00  0.00    +0.439 A 
ATOM     12  C   UNL     1      48.787  15.721  17.625  0.00  0.00    -0.248 A 
ATOM     13  C   UNL     1      48.924  14.456  17.041  0.00  0.00    +0.196 A 
ATOM     16  C   UNL     1      50.144  14.079  16.505  0.00  0.00    -0.017 A 
ATOM     17  C   UNL     1      51.220  14.950  16.548  0.00  0.00    +0.092 A 
ATOM     18  C   UNL     1      51.094  16.202  17.122  0.00  0.00    +0.072 A 
ATOM     21  C   UNL     1      49.876  16.603  17.668  0.00  0.00    +0.155 A 
ATOM     22  O   UNL     1      49.759  17.826  18.228  0.00  0.00    -0.209 OA
ATOM     23  O   UNL     1      46.525  15.420  18.204  0.00  0.00    -0.418 OA
ATOM     24  C   UNL     1      48.617  18.287  18.777  0.00  0.00    +0.190 A 
ATOM     25  C   UNL     1      48.580  19.558  19.332  0.00  0.00    -0.126 A 
ATOM     31  C   UNL     1      47.408  20.040  19.894  0.00  0.00    +0.182 A 
ENDROOT
BRANCH   7   8
ATOM      8  O   UNL     1      45.153  17.225  19.388  0.00  0.00    -0.468 OA
ATOM      9  H   UNL     1      45.102  16.620  20.142  0.00  0.00    +0.399 HD
ENDBRANCH   7   8
BRANCH  13  14
ATOM     14  O   UNL     1      47.868  13.604  17.001  0.00  0.00    -0.475 OA
ATOM     15  H   UNL     1      47.741  13.097  17.815  0.00  0.00    +0.401 HD
ENDBRANCH  13  14
BRANCH  18  19
ATOM     19  O   UNL     1      52.163  17.043  17.154  0.00  0.00    -0.476 OA
ATOM     20  H   UNL     1      52.627  17.059  18.003  0.00  0.00    +0.389 HD
ENDBRANCH  18  19
BRANCH  31  32
ATOM     32  O   UNL     1      47.383  21.287  20.430  0.00  0.00    -0.324 OA
ATOM     33  C   UNL     1      47.729  21.407  21.812  0.00  0.00    +0.239 C 
ENDBRANCH  31  32
BRANCH   6   5
ATOM      5  C   UNL     1      44.991  19.801  20.528  0.00  0.00    +0.128 C 
BRANCH   5   4
ATOM      1  C   UNL     1      42.266  19.093  20.606  0.00  0.00    +0.076 C 
ATOM      2  C   UNL     1      42.794  19.931  19.471  0.00  0.00    -0.127 C 
ATOM      3  C   UNL     1      41.866  20.386  18.374  0.00  0.00    +0.073 C 
ATOM      4  C   UNL     1      44.061  20.264  19.437  0.00  0.00    -0.051 C 
ENDBRANCH   5   4
ENDBRANCH   6   5
BRANCH  25  26
ATOM     26  C   UNL     1      49.817  20.419  19.321  0.00  0.00    +0.136 C 
BRANCH  26  27
ATOM     27  C   UNL     1      50.095  20.880  17.914  0.00  0.00    -0.060 C 
ATOM     28  C   UNL     1      51.323  20.880  17.454  0.00  0.00    -0.121 C 
ATOM     29  C   UNL     1      52.434  20.276  18.276  0.00  0.00    +0.079 C 
ATOM     30  C   UNL     1      51.625  21.488  16.109  0.00  0.00    +0.072 C 
ENDBRANCH  26  27
ENDBRANCH  25  26
TORSDOF 8
ENDMDL
MODEL 4
REMARK VINA RESULT:      -5.8      2.033      3.236
REMARK  Name = ZINC14727623
REMARK  13 active torsions:
REMARK  status: ('A' for Active; 'I' for Inactive)
REMARK    1  A    between atoms: C1_1  and  C2_2
REMARK    2  A    between atoms: C2_2  and  C24_30
REMARK    3  A    between atoms: C3_3  and  C4_4
REMARK    4  A    between atoms: C4_4  and  C5_5
REMARK    5  A    between atoms: C6_6  and  O6_29
REMARK    6  A    between atoms: C10_11  and  O5_28
REMARK    7  A    between atoms: C13_14  and  O4_27
REMARK    8  A    between atoms: C16_18  and  C19_22
REMARK    9  A    between atoms: C17_19  and  O3_20
REMARK   10  A    between atoms: O3_20  and  C18_21
REMARK   11  A    between atoms: C19_22  and  C20_23
REMARK   12  A    between atoms: C21_24  and  C22_25
REMARK   13  A    between atoms: C21_24  and  C23_26
REMARK                            x       y       z     vdW  Elec       q    Type
REMARK                         _______ _______ _______ _____ _____    ______ ____
ROOT
ATOM      6  C   UNL     1      47.849  19.178  19.106  0.00  0.00    -0.153 A 
ATOM      7  C   UNL     1      48.359  18.150  18.335  0.00  0.00    +0.216 A 
ATOM     10  C   UNL     1      47.691  16.917  18.299  0.00  0.00    -0.261 A 
ATOM     11  C   UNL     1      48.210  15.804  17.488  0.00  0.00    +0.439 A 
ATOM     12  C   UNL     1      47.447  14.541  17.526  0.00  0.00    -0.248 A 
ATOM     13  C   UNL     1      47.868  13.427  16.789  0.00  0.00    +0.196 A 
ATOM     16  C   UNL     1      47.127  12.258  16.835  0.00  0.00    -0.017 A 
ATOM     17  C   UNL     1      45.979  12.193  17.606  0.00  0.00    +0.092 A 
ATOM     18  C   UNL     1      45.555  13.288  18.338  0.00  0.00    +0.072 A 
ATOM     21  C   UNL     1      46.285  14.476  18.307  0.00  0.00    +0.155 A 
ATOM     22  O   UNL     1      45.867  15.542  19.022  0.00  0.00    -0.209 OA
ATOM     23  O   UNL     1      49.227  15.915  16.827  0.00  0.00    -0.418 OA
ATOM     24  C   UNL     1      46.515  16.724  19.044  0.00  0.00    +0.190 A 
ATOM     25  C   UNL     1      46.019  17.771  19.807  0.00  0.00    -0.126 A 
ATOM     31  C   UNL     1      46.683  18.988  19.839  0.00  0.00    +0.182 A 
ENDROOT
BRANCH   7   8
ATOM      8  O   UNL     1      49.495  18.332  17.618  0.00  0.00    -0.468 OA
ATOM      9  H   UNL     1      49.404  18.125  16.677  0.00  0.00    +0.399 HD
ENDBRANCH   7   8
BRANCH  13  14
ATOM     14  O   UNL     1      48.994  13.493  16.034  0.00  0.00    -0.475 OA
ATOM     15  H   UNL     1      49.435  14.353  16.060  0.00  0.00    +0.401 HD
ENDBRANCH  13  14
BRANCH  18  19
ATOM     19  O   UNL     1      44.424  13.204  19.089  0.00  0.00    -0.476 OA
ATOM     20  H   UNL     1      44.373  12.408  19.636  0.00  0.00    +0.389 HD
ENDBRANCH  18  19
BRANCH  31  32
ATOM     32  O   UNL     1      46.190  20.003  20.593  0.00  0.00    -0.324 OA
ATOM     33  C   UNL     1      46.521  19.998  21.984  0.00  0.00    +0.239 C 
ENDBRANCH  31  32
BRANCH   6   5
ATOM      5  C   UNL     1      48.558  20.508  19.152  0.00  0.00    +0.128 C 
BRANCH   5   4
ATOM      1  C   UNL     1      51.162  21.236  18.361  0.00  0.00    +0.076 C 
ATOM      2  C   UNL     1      50.905  20.772  19.772  0.00  0.00    -0.127 C 
ATOM      3  C   UNL     1      52.042  20.693  20.758  0.00  0.00    +0.073 C 
ATOM      4  C   UNL     1      49.693  20.438  20.141  0.00  0.00    -0.051 C 
ENDBRANCH   5   4
ENDBRANCH   6   5
BRANCH  25  26
ATOM     26  C   UNL     1      44.756  17.584  20.609  0.00  0.00    +0.136 C 
BRANCH  26  27
ATOM     27  C   UNL     1      43.631  18.347  19.958  0.00  0.00    -0.060 C 
ATOM     28  C   UNL     1      42.675  18.859  20.693  0.00  0.00    -0.121 C 
ATOM     29  C   UNL     1      42.779  18.822  22.197  0.00  0.00    +0.079 C 
ATOM     30  C   UNL     1      41.470  19.481  20.037  0.00  0.00    +0.072 C 
ENDBRANCH  26  27
ENDBRANCH  25  26
TORSDOF 8
ENDMDL
MODEL 5
REMARK VINA RESULT:      -5.8      1.661      4.659
REMARK  Name = ZINC14727623
REMARK  13 active torsions:
REMARK  status: ('A' for Active; 'I' for Inactive)
REMARK    1  A    between atoms: C1_1  and  C2_2
REMARK    2  A    between atoms: C2_2  and  C24_30
REMARK    3  A    between atoms: C3_3  and  C4_4
REMARK    4  A    between atoms: C4_4  and  C5_5
REMARK    5  A    between atoms: C6_6  and  O6_29
REMARK    6  A    between atoms: C10_11  and  O5_28
REMARK    7  A    between atoms: C13_14  and  O4_27
REMARK    8  A    between atoms: C16_18  and  C19_22
REMARK    9  A    between atoms: C17_19  and  O3_20
REMARK   10  A    between atoms: O3_20  and  C18_21
REMARK   11  A    between atoms: C19_22  and  C20_23
REMARK   12  A    between atoms: C21_24  and  C22_25
REMARK   13  A    between atoms: C21_24  and  C23_26
REMARK                            x       y       z     vdW  Elec       q    Type
REMARK                         _______ _______ _______ _____ _____    ______ ____
ROOT
ATOM      6  C   UNL     1      47.647  17.173  19.126  0.00  0.00    -0.153 A 
ATOM      7  C   UNL     1      47.060  16.077  18.522  0.00  0.00    +0.216 A 
ATOM     10  C   UNL     1      47.827  15.259  17.680  0.00  0.00    -0.261 A 
ATOM     11  C   UNL     1      47.230  14.085  17.022  0.00  0.00    +0.439 A 
ATOM     12  C   UNL     1      48.113  13.295  16.142  0.00  0.00    -0.248 A 
ATOM     13  C   UNL     1      47.631  12.163  15.473  0.00  0.00    +0.196 A 
ATOM     16  C   UNL     1      48.484  11.435  14.661  0.00  0.00    -0.017 A 
ATOM     17  C   UNL     1      49.804  11.825  14.514  0.00  0.00    +0.092 A 
ATOM     18  C   UNL     1      50.290  12.941  15.171  0.00  0.00    +0.072 A 
ATOM     21  C   UNL     1      49.450  13.690  15.993  0.00  0.00    +0.155 A 
ATOM     22  O   UNL     1      49.929  14.778  16.633  0.00  0.00    -0.209 OA
ATOM     23  O   UNL     1      46.061  13.787  17.187  0.00  0.00    -0.418 OA
ATOM     24  C   UNL     1      49.181  15.553  17.445  0.00  0.00    +0.190 A 
ATOM     25  C   UNL     1      49.751  16.656  18.065  0.00  0.00    -0.126 A 
ATOM     31  C   UNL     1      48.987  17.460  18.897  0.00  0.00    +0.182 A 
ENDROOT
BRANCH   7   8
ATOM      8  O   UNL     1      45.753  15.793  18.744  0.00  0.00    -0.468 OA
ATOM      9  H   UNL     1      45.355  15.220  18.072  0.00  0.00    +0.399 HD
ENDBRANCH   7   8
BRANCH  13  14
ATOM     14  O   UNL     1      46.336  11.783  15.618  0.00  0.00    -0.475 OA
ATOM     15  H   UNL     1      45.761  12.060  14.892  0.00  0.00    +0.401 HD
ENDBRANCH  13  14
BRANCH  18  19
ATOM     19  O   UNL     1      51.591  13.307  15.013  0.00  0.00    -0.476 OA
ATOM     20  H   UNL     1      51.813  13.592  14.116  0.00  0.00    +0.389 HD
ENDBRANCH  18  19
BRANCH  31  32
ATOM     32  O   UNL     1      49.554  18.539  19.494  0.00  0.00    -0.324 OA
ATOM     33  C   UNL     1      50.123  18.339  20.790  0.00  0.00    +0.239 C 
ENDBRANCH  31  32
BRANCH   6   5
ATOM      5  C   UNL     1      46.831  18.059  20.034  0.00  0.00    +0.128 C 
BRANCH   5   4
ATOM      1  C   UNL     1      47.189  20.752  20.779  0.00  0.00    +0.076 C 
ATOM      2  C   UNL     1      46.354  20.408  19.572  0.00  0.00    -0.127 C 
ATOM      3  C   UNL     1      45.705  21.505  18.767  0.00  0.00    +0.073 C 
ATOM      4  C   UNL     1      46.191  19.156  19.223  0.00  0.00    -0.051 C 
ENDBRANCH   5   4
ENDBRANCH   6   5
BRANCH  25  26
ATOM     26  C   UNL     1      51.203  16.984  17.830  0.00  0.00    +0.136 C 
BRANCH  26  27
ATOM     27  C   UNL     1      51.323  17.919  16.654  0.00  0.00    -0.060 C 
ATOM     28  C   UNL     1      51.911  19.081  16.797  0.00  0.00    -0.121 C 
ATOM     29  C   UNL     1      52.603  19.420  18.093  0.00  0.00    +0.079 C 
ATOM     30  C   UNL     1      51.890  20.081  15.670  0.00  0.00    +0.072 C 
ENDBRANCH  26  27
ENDBRANCH  25  26
TORSDOF 8
ENDMDL
MODEL 6
REMARK VINA RESULT:      -5.8      1.536      2.093
REMARK  Name = ZINC14727623
REMARK  13 active torsions:
REMARK  status: ('A' for Active; 'I' for Inactive)
REMARK    1  A    between atoms: C1_1  and  C2_2
REMARK    2  A    between atoms: C2_2  and  C24_30
REMARK    3  A    between atoms: C3_3  and  C4_4
REMARK    4  A    between atoms: C4_4  and  C5_5
REMARK    5  A    between atoms: C6_6  and  O6_29
REMARK    6  A    between atoms: C10_11  and  O5_28
REMARK    7  A    between atoms: C13_14  and  O4_27
REMARK    8  A    between atoms: C16_18  and  C19_22
REMARK    9  A    between atoms: C17_19  and  O3_20
REMARK   10  A    between atoms: O3_20  and  C18_21
REMARK   11  A    between atoms: C19_22  and  C20_23
REMARK   12  A    between atoms: C21_24  and  C22_25
REMARK   13  A    between atoms: C21_24  and  C23_26
REMARK                            x       y       z     vdW  Elec       q    Type
REMARK                         _______ _______ _______ _____ _____    ______ ____
ROOT
ATOM      6  C   UNL     1      50.711  17.478  18.178  0.00  0.00    -0.153 A 
ATOM      7  C   UNL     1      50.553  16.334  17.417  0.00  0.00    +0.216 A 
ATOM     10  C   UNL     1      49.383  15.574  17.547  0.00  0.00    -0.261 A 
ATOM     11  C   UNL     1      49.186  14.352  16.752  0.00  0.00    +0.439 A 
ATOM     12  C   UNL     1      47.929  13.610  16.969  0.00  0.00    -0.248 A 
ATOM     13  C   UNL     1      47.658  12.435  16.259  0.00  0.00    +0.196 A 
ATOM     16  C   UNL     1      46.465  11.765  16.476  0.00  0.00    -0.017 A 
ATOM     17  C   UNL     1      45.549  12.256  17.391  0.00  0.00    +0.092 A 
ATOM     18  C   UNL     1      45.808  13.417  18.098  0.00  0.00    +0.072 A 
ATOM     21  C   UNL     1      47.002  14.108  17.896  0.00  0.00    +0.155 A 
ATOM     22  O   UNL     1      47.249  15.241  18.587  0.00  0.00    -0.209 OA
ATOM     23  O   UNL     1      50.026  13.964  15.959  0.00  0.00    -0.418 OA
ATOM     24  C   UNL     1      48.378  15.966  18.449  0.00  0.00    +0.190 A 
ATOM     25  C   UNL     1      48.555  17.120  19.199  0.00  0.00    -0.126 A 
ATOM     31  C   UNL     1      49.715  17.868  19.065  0.00  0.00    +0.182 A 
ENDROOT
BRANCH   7   8
ATOM      8  O   UNL     1      51.523  15.952  16.550  0.00  0.00    -0.468 OA
ATOM      9  H   UNL     1      51.244  15.268  15.925  0.00  0.00    +0.399 HD
ENDBRANCH   7   8
BRANCH  13  14
ATOM     14  O   UNL     1      48.557  11.955  15.363  0.00  0.00    -0.475 OA
ATOM     15  H   UNL     1      49.350  11.576  15.767  0.00  0.00    +0.401 HD
ENDBRANCH  13  14
BRANCH  18  19
ATOM     19  O   UNL     1      44.895  13.884  18.992  0.00  0.00    -0.476 OA
ATOM     20  H   UNL     1      44.930  14.841  19.127  0.00  0.00    +0.389 HD
ENDBRANCH  18  19
BRANCH  31  32
ATOM     32  O   UNL     1      49.879  18.991  19.808  0.00  0.00    -0.324 OA
ATOM     33  C   UNL     1      50.465  18.834  21.103  0.00  0.00    +0.239 C 
ENDBRANCH  31  32
BRANCH   6   5
ATOM      5  C   UNL     1      51.966  18.303  18.046  0.00  0.00    +0.128 C 
BRANCH   5   4
ATOM      1  C   UNL     1      51.910  21.086  18.477  0.00  0.00    +0.076 C 
ATOM      2  C   UNL     1      51.797  20.538  17.078  0.00  0.00    -0.127 C 
ATOM      3  C   UNL     1      51.649  21.478  15.909  0.00  0.00    +0.073 C 
ATOM      4  C   UNL     1      51.828  19.244  16.877  0.00  0.00    -0.051 C 
ENDBRANCH   5   4
ENDBRANCH   6   5
BRANCH  25  26
ATOM     26  C   UNL     1      47.486  17.559  20.166  0.00  0.00    +0.136 C 
BRANCH  26  27
ATOM     27  C   UNL     1      46.657  18.649  19.538  0.00  0.00    -0.060 C 
ATOM     28  C   UNL     1      45.369  18.477  19.365  0.00  0.00    -0.121 C 
ATOM     29  C   UNL     1      44.690  17.257  19.933  0.00  0.00    +0.079 C 
ATOM     30  C   UNL     1      44.569  19.495  18.594  0.00  0.00    +0.072 C 
ENDBRANCH  26  27
ENDBRANCH  25  26
TORSDOF 8
ENDMDL
MODEL 7
REMARK VINA RESULT:      -5.8      4.824      8.167
REMARK  Name = ZINC14727623
REMARK  13 active torsions:
REMARK  status: ('A' for Active; 'I' for Inactive)
REMARK    1  A    between atoms: C1_1  and  C2_2
REMARK    2  A    between atoms: C2_2  and  C24_30
REMARK    3  A    between atoms: C3_3  and  C4_4
REMARK    4  A    between atoms: C4_4  and  C5_5
REMARK    5  A    between atoms: C6_6  and  O6_29
REMARK    6  A    between atoms: C10_11  and  O5_28
REMARK    7  A    between atoms: C13_14  and  O4_27
REMARK    8  A    between atoms: C16_18  and  C19_22
REMARK    9  A    between atoms: C17_19  and  O3_20
REMARK   10  A    between atoms: O3_20  and  C18_21
REMARK   11  A    between atoms: C19_22  and  C20_23
REMARK   12  A    between atoms: C21_24  and  C22_25
REMARK   13  A    between atoms: C21_24  and  C23_26
REMARK                            x       y       z     vdW  Elec       q    Type
REMARK                         _______ _______ _______ _____ _____    ______ ____
ROOT
ATOM      6  C   UNL     1      47.217  20.341  21.636  0.00  0.00    -0.153 A 
ATOM      7  C   UNL     1      46.449  21.336  21.060  0.00  0.00    +0.216 A 
ATOM     10  C   UNL     1      45.159  21.035  20.599  0.00  0.00    -0.261 A 
ATOM     11  C   UNL     1      44.318  22.074  19.982  0.00  0.00    +0.439 A 
ATOM     12  C   UNL     1      42.983  21.657  19.512  0.00  0.00    -0.248 A 
ATOM     13  C   UNL     1      42.116  22.577  18.910  0.00  0.00    +0.196 A 
ATOM     16  C   UNL     1      40.864  22.160  18.488  0.00  0.00    -0.017 A 
ATOM     17  C   UNL     1      40.476  20.843  18.662  0.00  0.00    +0.092 A 
ATOM     18  C   UNL     1      41.325  19.927  19.256  0.00  0.00    +0.072 A 
ATOM     21  C   UNL     1      42.590  20.323  19.688  0.00  0.00    +0.155 A 
ATOM     22  O   UNL     1      43.415  19.425  20.269  0.00  0.00    -0.209 OA
ATOM     23  O   UNL     1      44.710  23.220  19.853  0.00  0.00    -0.418 OA
ATOM     24  C   UNL     1      44.651  19.729  20.713  0.00  0.00    +0.190 A 
ATOM     25  C   UNL     1      45.437  18.747  21.298  0.00  0.00    -0.126 A 
ATOM     31  C   UNL     1      46.711  19.052  21.753  0.00  0.00    +0.182 A 
ENDROOT
BRANCH   7   8
ATOM      8  O   UNL     1      46.938  22.596  20.945  0.00  0.00    -0.468 OA
ATOM      9  H   UNL     1      46.303  23.233  20.588  0.00  0.00    +0.399 HD
ENDBRANCH   7   8
BRANCH  13  14
ATOM     14  O   UNL     1      42.499  23.867  18.740  0.00  0.00    -0.475 OA
ATOM     15  H   UNL     1      41.794  24.449  18.424  0.00  0.00    +0.401 HD
ENDBRANCH  13  14
BRANCH  18  19
ATOM     19  O   UNL     1      40.924  18.636  19.418  0.00  0.00    -0.476 OA
ATOM     20  H   UNL     1      40.202  18.525  20.052  0.00  0.00    +0.389 HD
ENDBRANCH  18  19
BRANCH  31  32
ATOM     32  O   UNL     1      47.472  18.081  22.318  0.00  0.00    -0.324 OA
ATOM     33  C   UNL     1      48.309  17.320  21.444  0.00  0.00    +0.239 C 
ENDBRANCH  31  32
BRANCH   6   5
ATOM      5  C   UNL     1      48.604  20.654  22.135  0.00  0.00    +0.128 C 
BRANCH   5   4
ATOM      1  C   UNL     1      51.200  21.708  22.430  0.00  0.00    +0.076 C 
ATOM      2  C   UNL     1      50.784  21.082  21.124  0.00  0.00    -0.127 C 
ATOM      3  C   UNL     1      51.755  21.025  19.973  0.00  0.00    +0.073 C 
ATOM      4  C   UNL     1      49.578  20.588  20.988  0.00  0.00    -0.051 C 
ENDBRANCH   5   4
ENDBRANCH   6   5
BRANCH  25  26
ATOM     26  C   UNL     1      44.907  17.343  21.434  0.00  0.00    +0.136 C 
BRANCH  26  27
ATOM     27  C   UNL     1      45.108  16.602  20.138  0.00  0.00    -0.060 C 
ATOM     28  C   UNL     1      45.351  15.314  20.149  0.00  0.00    -0.121 C 
ATOM     29  C   UNL     1      45.276  14.546  21.444  0.00  0.00    +0.079 C 
ATOM     30  C   UNL     1      45.711  14.603  18.871  0.00  0.00    +0.072 C 
ENDBRANCH  26  27
ENDBRANCH  25  26
TORSDOF 8
ENDMDL
MODEL 8
REMARK VINA RESULT:      -5.7      4.026      7.522
REMARK  Name = ZINC14727623
REMARK  13 active torsions:
REMARK  status: ('A' for Active; 'I' for Inactive)
REMARK    1  A    between atoms: C1_1  and  C2_2
REMARK    2  A    between atoms: C2_2  and  C24_30
REMARK    3  A    between atoms: C3_3  and  C4_4
REMARK    4  A    between atoms: C4_4  and  C5_5
REMARK    5  A    between atoms: C6_6  and  O6_29
REMARK    6  A    between atoms: C10_11  and  O5_28
REMARK    7  A    between atoms: C13_14  and  O4_27
REMARK    8  A    between atoms: C16_18  and  C19_22
REMARK    9  A    between atoms: C17_19  and  O3_20
REMARK   10  A    between atoms: O3_20  and  C18_21
REMARK   11  A    between atoms: C19_22  and  C20_23
REMARK   12  A    between atoms: C21_24  and  C22_25
REMARK   13  A    between atoms: C21_24  and  C23_26
REMARK                            x       y       z     vdW  Elec       q    Type
REMARK                         _______ _______ _______ _____ _____    ______ ____
ROOT
ATOM      6  C   UNL     1      47.751  19.162  20.326  0.00  0.00    -0.153 A 
ATOM      7  C   UNL     1      46.972  20.235  19.933  0.00  0.00    +0.216 A 
ATOM     10  C   UNL     1      45.577  20.104  19.909  0.00  0.00    -0.261 A 
ATOM     11  C   UNL     1      44.722  21.228  19.496  0.00  0.00    +0.439 A 
ATOM     12  C   UNL     1      43.265  20.989  19.488  0.00  0.00    -0.248 A 
ATOM     13  C   UNL     1      42.375  22.000  19.105  0.00  0.00    +0.196 A 
ATOM     16  C   UNL     1      41.013  21.751  19.117  0.00  0.00    -0.017 A 
ATOM     17  C   UNL     1      40.537  20.510  19.505  0.00  0.00    +0.092 A 
ATOM     18  C   UNL     1      41.409  19.505  19.884  0.00  0.00    +0.072 A 
ATOM     21  C   UNL     1      42.784  19.732  19.880  0.00  0.00    +0.155 A 
ATOM     22  O   UNL     1      43.630  18.749  20.253  0.00  0.00    -0.209 OA
ATOM     23  O   UNL     1      45.194  22.301  19.164  0.00  0.00    -0.418 OA
ATOM     24  C   UNL     1      44.971  18.889  20.276  0.00  0.00    +0.190 A 
ATOM     25  C   UNL     1      45.772  17.827  20.671  0.00  0.00    -0.126 A 
ATOM     31  C   UNL     1      47.151  17.963  20.693  0.00  0.00    +0.182 A 
ENDROOT
BRANCH   7   8
ATOM      8  O   UNL     1      47.554  21.407  19.575  0.00  0.00    -0.468 OA
ATOM      9  H   UNL     1      47.759  21.988  20.321  0.00  0.00    +0.399 HD
ENDBRANCH   7   8
BRANCH  13  14
ATOM     14  O   UNL     1      42.844  23.216  18.726  0.00  0.00    -0.475 OA
ATOM     15  H   UNL     1      42.688  23.917  19.373  0.00  0.00    +0.401 HD
ENDBRANCH  13  14
BRANCH  18  19
ATOM     19  O   UNL     1      40.921  18.292  20.262  0.00  0.00    -0.476 OA
ATOM     20  H   UNL     1      41.381  17.541  19.862  0.00  0.00    +0.389 HD
ENDBRANCH  18  19
BRANCH  31  32
ATOM     32  O   UNL     1      47.924  16.915  21.076  0.00  0.00    -0.324 OA
ATOM     33  C   UNL     1      48.221  16.805  22.470  0.00  0.00    +0.239 C 
ENDBRANCH  31  32
BRANCH   6   5
ATOM      5  C   UNL     1      49.253  19.293  20.355  0.00  0.00    +0.128 C 
BRANCH   5   4
ATOM      1  C   UNL     1      50.904  21.011  18.853  0.00  0.00    +0.076 C 
ATOM      2  C   UNL     1      50.588  19.631  18.339  0.00  0.00    -0.127 C 
ATOM      3  C   UNL     1      51.150  19.171  17.019  0.00  0.00    +0.073 C 
ATOM      4  C   UNL     1      49.824  18.830  19.040  0.00  0.00    -0.051 C 
ENDBRANCH   5   4
ENDBRANCH   6   5
BRANCH  25  26
ATOM     26  C   UNL     1      45.140  16.519  21.073  0.00  0.00    +0.136 C 
BRANCH  26  27
ATOM     27  C   UNL     1      45.118  15.587  19.889  0.00  0.00    -0.060 C 
ATOM     28  C   UNL     1      45.321  14.304  20.061  0.00  0.00    -0.121 C 
ATOM     29  C   UNL     1      45.421  13.738  21.455  0.00  0.00    +0.079 C 
ATOM     30  C   UNL     1      45.459  13.395  18.867  0.00  0.00    +0.072 C 
ENDBRANCH  26  27
ENDBRANCH  25  26
TORSDOF 8
ENDMDL
MODEL 9
REMARK VINA RESULT:      -5.5      3.160      6.665
REMARK  Name = ZINC14727623
REMARK  13 active torsions:
REMARK  status: ('A' for Active; 'I' for Inactive)
REMARK    1  A    between atoms: C1_1  and  C2_2
REMARK    2  A    between atoms: C2_2  and  C24_30
REMARK    3  A    between atoms: C3_3  and  C4_4
REMARK    4  A    between atoms: C4_4  and  C5_5
REMARK    5  A    between atoms: C6_6  and  O6_29
REMARK    6  A    between atoms: C10_11  and  O5_28
REMARK    7  A    between atoms: C13_14  and  O4_27
REMARK    8  A    between atoms: C16_18  and  C19_22
REMARK    9  A    between atoms: C17_19  and  O3_20
REMARK   10  A    between atoms: O3_20  and  C18_21
REMARK   11  A    between atoms: C19_22  and  C20_23
REMARK   12  A    between atoms: C21_24  and  C22_25
REMARK   13  A    between atoms: C21_24  and  C23_26
REMARK                            x       y       z     vdW  Elec       q    Type
REMARK                         _______ _______ _______ _____ _____    ______ ____
ROOT
ATOM      6  C   UNL     1      45.424  19.065  20.151  0.00  0.00    -0.153 A 
ATOM      7  C   UNL     1      46.535  19.812  19.806  0.00  0.00    +0.216 A 
ATOM     10  C   UNL     1      47.601  19.196  19.135  0.00  0.00    -0.261 A 
ATOM     11  C   UNL     1      48.798  19.964  18.756  0.00  0.00    +0.439 A 
ATOM     12  C   UNL     1      49.873  19.225  18.067  0.00  0.00    -0.248 A 
ATOM     13  C   UNL     1      51.049  19.874  17.671  0.00  0.00    +0.196 A 
ATOM     16  C   UNL     1      52.038  19.158  17.018  0.00  0.00    -0.017 A 
ATOM     17  C   UNL     1      51.862  17.809  16.759  0.00  0.00    +0.092 A 
ATOM     18  C   UNL     1      50.704  17.159  17.145  0.00  0.00    +0.072 A 
ATOM     21  C   UNL     1      49.695  17.859  17.805  0.00  0.00    +0.155 A 
ATOM     22  O   UNL     1      48.566  17.221  18.179  0.00  0.00    -0.209 OA
ATOM     23  O   UNL     1      48.900  21.152  19.008  0.00  0.00    -0.418 OA
ATOM     24  C   UNL     1      47.545  17.827  18.819  0.00  0.00    +0.190 A 
ATOM     25  C   UNL     1      46.418  17.098  19.171  0.00  0.00    -0.126 A 
ATOM     31  C   UNL     1      45.368  17.713  19.833  0.00  0.00    +0.182 A 
ENDROOT
BRANCH   7   8
ATOM      8  O   UNL     1      46.594  21.132  20.112  0.00  0.00    -0.468 OA
ATOM      9  H   UNL     1      46.532  21.318  21.060  0.00  0.00    +0.399 HD
ENDBRANCH   7   8
BRANCH  13  14
ATOM     14  O   UNL     1      51.219  21.196  17.927  0.00  0.00    -0.475 OA
ATOM     15  H   UNL     1      50.474  21.748  17.654  0.00  0.00    +0.401 HD
ENDBRANCH  13  14
BRANCH  18  19
ATOM     19  O   UNL     1      50.550  15.833  16.881  0.00  0.00    -0.476 OA
ATOM     20  H   UNL     1      50.602  15.267  17.664  0.00  0.00    +0.389 HD
ENDBRANCH  18  19
BRANCH  31  32
ATOM     32  O   UNL     1      44.273  16.988  20.176  0.00  0.00    -0.324 OA
ATOM     33  C   UNL     1      44.198  16.525  21.527  0.00  0.00    +0.239 C 
ENDBRANCH  31  32
BRANCH   6   5
ATOM      5  C   UNL     1      44.272  19.718  20.872  0.00  0.00    +0.128 C 
BRANCH   5   4
ATOM      1  C   UNL     1      41.556  18.973  20.934  0.00  0.00    +0.076 C 
ATOM      2  C   UNL     1      42.048  19.943  19.891  0.00  0.00    -0.127 C 
ATOM      3  C   UNL     1      41.088  20.511  18.877  0.00  0.00    +0.073 C 
ATOM      4  C   UNL     1      43.310  20.294  19.865  0.00  0.00    -0.051 C 
ENDBRANCH   5   4
ENDBRANCH   6   5
BRANCH  25  26
ATOM     26  C   UNL     1      46.338  15.631  18.835  0.00  0.00    +0.136 C 
BRANCH  26  27
ATOM     27  C   UNL     1      46.972  14.827  19.941  0.00  0.00    -0.060 C 
ATOM     28  C   UNL     1      46.355  13.777  20.426  0.00  0.00    -0.121 C 
ATOM     29  C   UNL     1      45.089  13.282  19.775  0.00  0.00    +0.079 C 
ATOM     30  C   UNL     1      46.908  13.069  21.635  0.00  0.00    +0.072 C 
ENDBRANCH  26  27
ENDBRANCH  25  26
TORSDOF 8
ENDMDL
