MODEL 1
REMARK VINA RESULT:      -5.2      0.000      0.000
REMARK  Name = ZINC95486254
REMARK  17 active torsions:
REMARK  status: ('A' for Active; 'I' for Inactive)
REMARK    1  A    between atoms: C1_1  and  C2_2
REMARK    2  A    between atoms: C3_3  and  O8_33
REMARK    3  A    between atoms: C4_4  and  C13_16
REMARK    4  A    between atoms: C5_5  and  O3_15
REMARK    5  A    between atoms: C6_6  and  C9_10
REMARK    6  A    between atoms: C7_7  and  O1_8
REMARK    7  A    between atoms: O1_8  and  C8_9
REMARK    8  A    between atoms: C9_10  and  C10_12
REMARK    9  A    between atoms: C10_12  and  C11_13
REMARK   10  A    between atoms: C10_12  and  C12_14
REMARK   11  A    between atoms: C13_16  and  C14_17
REMARK   12  A    between atoms: C14_17  and  C25_32
REMARK   13  A    between atoms: C16_19  and  C24_30
REMARK   14  A    between atoms: C18_22  and  C20_25
REMARK   15  A    between atoms: C20_25  and  C21_27
REMARK   16  A    between atoms: C21_27  and  C22_28
REMARK   17  A    between atoms: C21_27  and  C23_29
REMARK                            x       y       z     vdW  Elec       q    Type
REMARK                         _______ _______ _______ _____ _____    ______ ____
ROOT
ATOM      1  C   UNL     1      48.456  20.975  21.130  0.00  0.00    +0.117 C 
ATOM      2  C   UNL     1      48.938  19.819  20.291  0.00  0.00    -0.130 A 
ATOM      3  C   UNL     1      48.287  18.593  20.362  0.00  0.00    +0.133 A 
ATOM      6  C   UNL     1      48.722  17.521  19.593  0.00  0.00    -0.136 A 
ATOM     24  C   UNL     1      49.808  17.664  18.750  0.00  0.00    +0.174 A 
ATOM     27  C   UNL     1      50.473  18.901  18.671  0.00  0.00    -0.201 A 
ATOM     33  C   UNL     1      50.022  19.984  19.450  0.00  0.00    +0.159 A 
ENDROOT
BRANCH   3   4
ATOM      4  O   UNL     1      47.221  18.442  21.186  0.00  0.00    -0.469 OA
ATOM      5  H   UNL     1      47.365  18.781  22.081  0.00  0.00    +0.389 HD
ENDBRANCH   3   4
BRANCH  24  25
ATOM     25  O   UNL     1      50.231  16.615  18.002  0.00  0.00    -0.481 OA
ATOM     26  H   UNL     1      50.061  15.751  18.404  0.00  0.00    +0.392 HD
ENDBRANCH  24  25
BRANCH  27  28
ATOM     28  C   UNL     1      51.622  19.064  17.784  0.00  0.00    +0.423 C 
ATOM     32  O   UNL     1      52.737  18.786  18.176  0.00  0.00    -0.430 OA
BRANCH  28  29
ATOM     29  C   UNL     1      51.425  19.575  16.380  0.00  0.00    -0.037 C 
ATOM     30  C   UNL     1      52.152  18.658  15.395  0.00  0.00    +0.054 C 
ATOM     31  C   UNL     1      51.990  20.993  16.269  0.00  0.00    +0.050 C 
ENDBRANCH  28  29
ENDBRANCH  27  28
BRANCH  33  34
ATOM     34  O   UNL     1      50.651  21.183  19.379  0.00  0.00    -0.330 OA
ATOM     35  C   UNL     1      51.770  21.380  20.247  0.00  0.00    +0.240 C 
ENDBRANCH  33  34
BRANCH   6   7
ATOM      7  C   UNL     1      48.008  16.197  19.679  0.00  0.00    +0.143 C 
BRANCH   7   8
ATOM      8  C   UNL     1      46.818  16.196  18.717  0.00  0.00    -0.149 C 
ATOM      9  C   UNL     1      46.841  17.465  17.865  0.00  0.00    +0.093 C 
ATOM     10  C   UNL     1      45.526  16.128  19.502  0.00  0.00    +0.374 C 
ATOM     11  O   UNL     1      44.781  17.077  19.553  0.00  0.00    -0.408 OA
ATOM     12  C   UNL     1      45.192  14.838  20.222  0.00  0.00    -0.054 C 
ATOM     13  C   UNL     1      46.145  14.644  21.402  0.00  0.00    +0.127 C 
ATOM     14  C   UNL     1      45.352  13.697  19.240  0.00  0.00    +0.392 C 
ATOM     15  C   UNL     1      46.634  13.617  18.439  0.00  0.00    -0.082 C 
ATOM     21  O   UNL     1      44.481  12.874  19.099  0.00  0.00    -0.403 OA
ATOM     22  C   UNL     1      46.887  14.976  17.821  0.00  0.00    +0.390 C 
ATOM     23  O   UNL     1      47.136  15.086  16.644  0.00  0.00    -0.391 OA
BRANCH  15  16
ATOM     16  C   UNL     1      47.780  13.251  19.347  0.00  0.00    +0.378 C 
ATOM     20  O   UNL     1      47.561  12.788  20.440  0.00  0.00    -0.407 OA
BRANCH  16  17
ATOM     17  C   UNL     1      49.201  13.462  18.890  0.00  0.00    -0.045 C 
ATOM     18  C   UNL     1      49.537  12.458  17.785  0.00  0.00    +0.066 C 
ATOM     19  C   UNL     1      50.153  13.257  20.071  0.00  0.00    +0.060 C 
ENDBRANCH  16  17
ENDBRANCH  15  16
ENDBRANCH   7   8
ENDBRANCH   6   7
TORSDOF 9
ENDMDL
MODEL 2
REMARK VINA RESULT:      -5.1      3.259      7.621
REMARK  Name = ZINC95486254
REMARK  17 active torsions:
REMARK  status: ('A' for Active; 'I' for Inactive)
REMARK    1  A    between atoms: C1_1  and  C2_2
REMARK    2  A    between atoms: C3_3  and  O8_33
REMARK    3  A    between atoms: C4_4  and  C13_16
REMARK    4  A    between atoms: C5_5  and  O3_15
REMARK    5  A    between atoms: C6_6  and  C9_10
REMARK    6  A    between atoms: C7_7  and  O1_8
REMARK    7  A    between atoms: O1_8  and  C8_9
REMARK    8  A    between atoms: C9_10  and  C10_12
REMARK    9  A    between atoms: C10_12  and  C11_13
REMARK   10  A    between atoms: C10_12  and  C12_14
REMARK   11  A    between atoms: C13_16  and  C14_17
REMARK   12  A    between atoms: C14_17  and  C25_32
REMARK   13  A    between atoms: C16_19  and  C24_30
REMARK   14  A    between atoms: C18_22  and  C20_25
REMARK   15  A    between atoms: C20_25  and  C21_27
REMARK   16  A    between atoms: C21_27  and  C22_28
REMARK   17  A    between atoms: C21_27  and  C23_29
REMARK                            x       y       z     vdW  Elec       q    Type
REMARK                         _______ _______ _______ _____ _____    ______ ____
ROOT
ATOM      1  C   UNL     1      47.058  14.710  16.793  0.00  0.00    +0.117 C 
ATOM      2  C   UNL     1      46.484  15.120  18.125  0.00  0.00    -0.130 A 
ATOM      3  C   UNL     1      45.945  16.391  18.284  0.00  0.00    +0.133 A 
ATOM      6  C   UNL     1      45.413  16.781  19.507  0.00  0.00    -0.136 A 
ATOM     24  C   UNL     1      45.414  15.906  20.577  0.00  0.00    +0.174 A 
ATOM     27  C   UNL     1      45.956  14.617  20.425  0.00  0.00    -0.201 A 
ATOM     33  C   UNL     1      46.489  14.229  19.181  0.00  0.00    +0.159 A 
ENDROOT
BRANCH   3   4
ATOM      4  O   UNL     1      45.940  17.257  17.240  0.00  0.00    -0.469 OA
ATOM      5  H   UNL     1      46.798  17.668  17.066  0.00  0.00    +0.389 HD
ENDBRANCH   3   4
BRANCH  24  25
ATOM     25  O   UNL     1      44.894  16.290  21.769  0.00  0.00    -0.481 OA
ATOM     26  H   UNL     1      43.970  16.032  21.897  0.00  0.00    +0.392 HD
ENDBRANCH  24  25
BRANCH  27  28
ATOM     28  C   UNL     1      45.963  13.684  21.550  0.00  0.00    +0.423 C 
ATOM     32  O   UNL     1      45.030  12.926  21.715  0.00  0.00    -0.430 OA
BRANCH  28  29
ATOM     29  C   UNL     1      47.129  13.663  22.503  0.00  0.00    -0.037 C 
ATOM     30  C   UNL     1      48.153  14.719  22.082  0.00  0.00    +0.054 C 
ATOM     31  C   UNL     1      47.783  12.279  22.478  0.00  0.00    +0.050 C 
ENDBRANCH  28  29
ENDBRANCH  27  28
BRANCH  33  34
ATOM     34  O   UNL     1      47.010  12.988  19.020  0.00  0.00    -0.330 OA
ATOM     35  C   UNL     1      48.432  12.888  18.923  0.00  0.00    +0.240 C 
ENDBRANCH  33  34
BRANCH   6   7
ATOM      7  C   UNL     1      44.832  18.162  19.666  0.00  0.00    +0.143 C 
BRANCH   7   8
ATOM      8  C   UNL     1      45.923  19.124  20.141  0.00  0.00    -0.149 C 
ATOM      9  C   UNL     1      47.296  18.474  19.968  0.00  0.00    +0.093 C 
ATOM     10  C   UNL     1      45.700  19.471  21.598  0.00  0.00    +0.374 C 
ATOM     11  O   UNL     1      46.449  19.066  22.453  0.00  0.00    -0.408 OA
ATOM     12  C   UNL     1      44.510  20.338  21.953  0.00  0.00    -0.054 C 
ATOM     13  C   UNL     1      43.215  19.552  21.741  0.00  0.00    +0.127 C 
ATOM     14  C   UNL     1      44.527  21.552  21.048  0.00  0.00    +0.392 C 
ATOM     15  C   UNL     1      44.680  21.332  19.558  0.00  0.00    -0.082 C 
ATOM     21  O   UNL     1      44.423  22.665  21.503  0.00  0.00    -0.403 OA
ATOM     22  C   UNL     1      45.858  20.407  19.339  0.00  0.00    +0.390 C 
ATOM     23  O   UNL     1      46.725  20.685  18.545  0.00  0.00    -0.391 OA
BRANCH  15  16
ATOM     16  C   UNL     1      43.428  20.699  19.007  0.00  0.00    +0.378 C 
ATOM     20  O   UNL     1      43.507  19.770  18.240  0.00  0.00    -0.407 OA
BRANCH  16  17
ATOM     17  C   UNL     1      42.075  21.226  19.414  0.00  0.00    -0.045 C 
ATOM     18  C   UNL     1      40.993  20.223  19.006  0.00  0.00    +0.066 C 
ATOM     19  C   UNL     1      41.818  22.564  18.718  0.00  0.00    +0.060 C 
ENDBRANCH  16  17
ENDBRANCH  15  16
ENDBRANCH   7   8
ENDBRANCH   6   7
TORSDOF 9
ENDMDL
MODEL 3
REMARK VINA RESULT:      -5.1      1.104      2.980
REMARK  Name = ZINC95486254
REMARK  17 active torsions:
REMARK  status: ('A' for Active; 'I' for Inactive)
REMARK    1  A    between atoms: C1_1  and  C2_2
REMARK    2  A    between atoms: C3_3  and  O8_33
REMARK    3  A    between atoms: C4_4  and  C13_16
REMARK    4  A    between atoms: C5_5  and  O3_15
REMARK    5  A    between atoms: C6_6  and  C9_10
REMARK    6  A    between atoms: C7_7  and  O1_8
REMARK    7  A    between atoms: O1_8  and  C8_9
REMARK    8  A    between atoms: C9_10  and  C10_12
REMARK    9  A    between atoms: C10_12  and  C11_13
REMARK   10  A    between atoms: C10_12  and  C12_14
REMARK   11  A    between atoms: C13_16  and  C14_17
REMARK   12  A    between atoms: C14_17  and  C25_32
REMARK   13  A    between atoms: C16_19  and  C24_30
REMARK   14  A    between atoms: C18_22  and  C20_25
REMARK   15  A    between atoms: C20_25  and  C21_27
REMARK   16  A    between atoms: C21_27  and  C22_28
REMARK   17  A    between atoms: C21_27  and  C23_29
REMARK                            x       y       z     vdW  Elec       q    Type
REMARK                         _______ _______ _______ _____ _____    ______ ____
ROOT
ATOM      1  C   UNL     1      52.168  16.993  15.760  0.00  0.00    +0.117 C 
ATOM      2  C   UNL     1      51.231  17.347  16.885  0.00  0.00    -0.130 A 
ATOM      3  C   UNL     1      50.318  16.406  17.348  0.00  0.00    +0.133 A 
ATOM      6  C   UNL     1      49.449  16.721  18.385  0.00  0.00    -0.136 A 
ATOM     24  C   UNL     1      49.484  17.975  18.967  0.00  0.00    +0.174 A 
ATOM     27  C   UNL     1      50.405  18.933  18.506  0.00  0.00    -0.201 A 
ATOM     33  C   UNL     1      51.285  18.603  17.458  0.00  0.00    +0.159 A 
ENDROOT
BRANCH   3   4
ATOM      4  O   UNL     1      50.275  15.174  16.784  0.00  0.00    -0.469 OA
ATOM      5  H   UNL     1      49.900  15.163  15.892  0.00  0.00    +0.389 HD
ENDBRANCH   3   4
BRANCH  24  25
ATOM     25  O   UNL     1      48.634  18.279  19.978  0.00  0.00    -0.481 OA
ATOM     26  H   UNL     1      47.995  18.973  19.761  0.00  0.00    +0.392 HD
ENDBRANCH  24  25
BRANCH  27  28
ATOM     28  C   UNL     1      50.451  20.261  19.113  0.00  0.00    +0.423 C 
ATOM     32  O   UNL     1      49.720  21.141  18.705  0.00  0.00    -0.430 OA
BRANCH  28  29
ATOM     29  C   UNL     1      51.403  20.540  20.247  0.00  0.00    -0.037 C 
ATOM     30  C   UNL     1      50.614  20.991  21.477  0.00  0.00    +0.054 C 
ATOM     31  C   UNL     1      52.380  21.643  19.833  0.00  0.00    +0.050 C 
ENDBRANCH  28  29
ENDBRANCH  27  28
BRANCH  33  34
ATOM     34  O   UNL     1      52.180  19.517  17.008  0.00  0.00    -0.330 OA
ATOM     35  C   UNL     1      51.769  20.348  15.920  0.00  0.00    +0.240 C 
ENDBRANCH  33  34
BRANCH   6   7
ATOM      7  C   UNL     1      48.465  15.692  18.878  0.00  0.00    +0.143 C 
BRANCH   7   8
ATOM      8  C   UNL     1      47.204  15.735  18.011  0.00  0.00    -0.149 C 
ATOM      9  C   UNL     1      47.328  16.850  16.973  0.00  0.00    +0.093 C 
ATOM     10  C   UNL     1      45.992  15.978  18.884  0.00  0.00    +0.374 C 
ATOM     11  O   UNL     1      45.396  17.027  18.839  0.00  0.00    -0.408 OA
ATOM     12  C   UNL     1      45.547  14.871  19.817  0.00  0.00    -0.054 C 
ATOM     13  C   UNL     1      46.567  14.705  20.945  0.00  0.00    +0.127 C 
ATOM     14  C   UNL     1      45.455  13.591  19.015  0.00  0.00    +0.392 C 
ATOM     15  C   UNL     1      46.635  13.202  18.150  0.00  0.00    -0.082 C 
ATOM     21  O   UNL     1      44.467  12.898  19.064  0.00  0.00    -0.403 OA
ATOM     22  C   UNL     1      47.019  14.403  17.313  0.00  0.00    +0.390 C 
ATOM     23  O   UNL     1      47.172  14.304  16.119  0.00  0.00    -0.391 OA
BRANCH  15  16
ATOM     16  C   UNL     1      47.795  12.799  19.023  0.00  0.00    +0.378 C 
ATOM     20  O   UNL     1      47.622  12.588  20.199  0.00  0.00    -0.407 OA
BRANCH  16  17
ATOM     17  C   UNL     1      49.173  12.657  18.427  0.00  0.00    -0.045 C 
ATOM     18  C   UNL     1      49.219  11.411  17.539  0.00  0.00    +0.066 C 
ATOM     19  C   UNL     1      50.203  12.521  19.550  0.00  0.00    +0.060 C 
ENDBRANCH  16  17
ENDBRANCH  15  16
ENDBRANCH   7   8
ENDBRANCH   6   7
TORSDOF 9
ENDMDL
MODEL 4
REMARK VINA RESULT:      -5.0      0.999      3.135
REMARK  Name = ZINC95486254
REMARK  17 active torsions:
REMARK  status: ('A' for Active; 'I' for Inactive)
REMARK    1  A    between atoms: C1_1  and  C2_2
REMARK    2  A    between atoms: C3_3  and  O8_33
REMARK    3  A    between atoms: C4_4  and  C13_16
REMARK    4  A    between atoms: C5_5  and  O3_15
REMARK    5  A    between atoms: C6_6  and  C9_10
REMARK    6  A    between atoms: C7_7  and  O1_8
REMARK    7  A    between atoms: O1_8  and  C8_9
REMARK    8  A    between atoms: C9_10  and  C10_12
REMARK    9  A    between atoms: C10_12  and  C11_13
REMARK   10  A    between atoms: C10_12  and  C12_14
REMARK   11  A    between atoms: C13_16  and  C14_17
REMARK   12  A    between atoms: C14_17  and  C25_32
REMARK   13  A    between atoms: C16_19  and  C24_30
REMARK   14  A    between atoms: C18_22  and  C20_25
REMARK   15  A    between atoms: C20_25  and  C21_27
REMARK   16  A    between atoms: C21_27  and  C22_28
REMARK   17  A    between atoms: C21_27  and  C23_29
REMARK                            x       y       z     vdW  Elec       q    Type
REMARK                         _______ _______ _______ _____ _____    ______ ____
ROOT
ATOM      1  C   UNL     1      51.198  19.399  16.942  0.00  0.00    +0.117 C 
ATOM      2  C   UNL     1      50.216  19.021  18.021  0.00  0.00    -0.130 A 
ATOM      3  C   UNL     1      49.635  17.758  18.017  0.00  0.00    +0.133 A 
ATOM      6  C   UNL     1      48.729  17.398  19.006  0.00  0.00    -0.136 A 
ATOM     24  C   UNL     1      48.396  18.294  20.005  0.00  0.00    +0.174 A 
ATOM     27  C   UNL     1      48.979  19.574  20.018  0.00  0.00    -0.201 A 
ATOM     33  C   UNL     1      49.900  19.929  19.014  0.00  0.00    +0.159 A 
ENDROOT
BRANCH   3   4
ATOM      4  O   UNL     1      49.955  16.872  17.041  0.00  0.00    -0.469 OA
ATOM      5  H   UNL     1      50.208  17.284  16.204  0.00  0.00    +0.389 HD
ENDBRANCH   3   4
BRANCH  24  25
ATOM     25  O   UNL     1      47.511  17.940  20.969  0.00  0.00    -0.481 OA
ATOM     26  H   UNL     1      46.908  18.650  21.230  0.00  0.00    +0.392 HD
ENDBRANCH  24  25
BRANCH  27  28
ATOM     28  C   UNL     1      48.634  20.530  21.068  0.00  0.00    +0.423 C 
ATOM     32  O   UNL     1      49.118  20.416  22.175  0.00  0.00    -0.430 OA
BRANCH  28  29
ATOM     29  C   UNL     1      47.678  21.658  20.776  0.00  0.00    -0.037 C 
ATOM     30  C   UNL     1      47.191  22.267  22.092  0.00  0.00    +0.054 C 
ATOM     31  C   UNL     1      46.481  21.122  19.988  0.00  0.00    +0.050 C 
ENDBRANCH  28  29
ENDBRANCH  27  28
BRANCH  33  34
ATOM     34  O   UNL     1      50.472  21.158  19.018  0.00  0.00    -0.330 OA
ATOM     35  C   UNL     1      51.719  21.292  19.704  0.00  0.00    +0.240 C 
ENDBRANCH  33  34
BRANCH   6   7
ATOM      7  C   UNL     1      48.107  16.026  18.991  0.00  0.00    +0.143 C 
BRANCH   7   8
ATOM      8  C   UNL     1      46.754  16.085  18.279  0.00  0.00    -0.149 C 
ATOM      9  C   UNL     1      46.627  17.407  17.521  0.00  0.00    +0.093 C 
ATOM     10  C   UNL     1      45.637  15.966  19.293  0.00  0.00    +0.374 C 
ATOM     11  O   UNL     1      44.928  16.909  19.548  0.00  0.00    -0.408 OA
ATOM     12  C   UNL     1      45.434  14.632  19.981  0.00  0.00    -0.054 C 
ATOM     13  C   UNL     1      46.595  14.363  20.939  0.00  0.00    +0.127 C 
ATOM     14  C   UNL     1      45.388  13.557  18.916  0.00  0.00    +0.392 C 
ATOM     15  C   UNL     1      46.490  13.530  17.878  0.00  0.00    -0.082 C 
ATOM     21  O   UNL     1      44.497  12.744  18.894  0.00  0.00    -0.403 OA
ATOM     22  C   UNL     1      46.634  14.927  17.311  0.00  0.00    +0.390 C 
ATOM     23  O   UNL     1      46.652  15.112  16.117  0.00  0.00    -0.391 OA
BRANCH  15  16
ATOM     16  C   UNL     1      47.785  13.107  18.522  0.00  0.00    +0.378 C 
ATOM     20  O   UNL     1      47.772  12.510  19.571  0.00  0.00    -0.407 OA
BRANCH  16  17
ATOM     17  C   UNL     1      49.099  13.429  17.856  0.00  0.00    -0.045 C 
ATOM     18  C   UNL     1      49.255  12.574  16.596  0.00  0.00    +0.066 C 
ATOM     19  C   UNL     1      50.248  13.130  18.821  0.00  0.00    +0.060 C 
ENDBRANCH  16  17
ENDBRANCH  15  16
ENDBRANCH   7   8
ENDBRANCH   6   7
TORSDOF 9
ENDMDL
MODEL 5
REMARK VINA RESULT:      -4.9      1.908      3.587
REMARK  Name = ZINC95486254
REMARK  17 active torsions:
REMARK  status: ('A' for Active; 'I' for Inactive)
REMARK    1  A    between atoms: C1_1  and  C2_2
REMARK    2  A    between atoms: C3_3  and  O8_33
REMARK    3  A    between atoms: C4_4  and  C13_16
REMARK    4  A    between atoms: C5_5  and  O3_15
REMARK    5  A    between atoms: C6_6  and  C9_10
REMARK    6  A    between atoms: C7_7  and  O1_8
REMARK    7  A    between atoms: O1_8  and  C8_9
REMARK    8  A    between atoms: C9_10  and  C10_12
REMARK    9  A    between atoms: C10_12  and  C11_13
REMARK   10  A    between atoms: C10_12  and  C12_14
REMARK   11  A    between atoms: C13_16  and  C14_17
REMARK   12  A    between atoms: C14_17  and  C25_32
REMARK   13  A    between atoms: C16_19  and  C24_30
REMARK   14  A    between atoms: C18_22  and  C20_25
REMARK   15  A    between atoms: C20_25  and  C21_27
REMARK   16  A    between atoms: C21_27  and  C22_28
REMARK   17  A    between atoms: C21_27  and  C23_29
REMARK                            x       y       z     vdW  Elec       q    Type
REMARK                         _______ _______ _______ _____ _____    ______ ____
ROOT
ATOM      1  C   UNL     1      45.382  19.285  18.376  0.00  0.00    +0.117 C 
ATOM      2  C   UNL     1      46.750  18.656  18.461  0.00  0.00    -0.130 A 
ATOM      3  C   UNL     1      46.912  17.310  18.156  0.00  0.00    +0.133 A 
ATOM      6  C   UNL     1      48.167  16.718  18.230  0.00  0.00    -0.136 A 
ATOM     24  C   UNL     1      49.267  17.465  18.607  0.00  0.00    +0.174 A 
ATOM     27  C   UNL     1      49.113  18.829  18.917  0.00  0.00    -0.201 A 
ATOM     33  C   UNL     1      47.838  19.421  18.834  0.00  0.00    +0.159 A 
ENDROOT
BRANCH   3   4
ATOM      4  O   UNL     1      45.838  16.568  17.784  0.00  0.00    -0.469 OA
ATOM      5  H   UNL     1      46.030  15.918  17.094  0.00  0.00    +0.389 HD
ENDBRANCH   3   4
BRANCH  24  25
ATOM     25  O   UNL     1      50.490  16.885  18.680  0.00  0.00    -0.481 OA
ATOM     26  H   UNL     1      51.224  17.488  18.494  0.00  0.00    +0.392 HD
ENDBRANCH  24  25
BRANCH  27  28
ATOM     28  C   UNL     1      50.269  19.628  19.318  0.00  0.00    +0.423 C 
ATOM     32  O   UNL     1      50.815  19.414  20.381  0.00  0.00    -0.430 OA
BRANCH  28  29
ATOM     29  C   UNL     1      50.783  20.716  18.412  0.00  0.00    -0.037 C 
ATOM     30  C   UNL     1      51.390  20.090  17.155  0.00  0.00    +0.054 C 
ATOM     31  C   UNL     1      51.854  21.527  19.146  0.00  0.00    +0.050 C 
ENDBRANCH  28  29
ENDBRANCH  27  28
BRANCH  33  34
ATOM     34  O   UNL     1      47.677  20.735  19.126  0.00  0.00    -0.330 OA
ATOM     35  C   UNL     1      47.440  21.072  20.494  0.00  0.00    +0.240 C 
ENDBRANCH  33  34
BRANCH   6   7
ATOM      7  C   UNL     1      48.329  15.258  17.897  0.00  0.00    +0.143 C 
BRANCH   7   8
ATOM      8  C   UNL     1      48.016  14.413  19.134  0.00  0.00    -0.149 C 
ATOM      9  C   UNL     1      47.758  15.328  20.332  0.00  0.00    +0.093 C 
ATOM     10  C   UNL     1      49.180  13.493  19.432  0.00  0.00    +0.374 C 
ATOM     11  O   UNL     1      49.876  13.668  20.402  0.00  0.00    -0.408 OA
ATOM     12  C   UNL     1      49.449  12.346  18.479  0.00  0.00    -0.054 C 
ATOM     13  C   UNL     1      49.970  12.892  17.148  0.00  0.00    +0.127 C 
ATOM     14  C   UNL     1      48.147  11.607  18.256  0.00  0.00    +0.392 C 
ATOM     15  C   UNL     1      46.920  12.413  17.887  0.00  0.00    -0.082 C 
ATOM     21  O   UNL     1      48.089  10.407  18.371  0.00  0.00    -0.403 OA
ATOM     22  C   UNL     1      46.795  13.556  18.872  0.00  0.00    +0.390 C 
ATOM     23  O   UNL     1      45.750  13.778  19.435  0.00  0.00    -0.391 OA
BRANCH  15  16
ATOM     16  C   UNL     1      47.071  12.959  16.491  0.00  0.00    +0.378 C 
ATOM     20  O   UNL     1      46.812  14.116  16.263  0.00  0.00    -0.407 OA
BRANCH  16  17
ATOM     17  C   UNL     1      47.548  12.061  15.377  0.00  0.00    -0.045 C 
ATOM     18  C   UNL     1      47.834  12.902  14.131  0.00  0.00    +0.066 C 
ATOM     19  C   UNL     1      46.467  11.026  15.058  0.00  0.00    +0.060 C 
ENDBRANCH  16  17
ENDBRANCH  15  16
ENDBRANCH   7   8
ENDBRANCH   6   7
TORSDOF 9
ENDMDL
MODEL 6
REMARK VINA RESULT:      -4.9      2.276      4.974
REMARK  Name = ZINC95486254
REMARK  17 active torsions:
REMARK  status: ('A' for Active; 'I' for Inactive)
REMARK    1  A    between atoms: C1_1  and  C2_2
REMARK    2  A    between atoms: C3_3  and  O8_33
REMARK    3  A    between atoms: C4_4  and  C13_16
REMARK    4  A    between atoms: C5_5  and  O3_15
REMARK    5  A    between atoms: C6_6  and  C9_10
REMARK    6  A    between atoms: C7_7  and  O1_8
REMARK    7  A    between atoms: O1_8  and  C8_9
REMARK    8  A    between atoms: C9_10  and  C10_12
REMARK    9  A    between atoms: C10_12  and  C11_13
REMARK   10  A    between atoms: C10_12  and  C12_14
REMARK   11  A    between atoms: C13_16  and  C14_17
REMARK   12  A    between atoms: C14_17  and  C25_32
REMARK   13  A    between atoms: C16_19  and  C24_30
REMARK   14  A    between atoms: C18_22  and  C20_25
REMARK   15  A    between atoms: C20_25  and  C21_27
REMARK   16  A    between atoms: C21_27  and  C22_28
REMARK   17  A    between atoms: C21_27  and  C23_29
REMARK                            x       y       z     vdW  Elec       q    Type
REMARK                         _______ _______ _______ _____ _____    ______ ____
ROOT
ATOM      1  C   UNL     1      52.171  19.592  17.568  0.00  0.00    +0.117 C 
ATOM      2  C   UNL     1      50.958  18.717  17.754  0.00  0.00    -0.130 A 
ATOM      3  C   UNL     1      50.986  17.395  17.324  0.00  0.00    +0.133 A 
ATOM      6  C   UNL     1      49.875  16.579  17.490  0.00  0.00    -0.136 A 
ATOM     24  C   UNL     1      48.730  17.074  18.086  0.00  0.00    +0.174 A 
ATOM     27  C   UNL     1      48.693  18.409  18.526  0.00  0.00    -0.201 A 
ATOM     33  C   UNL     1      49.825  19.228  18.358  0.00  0.00    +0.159 A 
ENDROOT
BRANCH   3   4
ATOM      4  O   UNL     1      52.104  16.900  16.737  0.00  0.00    -0.469 OA
ATOM      5  H   UNL     1      51.970  16.597  15.829  0.00  0.00    +0.389 HD
ENDBRANCH   3   4
BRANCH  24  25
ATOM     25  O   UNL     1      47.646  16.274  18.246  0.00  0.00    -0.481 OA
ATOM     26  H   UNL     1      47.402  16.121  19.170  0.00  0.00    +0.392 HD
ENDBRANCH  24  25
BRANCH  27  28
ATOM     28  C   UNL     1      47.488  18.943  19.156  0.00  0.00    +0.423 C 
ATOM     32  O   UNL     1      47.297  18.773  20.343  0.00  0.00    -0.430 OA
BRANCH  28  29
ATOM     29  C   UNL     1      46.482  19.707  18.334  0.00  0.00    -0.037 C 
ATOM     30  C   UNL     1      46.279  21.098  18.938  0.00  0.00    +0.054 C 
ATOM     31  C   UNL     1      45.149  18.954  18.329  0.00  0.00    +0.050 C 
ENDBRANCH  28  29
ENDBRANCH  27  28
BRANCH  33  34
ATOM     34  O   UNL     1      49.804  20.516  18.781  0.00  0.00    -0.330 OA
ATOM     35  C   UNL     1      50.250  20.768  20.116  0.00  0.00    +0.240 C 
ENDBRANCH  33  34
BRANCH   6   7
ATOM      7  C   UNL     1      49.918  15.148  17.019  0.00  0.00    +0.143 C 
BRANCH   7   8
ATOM      8  C   UNL     1      50.287  14.236  18.191  0.00  0.00    -0.149 C 
ATOM      9  C   UNL     1      50.613  15.082  19.422  0.00  0.00    +0.093 C 
ATOM     10  C   UNL     1      51.483  13.386  17.820  0.00  0.00    +0.374 C 
ATOM     11  O   UNL     1      52.558  13.570  18.338  0.00  0.00    -0.408 OA
ATOM     12  C   UNL     1      51.297  12.299  16.782  0.00  0.00    -0.054 C 
ATOM     13  C   UNL     1      51.075  12.932  15.407  0.00  0.00    +0.127 C 
ATOM     14  C   UNL     1      50.084  11.482  17.171  0.00  0.00    +0.392 C 
ATOM     15  C   UNL     1      48.802  12.216  17.503  0.00  0.00    -0.082 C 
ATOM     21  O   UNL     1      50.138  10.277  17.218  0.00  0.00    -0.403 OA
ATOM     22  C   UNL     1      49.130  13.307  18.499  0.00  0.00    +0.390 C 
ATOM     23  O   UNL     1      48.488  13.434  19.514  0.00  0.00    -0.391 OA
BRANCH  15  16
ATOM     16  C   UNL     1      48.227  12.826  16.251  0.00  0.00    +0.378 C 
ATOM     20  O   UNL     1      47.880  13.982  16.247  0.00  0.00    -0.407 OA
BRANCH  16  17
ATOM     17  C   UNL     1      48.085  11.993  15.002  0.00  0.00    -0.045 C 
ATOM     18  C   UNL     1      47.808  12.907  13.807  0.00  0.00    +0.066 C 
ATOM     19  C   UNL     1      46.924  11.011  15.173  0.00  0.00    +0.060 C 
ENDBRANCH  16  17
ENDBRANCH  15  16
ENDBRANCH   7   8
ENDBRANCH   6   7
TORSDOF 9
ENDMDL
MODEL 7
REMARK VINA RESULT:      -4.8      2.880      6.936
REMARK  Name = ZINC95486254
REMARK  17 active torsions:
REMARK  status: ('A' for Active; 'I' for Inactive)
REMARK    1  A    between atoms: C1_1  and  C2_2
REMARK    2  A    between atoms: C3_3  and  O8_33
REMARK    3  A    between atoms: C4_4  and  C13_16
REMARK    4  A    between atoms: C5_5  and  O3_15
REMARK    5  A    between atoms: C6_6  and  C9_10
REMARK    6  A    between atoms: C7_7  and  O1_8
REMARK    7  A    between atoms: O1_8  and  C8_9
REMARK    8  A    between atoms: C9_10  and  C10_12
REMARK    9  A    between atoms: C10_12  and  C11_13
REMARK   10  A    between atoms: C10_12  and  C12_14
REMARK   11  A    between atoms: C13_16  and  C14_17
REMARK   12  A    between atoms: C14_17  and  C25_32
REMARK   13  A    between atoms: C16_19  and  C24_30
REMARK   14  A    between atoms: C18_22  and  C20_25
REMARK   15  A    between atoms: C20_25  and  C21_27
REMARK   16  A    between atoms: C21_27  and  C22_28
REMARK   17  A    between atoms: C21_27  and  C23_29
REMARK                            x       y       z     vdW  Elec       q    Type
REMARK                         _______ _______ _______ _____ _____    ______ ____
ROOT
ATOM      1  C   UNL     1      50.002  15.310  21.801  0.00  0.00    +0.117 C 
ATOM      2  C   UNL     1      48.652  15.594  21.194  0.00  0.00    -0.130 A 
ATOM      3  C   UNL     1      48.092  16.861  21.315  0.00  0.00    +0.133 A 
ATOM      6  C   UNL     1      46.848  17.136  20.760  0.00  0.00    -0.136 A 
ATOM     24  C   UNL     1      46.156  16.151  20.081  0.00  0.00    +0.174 A 
ATOM     27  C   UNL     1      46.715  14.866  19.953  0.00  0.00    -0.201 A 
ATOM     33  C   UNL     1      47.978  14.598  20.514  0.00  0.00    +0.159 A 
ENDROOT
BRANCH   3   4
ATOM      4  O   UNL     1      48.763  17.834  21.980  0.00  0.00    -0.469 OA
ATOM      5  H   UNL     1      49.680  17.608  22.188  0.00  0.00    +0.389 HD
ENDBRANCH   3   4
BRANCH  24  25
ATOM     25  O   UNL     1      44.942  16.422  19.541  0.00  0.00    -0.481 OA
ATOM     26  H   UNL     1      44.811  17.354  19.315  0.00  0.00    +0.392 HD
ENDBRANCH  24  25
BRANCH  27  28
ATOM     28  C   UNL     1      45.992  13.817  19.238  0.00  0.00    +0.423 C 
ATOM     32  O   UNL     1      44.989  13.334  19.721  0.00  0.00    -0.430 OA
BRANCH  28  29
ATOM     29  C   UNL     1      46.490  13.336  17.900  0.00  0.00    -0.037 C 
ATOM     30  C   UNL     1      46.764  14.538  16.995  0.00  0.00    +0.054 C 
ATOM     31  C   UNL     1      45.431  12.441  17.252  0.00  0.00    +0.050 C 
ENDBRANCH  28  29
ENDBRANCH  27  28
BRANCH  33  34
ATOM     34  O   UNL     1      48.529  13.365  20.393  0.00  0.00    -0.330 OA
ATOM     35  C   UNL     1      48.198  12.405  21.399  0.00  0.00    +0.240 C 
ENDBRANCH  33  34
BRANCH   6   7
ATOM      7  C   UNL     1      46.253  18.513  20.898  0.00  0.00    +0.143 C 
BRANCH   7   8
ATOM      8  C   UNL     1      46.576  19.337  19.650  0.00  0.00    -0.149 C 
ATOM      9  C   UNL     1      47.421  18.504  18.686  0.00  0.00    +0.093 C 
ATOM     10  C   UNL     1      47.331  20.588  20.044  0.00  0.00    +0.374 C 
ATOM     11  O   UNL     1      48.498  20.721  19.765  0.00  0.00    -0.408 OA
ATOM     12  C   UNL     1      46.584  21.668  20.799  0.00  0.00    -0.054 C 
ATOM     13  C   UNL     1      46.263  21.182  22.213  0.00  0.00    +0.127 C 
ATOM     14  C   UNL     1      45.299  21.958  20.053  0.00  0.00    +0.392 C 
ATOM     15  C   UNL     1      44.420  20.790  19.659  0.00  0.00    -0.082 C 
ATOM     21  O   UNL     1      44.984  23.091  19.779  0.00  0.00    -0.403 OA
ATOM     22  C   UNL     1      45.290  19.760  18.970  0.00  0.00    +0.390 C 
ATOM     23  O   UNL     1      44.969  19.288  17.905  0.00  0.00    -0.391 OA
BRANCH  15  16
ATOM     16  C   UNL     1      43.795  20.186  20.890  0.00  0.00    +0.378 C 
ATOM     20  O   UNL     1      43.921  20.729  21.960  0.00  0.00    -0.407 OA
BRANCH  16  17
ATOM     17  C   UNL     1      43.010  18.902  20.784  0.00  0.00    -0.045 C 
ATOM     18  C   UNL     1      41.620  19.200  20.217  0.00  0.00    +0.066 C 
ATOM     19  C   UNL     1      42.872  18.274  22.172  0.00  0.00    +0.060 C 
ENDBRANCH  16  17
ENDBRANCH  15  16
ENDBRANCH   7   8
ENDBRANCH   6   7
TORSDOF 9
ENDMDL
MODEL 8
REMARK VINA RESULT:      -4.7      2.517      5.471
REMARK  Name = ZINC95486254
REMARK  17 active torsions:
REMARK  status: ('A' for Active; 'I' for Inactive)
REMARK    1  A    between atoms: C1_1  and  C2_2
REMARK    2  A    between atoms: C3_3  and  O8_33
REMARK    3  A    between atoms: C4_4  and  C13_16
REMARK    4  A    between atoms: C5_5  and  O3_15
REMARK    5  A    between atoms: C6_6  and  C9_10
REMARK    6  A    between atoms: C7_7  and  O1_8
REMARK    7  A    between atoms: O1_8  and  C8_9
REMARK    8  A    between atoms: C9_10  and  C10_12
REMARK    9  A    between atoms: C10_12  and  C11_13
REMARK   10  A    between atoms: C10_12  and  C12_14
REMARK   11  A    between atoms: C13_16  and  C14_17
REMARK   12  A    between atoms: C14_17  and  C25_32
REMARK   13  A    between atoms: C16_19  and  C24_30
REMARK   14  A    between atoms: C18_22  and  C20_25
REMARK   15  A    between atoms: C20_25  and  C21_27
REMARK   16  A    between atoms: C21_27  and  C22_28
REMARK   17  A    between atoms: C21_27  and  C23_29
REMARK                            x       y       z     vdW  Elec       q    Type
REMARK                         _______ _______ _______ _____ _____    ______ ____
ROOT
ATOM      1  C   UNL     1      47.827  21.215  20.777  0.00  0.00    +0.117 C 
ATOM      2  C   UNL     1      47.035  19.987  20.407  0.00  0.00    -0.130 A 
ATOM      3  C   UNL     1      47.694  18.844  19.969  0.00  0.00    +0.133 A 
ATOM      6  C   UNL     1      46.975  17.706  19.625  0.00  0.00    -0.136 A 
ATOM     24  C   UNL     1      45.595  17.700  19.718  0.00  0.00    +0.174 A 
ATOM     27  C   UNL     1      44.920  18.851  20.161  0.00  0.00    -0.201 A 
ATOM     33  C   UNL     1      45.657  19.998  20.512  0.00  0.00    +0.159 A 
ENDROOT
BRANCH   3   4
ATOM      4  O   UNL     1      49.047  18.840  19.874  0.00  0.00    -0.469 OA
ATOM      5  H   UNL     1      49.455  19.701  20.038  0.00  0.00    +0.389 HD
ENDBRANCH   3   4
BRANCH  24  25
ATOM     25  O   UNL     1      44.896  16.588  19.381  0.00  0.00    -0.481 OA
ATOM     26  H   UNL     1      44.528  16.610  18.486  0.00  0.00    +0.392 HD
ENDBRANCH  24  25
BRANCH  27  28
ATOM     28  C   UNL     1      43.462  18.856  20.262  0.00  0.00    +0.423 C 
ATOM     32  O   UNL     1      42.785  18.968  19.261  0.00  0.00    -0.430 OA
BRANCH  28  29
ATOM     29  C   UNL     1      42.799  18.721  21.608  0.00  0.00    -0.037 C 
ATOM     30  C   UNL     1      43.139  17.356  22.209  0.00  0.00    +0.054 C 
ATOM     31  C   UNL     1      41.282  18.844  21.444  0.00  0.00    +0.050 C 
ENDBRANCH  28  29
ENDBRANCH  27  28
BRANCH  33  34
ATOM     34  O   UNL     1      45.018  21.113  20.945  0.00  0.00    -0.330 OA
ATOM     35  C   UNL     1      44.582  22.040  19.948  0.00  0.00    +0.240 C 
ENDBRANCH  33  34
BRANCH   6   7
ATOM      7  C   UNL     1      47.701  16.474  19.152  0.00  0.00    +0.143 C 
BRANCH   7   8
ATOM      8  C   UNL     1      47.914  16.556  17.639  0.00  0.00    -0.149 C 
ATOM      9  C   UNL     1      47.092  17.710  17.063  0.00  0.00    +0.093 C 
ATOM     10  C   UNL     1      47.494  15.254  16.992  0.00  0.00    +0.374 C 
ATOM     11  O   UNL     1      46.508  15.196  16.298  0.00  0.00    -0.408 OA
ATOM     12  C   UNL     1      48.344  14.024  17.239  0.00  0.00    -0.054 C 
ATOM     13  C   UNL     1      48.192  13.576  18.693  0.00  0.00    +0.127 C 
ATOM     14  C   UNL     1      49.787  14.388  16.963  0.00  0.00    +0.392 C 
ATOM     15  C   UNL     1      50.347  15.639  17.608  0.00  0.00    -0.082 C 
ATOM     21  O   UNL     1      50.473  13.700  16.246  0.00  0.00    -0.403 OA
ATOM     22  C   UNL     1      49.383  16.775  17.340  0.00  0.00    +0.390 C 
ATOM     23  O   UNL     1      49.775  17.830  16.900  0.00  0.00    -0.391 OA
BRANCH  15  16
ATOM     16  C   UNL     1      50.483  15.427  19.093  0.00  0.00    +0.378 C 
ATOM     20  O   UNL     1      50.153  16.298  19.861  0.00  0.00    -0.407 OA
BRANCH  16  17
ATOM     17  C   UNL     1      51.033  14.125  19.622  0.00  0.00    -0.045 C 
ATOM     18  C   UNL     1      50.856  14.077  21.141  0.00  0.00    +0.066 C 
ATOM     19  C   UNL     1      52.520  14.023  19.277  0.00  0.00    +0.060 C 
ENDBRANCH  16  17
ENDBRANCH  15  16
ENDBRANCH   7   8
ENDBRANCH   6   7
TORSDOF 9
ENDMDL
MODEL 9
REMARK VINA RESULT:      -4.6      2.653      5.837
REMARK  Name = ZINC95486254
REMARK  17 active torsions:
REMARK  status: ('A' for Active; 'I' for Inactive)
REMARK    1  A    between atoms: C1_1  and  C2_2
REMARK    2  A    between atoms: C3_3  and  O8_33
REMARK    3  A    between atoms: C4_4  and  C13_16
REMARK    4  A    between atoms: C5_5  and  O3_15
REMARK    5  A    between atoms: C6_6  and  C9_10
REMARK    6  A    between atoms: C7_7  and  O1_8
REMARK    7  A    between atoms: O1_8  and  C8_9
REMARK    8  A    between atoms: C9_10  and  C10_12
REMARK    9  A    between atoms: C10_12  and  C11_13
REMARK   10  A    between atoms: C10_12  and  C12_14
REMARK   11  A    between atoms: C13_16  and  C14_17
REMARK   12  A    between atoms: C14_17  and  C25_32
REMARK   13  A    between atoms: C16_19  and  C24_30
REMARK   14  A    between atoms: C18_22  and  C20_25
REMARK   15  A    between atoms: C20_25  and  C21_27
REMARK   16  A    between atoms: C21_27  and  C22_28
REMARK   17  A    between atoms: C21_27  and  C23_29
REMARK                            x       y       z     vdW  Elec       q    Type
REMARK                         _______ _______ _______ _____ _____    ______ ____
ROOT
ATOM      1  C   UNL     1      43.354  16.560  22.505  0.00  0.00    +0.117 C 
ATOM      2  C   UNL     1      44.308  17.320  21.619  0.00  0.00    -0.130 A 
ATOM      3  C   UNL     1      45.514  16.739  21.242  0.00  0.00    +0.133 A 
ATOM      6  C   UNL     1      46.401  17.429  20.426  0.00  0.00    -0.136 A 
ATOM     24  C   UNL     1      46.092  18.701  19.980  0.00  0.00    +0.174 A 
ATOM     27  C   UNL     1      44.875  19.296  20.356  0.00  0.00    -0.201 A 
ATOM     33  C   UNL     1      43.979  18.587  21.180  0.00  0.00    +0.159 A 
ENDROOT
BRANCH   3   4
ATOM      4  O   UNL     1      45.826  15.492  21.675  0.00  0.00    -0.469 OA
ATOM      5  H   UNL     1      45.862  14.829  20.971  0.00  0.00    +0.389 HD
ENDBRANCH   3   4
BRANCH  24  25
ATOM     25  O   UNL     1      46.961  19.371  19.185  0.00  0.00    -0.481 OA
ATOM     26  H   UNL     1      47.890  19.150  19.342  0.00  0.00    +0.392 HD
ENDBRANCH  24  25
BRANCH  27  28
ATOM     28  C   UNL     1      44.538  20.640  19.892  0.00  0.00    +0.423 C 
ATOM     32  O   UNL     1      44.148  20.810  18.755  0.00  0.00    -0.430 OA
BRANCH  28  29
ATOM     29  C   UNL     1      44.675  21.815  20.824  0.00  0.00    -0.037 C 
ATOM     30  C   UNL     1      43.963  23.029  20.223  0.00  0.00    +0.054 C 
ATOM     31  C   UNL     1      46.158  22.140  21.022  0.00  0.00    +0.050 C 
ENDBRANCH  28  29
ENDBRANCH  27  28
BRANCH  33  34
ATOM     34  O   UNL     1      42.800  19.148  21.545  0.00  0.00    -0.330 OA
ATOM     35  C   UNL     1      41.696  18.977  20.653  0.00  0.00    +0.240 C 
ENDBRANCH  33  34
BRANCH   6   7
ATOM      7  C   UNL     1      47.704  16.788  20.025  0.00  0.00    +0.143 C 
BRANCH   7   8
ATOM      8  C   UNL     1      47.535  16.089  18.674  0.00  0.00    -0.149 C 
ATOM      9  C   UNL     1      46.049  15.976  18.333  0.00  0.00    +0.093 C 
ATOM     10  C   UNL     1      48.155  14.709  18.731  0.00  0.00    +0.374 C 
ATOM     11  O   UNL     1      47.465  13.719  18.712  0.00  0.00    -0.408 OA
ATOM     12  C   UNL     1      49.664  14.604  18.814  0.00  0.00    -0.054 C 
ATOM     13  C   UNL     1      50.140  15.087  20.185  0.00  0.00    +0.127 C 
ATOM     14  C   UNL     1      50.255  15.478  17.729  0.00  0.00    +0.392 C 
ATOM     15  C   UNL     1      49.763  16.905  17.610  0.00  0.00    -0.082 C 
ATOM     21  O   UNL     1      51.096  15.049  16.977  0.00  0.00    -0.403 OA
ATOM     22  C   UNL     1      48.249  16.879  17.597  0.00  0.00    +0.390 C 
ATOM     23  O   UNL     1      47.626  17.473  16.748  0.00  0.00    -0.391 OA
BRANCH  15  16
ATOM     16  C   UNL     1      50.247  17.710  18.789  0.00  0.00    +0.378 C 
ATOM     20  O   UNL     1      49.488  18.446  19.371  0.00  0.00    -0.407 OA
BRANCH  16  17
ATOM     17  C   UNL     1      51.681  17.595  19.242  0.00  0.00    -0.045 C 
ATOM     18  C   UNL     1      51.827  18.214  20.634  0.00  0.00    +0.066 C 
ATOM     19  C   UNL     1      52.588  18.334  18.257  0.00  0.00    +0.060 C 
ENDBRANCH  16  17
ENDBRANCH  15  16
ENDBRANCH   7   8
ENDBRANCH   6   7
TORSDOF 9
ENDMDL
