MODEL 1
REMARK VINA RESULT:      -6.4      0.000      0.000
REMARK  Name = ZINC95486184
REMARK  25 active torsions:
REMARK  status: ('A' for Active; 'I' for Inactive)
REMARK    1  A    between atoms: C1_1  and  C2_2
REMARK    2  A    between atoms: C4_4  and  O8_60
REMARK    3  A    between atoms: C8_8  and  C26_30
REMARK    4  A    between atoms: C11_12  and  O2_27
REMARK    5  A    between atoms: C12_13  and  C15_17
REMARK    6  A    between atoms: C13_14  and  O1_16
REMARK    7  A    between atoms: C15_17  and  C16_18
REMARK    8  A    between atoms: C17_19  and  C18_20
REMARK    9  A    between atoms: C17_19  and  C24_26
REMARK   10  A    between atoms: C18_20  and  C19_21
REMARK   11  A    between atoms: C19_21  and  C20_22
REMARK   12  A    between atoms: C21_23  and  C22_24
REMARK   13  A    between atoms: C21_23  and  C23_25
REMARK   14  A    between atoms: C29_34  and  O5_49
REMARK   15  A    between atoms: C30_35  and  C33_39
REMARK   16  A    between atoms: C31_36  and  O4_38
REMARK   17  A    between atoms: C33_39  and  C34_40
REMARK   18  A    between atoms: C35_41  and  C36_42
REMARK   19  A    between atoms: C35_41  and  C42_48
REMARK   20  A    between atoms: C36_42  and  C37_43
REMARK   21  A    between atoms: C37_43  and  C38_44
REMARK   22  A    between atoms: C39_45  and  C40_46
REMARK   23  A    between atoms: C39_45  and  C41_47
REMARK   24  A    between atoms: C47_55  and  C50_59
REMARK   25  A    between atoms: C49_57  and  O7_58
REMARK                            x       y       z     vdW  Elec       q    Type
REMARK                         _______ _______ _______ _____ _____    ______ ____
ROOT
ATOM      1  C   UNL     1      50.814  10.287  14.443  0.00  0.00    +0.099 C 
ATOM      2  C   UNL     1      50.246  11.541  15.058  0.00  0.00    -0.033 A 
ATOM      3  C   UNL     1      48.984  11.969  14.695  0.00  0.00    -0.017 A 
ATOM      4  C   UNL     1      48.464  13.126  15.255  0.00  0.00    +0.174 A 
ATOM      7  C   UNL     1      49.221  13.846  16.187  0.00  0.00    -0.180 A 
ATOM      8  C   UNL     1      50.492  13.405  16.557  0.00  0.00    -0.019 A 
ATOM      9  C   UNL     1      51.323  14.131  17.569  0.00  0.00    +0.115 C 
ATOM     42  C   UNL     1      50.893  15.547  17.802  0.00  0.00    -0.010 A 
ATOM     43  C   UNL     1      49.624  16.005  17.439  0.00  0.00    -0.177 A 
ATOM     44  C   UNL     1      49.250  17.335  17.687  0.00  0.00    +0.186 A 
ATOM     47  C   UNL     1      50.152  18.200  18.283  0.00  0.00    -0.131 A 
ATOM     58  C   UNL     1      51.414  17.739  18.630  0.00  0.00    +0.160 A 
ATOM     61  C   UNL     1      51.775  16.419  18.388  0.00  0.00    -0.026 A 
ATOM     62  C   UNL     1      48.678  15.086  16.781  0.00  0.00    +0.446 C 
ATOM     63  O   UNL     1      47.489  15.339  16.727  0.00  0.00    -0.422 OA
ATOM     64  C   UNL     1      50.992  12.249  15.983  0.00  0.00    -0.007 A 
ENDROOT
BRANCH   9  10
ATOM     10  C   UNL     1      51.245  13.375  18.898  0.00  0.00    +0.115 C 
ATOM     11  C   UNL     1      50.027  13.834  19.640  0.00  0.00    -0.009 A 
ATOM     12  C   UNL     1      50.104  14.734  20.706  0.00  0.00    -0.178 A 
ATOM     13  C   UNL     1      51.420  15.231  21.146  0.00  0.00    +0.441 C 
ATOM     14  C   UNL     1      52.618  14.479  20.715  0.00  0.00    -0.180 A 
ATOM     15  C   UNL     1      53.836  14.663  21.382  0.00  0.00    +0.170 A 
ATOM     18  C   UNL     1      54.950  13.954  20.981  0.00  0.00    -0.019 A 
ATOM     19  C   UNL     1      54.854  13.067  19.927  0.00  0.00    -0.033 A 
ATOM     20  C   UNL     1      56.069  12.288  19.495  0.00  0.00    +0.100 C 
ATOM     21  C   UNL     1      53.652  12.887  19.266  0.00  0.00    -0.006 A 
ATOM     22  O   UNL     1      51.518  16.225  21.840  0.00  0.00    -0.415 OA
ATOM     23  C   UNL     1      48.941  15.155  21.367  0.00  0.00    +0.185 A 
ATOM     26  C   UNL     1      47.710  14.664  20.965  0.00  0.00    -0.132 A 
ATOM     37  C   UNL     1      47.643  13.764  19.911  0.00  0.00    +0.160 A 
ATOM     40  C   UNL     1      48.800  13.357  19.257  0.00  0.00    -0.025 A 
ATOM     41  C   UNL     1      52.524  13.591  19.648  0.00  0.00    -0.016 A 
BRANCH  15  16
ATOM     16  O   UNL     1      53.924  15.536  22.415  0.00  0.00    -0.479 OA
ATOM     17  H   UNL     1      53.232  16.213  22.419  0.00  0.00    +0.394 HD
ENDBRANCH  15  16
BRANCH  23  24
ATOM     24  O   UNL     1      49.021  16.038  22.393  0.00  0.00    -0.475 OA
ATOM     25  H   UNL     1      48.623  15.723  23.216  0.00  0.00    +0.397 HD
ENDBRANCH  23  24
BRANCH  37  38
ATOM     38  O   UNL     1      46.439  13.277  19.518  0.00  0.00    -0.487 OA
ATOM     39  H   UNL     1      45.963  13.854  18.905  0.00  0.00    +0.395 HD
ENDBRANCH  37  38
BRANCH  26  27
ATOM     27  C   UNL     1      46.452  15.104  21.668  0.00  0.00    +0.131 C 
BRANCH  27  28
ATOM     28  C   UNL     1      45.721  16.105  20.811  0.00  0.00    -0.057 C 
ATOM     29  C   UNL     1      45.664  17.362  21.176  0.00  0.00    -0.116 C 
ATOM     30  C   UNL     1      46.232  17.788  22.505  0.00  0.00    +0.076 C 
BRANCH  29  31
ATOM     31  C   UNL     1      45.032  18.383  20.266  0.00  0.00    +0.058 C 
BRANCH  31  32
ATOM     32  C   UNL     1      43.509  18.259  20.341  0.00  0.00    +0.055 C 
BRANCH  32  33
ATOM     33  C   UNL     1      42.874  19.344  19.508  0.00  0.00    -0.062 C 
ATOM     34  C   UNL     1      41.702  19.825  19.843  0.00  0.00    -0.129 C 
ATOM     35  C   UNL     1      41.131  21.002  19.096  0.00  0.00    +0.071 C 
ATOM     36  C   UNL     1      40.928  19.201  20.975  0.00  0.00    +0.070 C 
ENDBRANCH  32  33
ENDBRANCH  31  32
ENDBRANCH  29  31
ENDBRANCH  27  28
ENDBRANCH  26  27
ENDBRANCH   9  10
BRANCH   4   5
ATOM      5  O   UNL     1      47.226  13.557  14.902  0.00  0.00    -0.483 OA
ATOM      6  H   UNL     1      47.230  14.275  14.255  0.00  0.00    +0.399 HD
ENDBRANCH   4   5
BRANCH  44  45
ATOM     45  O   UNL     1      48.011  17.769  17.344  0.00  0.00    -0.473 OA
ATOM     46  H   UNL     1      47.581  17.233  16.664  0.00  0.00    +0.396 HD
ENDBRANCH  44  45
BRANCH  58  59
ATOM     59  O   UNL     1      52.303  18.585  19.210  0.00  0.00    -0.487 OA
ATOM     60  H   UNL     1      53.206  18.243  19.245  0.00  0.00    +0.395 HD
ENDBRANCH  58  59
BRANCH  47  48
ATOM     48  C   UNL     1      49.766  19.631  18.551  0.00  0.00    +0.130 C 
BRANCH  48  49
ATOM     49  C   UNL     1      48.843  19.688  19.742  0.00  0.00    -0.055 C 
ATOM     50  C   UNL     1      49.188  20.366  20.807  0.00  0.00    -0.117 C 
ATOM     51  C   UNL     1      50.522  21.064  20.857  0.00  0.00    +0.076 C 
BRANCH  50  52
ATOM     52  C   UNL     1      48.251  20.448  21.984  0.00  0.00    +0.059 C 
BRANCH  52  53
ATOM     53  C   UNL     1      47.712  21.876  22.108  0.00  0.00    +0.054 C 
BRANCH  53  54
ATOM     54  C   UNL     1      46.811  22.176  20.938  0.00  0.00    -0.063 C 
ATOM     55  C   UNL     1      45.512  22.078  21.069  0.00  0.00    -0.130 C 
ATOM     56  C   UNL     1      44.609  22.418  19.911  0.00  0.00    +0.071 C 
ATOM     57  C   UNL     1      44.919  21.626  22.379  0.00  0.00    +0.072 C 
ENDBRANCH  53  54
ENDBRANCH  52  53
ENDBRANCH  50  52
ENDBRANCH  48  49
ENDBRANCH  47  48
TORSDOF 17
ENDMDL
MODEL 2
REMARK VINA RESULT:      -6.0      2.254      7.117
REMARK  Name = ZINC95486184
REMARK  25 active torsions:
REMARK  status: ('A' for Active; 'I' for Inactive)
REMARK    1  A    between atoms: C1_1  and  C2_2
REMARK    2  A    between atoms: C4_4  and  O8_60
REMARK    3  A    between atoms: C8_8  and  C26_30
REMARK    4  A    between atoms: C11_12  and  O2_27
REMARK    5  A    between atoms: C12_13  and  C15_17
REMARK    6  A    between atoms: C13_14  and  O1_16
REMARK    7  A    between atoms: C15_17  and  C16_18
REMARK    8  A    between atoms: C17_19  and  C18_20
REMARK    9  A    between atoms: C17_19  and  C24_26
REMARK   10  A    between atoms: C18_20  and  C19_21
REMARK   11  A    between atoms: C19_21  and  C20_22
REMARK   12  A    between atoms: C21_23  and  C22_24
REMARK   13  A    between atoms: C21_23  and  C23_25
REMARK   14  A    between atoms: C29_34  and  O5_49
REMARK   15  A    between atoms: C30_35  and  C33_39
REMARK   16  A    between atoms: C31_36  and  O4_38
REMARK   17  A    between atoms: C33_39  and  C34_40
REMARK   18  A    between atoms: C35_41  and  C36_42
REMARK   19  A    between atoms: C35_41  and  C42_48
REMARK   20  A    between atoms: C36_42  and  C37_43
REMARK   21  A    between atoms: C37_43  and  C38_44
REMARK   22  A    between atoms: C39_45  and  C40_46
REMARK   23  A    between atoms: C39_45  and  C41_47
REMARK   24  A    between atoms: C47_55  and  C50_59
REMARK   25  A    between atoms: C49_57  and  O7_58
REMARK                            x       y       z     vdW  Elec       q    Type
REMARK                         _______ _______ _______ _____ _____    ______ ____
ROOT
ATOM      1  C   UNL     1      51.096  21.147  17.596  0.00  0.00    +0.099 C 
ATOM      2  C   UNL     1      50.934  19.664  17.812  0.00  0.00    -0.033 A 
ATOM      3  C   UNL     1      51.898  18.796  17.338  0.00  0.00    -0.017 A 
ATOM      4  C   UNL     1      51.747  17.430  17.530  0.00  0.00    +0.174 A 
ATOM      7  C   UNL     1      50.620  16.947  18.207  0.00  0.00    -0.180 A 
ATOM      8  C   UNL     1      49.654  17.829  18.691  0.00  0.00    -0.019 A 
ATOM      9  C   UNL     1      48.448  17.354  19.442  0.00  0.00    +0.115 C 
ATOM     42  C   UNL     1      48.145  15.900  19.244  0.00  0.00    -0.010 A 
ATOM     43  C   UNL     1      49.101  15.003  18.762  0.00  0.00    -0.177 A 
ATOM     44  C   UNL     1      48.787  13.645  18.605  0.00  0.00    +0.186 A 
ATOM     47  C   UNL     1      47.515  13.196  18.917  0.00  0.00    -0.131 A 
ATOM     58  C   UNL     1      46.569  14.096  19.385  0.00  0.00    +0.160 A 
ATOM     61  C   UNL     1      46.889  15.438  19.545  0.00  0.00    -0.026 A 
ATOM     62  C   UNL     1      50.446  15.493  18.406  0.00  0.00    +0.446 C 
ATOM     63  O   UNL     1      51.381  14.725  18.280  0.00  0.00    -0.422 OA
ATOM     64  C   UNL     1      49.824  19.187  18.485  0.00  0.00    -0.007 A 
ENDROOT
BRANCH   9  10
ATOM     10  C   UNL     1      48.674  17.605  20.935  0.00  0.00    +0.115 C 
ATOM     11  C   UNL     1      47.864  18.796  21.349  0.00  0.00    -0.009 A 
ATOM     12  C   UNL     1      48.440  20.054  21.540  0.00  0.00    -0.178 A 
ATOM     13  C   UNL     1      49.893  20.224  21.363  0.00  0.00    +0.441 C 
ATOM     14  C   UNL     1      50.735  19.008  21.374  0.00  0.00    -0.180 A 
ATOM     15  C   UNL     1      52.115  19.115  21.584  0.00  0.00    +0.170 A 
ATOM     18  C   UNL     1      52.895  17.977  21.601  0.00  0.00    -0.019 A 
ATOM     19  C   UNL     1      52.307  16.742  21.413  0.00  0.00    -0.033 A 
ATOM     20  C   UNL     1      53.159  15.498  21.440  0.00  0.00    +0.100 C 
ATOM     21  C   UNL     1      50.944  16.635  21.203  0.00  0.00    -0.006 A 
ATOM     22  O   UNL     1      50.385  21.327  21.213  0.00  0.00    -0.415 OA
ATOM     23  C   UNL     1      47.648  21.150  21.911  0.00  0.00    +0.185 A 
ATOM     26  C   UNL     1      46.287  20.978  22.102  0.00  0.00    -0.132 A 
ATOM     37  C   UNL     1      45.724  19.723  21.919  0.00  0.00    +0.160 A 
ATOM     40  C   UNL     1      46.515  18.643  21.544  0.00  0.00    -0.025 A 
ATOM     41  C   UNL     1      50.144  17.764  21.177  0.00  0.00    -0.016 A 
BRANCH  15  16
ATOM     16  O   UNL     1      52.686  20.331  21.766  0.00  0.00    -0.479 OA
ATOM     17  H   UNL     1      53.649  20.305  21.856  0.00  0.00    +0.394 HD
ENDBRANCH  15  16
BRANCH  23  24
ATOM     24  O   UNL     1      48.212  22.372  22.084  0.00  0.00    -0.475 OA
ATOM     25  H   UNL     1      47.656  22.997  22.569  0.00  0.00    +0.397 HD
ENDBRANCH  23  24
BRANCH  37  38
ATOM     38  O   UNL     1      44.392  19.548  22.110  0.00  0.00    -0.487 OA
ATOM     39  H   UNL     1      44.010  20.137  22.775  0.00  0.00    +0.395 HD
ENDBRANCH  37  38
BRANCH  26  27
ATOM     27  C   UNL     1      45.424  22.145  22.505  0.00  0.00    +0.131 C 
BRANCH  27  28
ATOM     28  C   UNL     1      44.334  22.340  21.484  0.00  0.00    -0.057 C 
ATOM     29  C   UNL     1      44.450  23.273  20.571  0.00  0.00    -0.116 C 
ATOM     30  C   UNL     1      45.620  24.222  20.608  0.00  0.00    +0.076 C 
BRANCH  29  31
ATOM     31  C   UNL     1      43.415  23.395  19.483  0.00  0.00    +0.058 C 
BRANCH  31  32
ATOM     32  C   UNL     1      42.848  22.011  19.161  0.00  0.00    +0.055 C 
BRANCH  32  33
ATOM     33  C   UNL     1      41.439  22.153  18.644  0.00  0.00    -0.062 C 
ATOM     34  C   UNL     1      40.555  21.216  18.886  0.00  0.00    -0.129 C 
ATOM     35  C   UNL     1      39.115  21.421  18.492  0.00  0.00    +0.071 C 
ATOM     36  C   UNL     1      40.979  19.937  19.559  0.00  0.00    +0.070 C 
ENDBRANCH  32  33
ENDBRANCH  31  32
ENDBRANCH  29  31
ENDBRANCH  27  28
ENDBRANCH  26  27
ENDBRANCH   9  10
BRANCH   4   5
ATOM      5  O   UNL     1      52.686  16.568  17.065  0.00  0.00    -0.483 OA
ATOM      6  H   UNL     1      52.640  16.413  16.113  0.00  0.00    +0.399 HD
ENDBRANCH   4   5
BRANCH  44  45
ATOM     45  O   UNL     1      49.725  12.777  18.148  0.00  0.00    -0.473 OA
ATOM     46  H   UNL     1      50.620  13.141  18.126  0.00  0.00    +0.396 HD
ENDBRANCH  44  45
BRANCH  58  59
ATOM     59  O   UNL     1      45.319  13.661  19.688  0.00  0.00    -0.487 OA
ATOM     60  H   UNL     1      44.774  13.462  18.915  0.00  0.00    +0.395 HD
ENDBRANCH  58  59
BRANCH  47  48
ATOM     48  C   UNL     1      47.162  11.741  18.749  0.00  0.00    +0.130 C 
BRANCH  48  49
ATOM     49  C   UNL     1      47.585  11.276  17.379  0.00  0.00    -0.055 C 
ATOM     50  C   UNL     1      46.759  11.378  16.368  0.00  0.00    -0.117 C 
ATOM     51  C   UNL     1      45.373  11.931  16.580  0.00  0.00    +0.076 C 
BRANCH  50  52
ATOM     52  C   UNL     1      47.194  10.942  14.993  0.00  0.00    +0.059 C 
BRANCH  52  53
ATOM     53  C   UNL     1      48.708  10.718  14.984  0.00  0.00    +0.054 C 
BRANCH  53  54
ATOM     54  C   UNL     1      49.378  11.848  14.245  0.00  0.00    -0.063 C 
ATOM     55  C   UNL     1      50.658  12.069  14.408  0.00  0.00    -0.130 C 
ATOM     56  C   UNL     1      51.337  13.173  13.637  0.00  0.00    +0.071 C 
ATOM     57  C   UNL     1      51.454  11.221  15.367  0.00  0.00    +0.072 C 
ENDBRANCH  53  54
ENDBRANCH  52  53
ENDBRANCH  50  52
ENDBRANCH  48  49
ENDBRANCH  47  48
TORSDOF 17
ENDMDL
MODEL 3
REMARK VINA RESULT:      -5.7      1.939      6.927
REMARK  Name = ZINC95486184
REMARK  25 active torsions:
REMARK  status: ('A' for Active; 'I' for Inactive)
REMARK    1  A    between atoms: C1_1  and  C2_2
REMARK    2  A    between atoms: C4_4  and  O8_60
REMARK    3  A    between atoms: C8_8  and  C26_30
REMARK    4  A    between atoms: C11_12  and  O2_27
REMARK    5  A    between atoms: C12_13  and  C15_17
REMARK    6  A    between atoms: C13_14  and  O1_16
REMARK    7  A    between atoms: C15_17  and  C16_18
REMARK    8  A    between atoms: C17_19  and  C18_20
REMARK    9  A    between atoms: C17_19  and  C24_26
REMARK   10  A    between atoms: C18_20  and  C19_21
REMARK   11  A    between atoms: C19_21  and  C20_22
REMARK   12  A    between atoms: C21_23  and  C22_24
REMARK   13  A    between atoms: C21_23  and  C23_25
REMARK   14  A    between atoms: C29_34  and  O5_49
REMARK   15  A    between atoms: C30_35  and  C33_39
REMARK   16  A    between atoms: C31_36  and  O4_38
REMARK   17  A    between atoms: C33_39  and  C34_40
REMARK   18  A    between atoms: C35_41  and  C36_42
REMARK   19  A    between atoms: C35_41  and  C42_48
REMARK   20  A    between atoms: C36_42  and  C37_43
REMARK   21  A    between atoms: C37_43  and  C38_44
REMARK   22  A    between atoms: C39_45  and  C40_46
REMARK   23  A    between atoms: C39_45  and  C41_47
REMARK   24  A    between atoms: C47_55  and  C50_59
REMARK   25  A    between atoms: C49_57  and  O7_58
REMARK                            x       y       z     vdW  Elec       q    Type
REMARK                         _______ _______ _______ _____ _____    ______ ____
ROOT
ATOM      1  C   UNL     1      50.172  11.681  14.260  0.00  0.00    +0.099 C 
ATOM      2  C   UNL     1      49.728  12.308  15.556  0.00  0.00    -0.033 A 
ATOM      3  C   UNL     1      49.143  11.522  16.530  0.00  0.00    -0.017 A 
ATOM      4  C   UNL     1      48.728  12.100  17.721  0.00  0.00    +0.174 A 
ATOM      7  C   UNL     1      48.912  13.472  17.926  0.00  0.00    -0.180 A 
ATOM      8  C   UNL     1      49.511  14.260  16.944  0.00  0.00    -0.019 A 
ATOM      9  C   UNL     1      49.750  15.726  17.134  0.00  0.00    +0.115 C 
ATOM     42  C   UNL     1      48.921  16.338  18.223  0.00  0.00    -0.010 A 
ATOM     43  C   UNL     1      48.315  15.564  19.216  0.00  0.00    -0.177 A 
ATOM     44  C   UNL     1      47.560  16.172  20.230  0.00  0.00    +0.186 A 
ATOM     47  C   UNL     1      47.404  17.548  20.235  0.00  0.00    -0.131 A 
ATOM     58  C   UNL     1      48.000  18.307  19.239  0.00  0.00    +0.160 A 
ATOM     61  C   UNL     1      48.753  17.699  18.242  0.00  0.00    -0.026 A 
ATOM     62  C   UNL     1      48.463  14.097  19.189  0.00  0.00    +0.446 C 
ATOM     63  O   UNL     1      48.223  13.423  20.172  0.00  0.00    -0.422 OA
ATOM     64  C   UNL     1      49.915  13.663  15.762  0.00  0.00    -0.007 A 
ENDROOT
BRANCH   9  10
ATOM     10  C   UNL     1      51.227  15.941  17.469  0.00  0.00    +0.115 C 
ATOM     11  C   UNL     1      51.567  15.127  18.681  0.00  0.00    -0.009 A 
ATOM     12  C   UNL     1      51.690  15.701  19.949  0.00  0.00    -0.178 A 
ATOM     13  C   UNL     1      51.515  17.157  20.109  0.00  0.00    +0.441 C 
ATOM     14  C   UNL     1      51.601  17.998  18.897  0.00  0.00    -0.180 A 
ATOM     15  C   UNL     1      51.814  19.377  19.017  0.00  0.00    +0.170 A 
ATOM     18  C   UNL     1      51.902  20.157  17.882  0.00  0.00    -0.019 A 
ATOM     19  C   UNL     1      51.781  19.571  16.638  0.00  0.00    -0.033 A 
ATOM     20  C   UNL     1      51.884  20.422  15.399  0.00  0.00    +0.100 C 
ATOM     21  C   UNL     1      51.567  18.210  16.518  0.00  0.00    -0.006 A 
ATOM     22  O   UNL     1      51.305  17.649  21.202  0.00  0.00    -0.415 OA
ATOM     23  C   UNL     1      51.993  14.907  21.064  0.00  0.00    +0.185 A 
ATOM     26  C   UNL     1      52.183  13.544  20.902  0.00  0.00    -0.132 A 
ATOM     37  C   UNL     1      52.067  12.983  19.638  0.00  0.00    +0.160 A 
ATOM     40  C   UNL     1      51.760  13.777  18.539  0.00  0.00    -0.025 A 
ATOM     41  C   UNL     1      51.471  17.409  17.643  0.00  0.00    -0.016 A 
BRANCH  15  16
ATOM     16  O   UNL     1      51.932  19.946  20.242  0.00  0.00    -0.479 OA
ATOM     17  H   UNL     1      52.681  19.617  20.759  0.00  0.00    +0.394 HD
ENDBRANCH  15  16
BRANCH  23  24
ATOM     24  O   UNL     1      52.099  15.469  22.294  0.00  0.00    -0.475 OA
ATOM     25  H   UNL     1      52.939  15.288  22.738  0.00  0.00    +0.397 HD
ENDBRANCH  23  24
BRANCH  37  38
ATOM     38  O   UNL     1      52.258  11.650  19.474  0.00  0.00    -0.487 OA
ATOM     39  H   UNL     1      52.926  11.273  20.062  0.00  0.00    +0.395 HD
ENDBRANCH  37  38
BRANCH  26  27
ATOM     27  C   UNL     1      52.512  12.678  22.089  0.00  0.00    +0.131 C 
BRANCH  27  28
ATOM     28  C   UNL     1      53.998  12.711  22.339  0.00  0.00    -0.057 C 
ATOM     29  C   UNL     1      54.700  11.608  22.258  0.00  0.00    -0.116 C 
ATOM     30  C   UNL     1      54.009  10.290  22.025  0.00  0.00    +0.076 C 
BRANCH  29  31
ATOM     31  C   UNL     1      56.200  11.659  22.396  0.00  0.00    +0.058 C 
BRANCH  31  32
ATOM     32  C   UNL     1      56.814  12.193  21.101  0.00  0.00    +0.055 C 
BRANCH  32  33
ATOM     33  C   UNL     1      57.495  13.510  21.373  0.00  0.00    -0.062 C 
ATOM     34  C   UNL     1      57.179  14.568  20.667  0.00  0.00    -0.129 C 
ATOM     35  C   UNL     1      57.754  15.913  21.029  0.00  0.00    +0.071 C 
ATOM     36  C   UNL     1      56.241  14.439  19.495  0.00  0.00    +0.070 C 
ENDBRANCH  32  33
ENDBRANCH  31  32
ENDBRANCH  29  31
ENDBRANCH  27  28
ENDBRANCH  26  27
ENDBRANCH   9  10
BRANCH   4   5
ATOM      5  O   UNL     1      48.148  11.337  18.683  0.00  0.00    -0.483 OA
ATOM      6  H   UNL     1      47.566  10.647  18.339  0.00  0.00    +0.399 HD
ENDBRANCH   4   5
BRANCH  44  45
ATOM     45  O   UNL     1      46.985  15.416  21.198  0.00  0.00    -0.473 OA
ATOM     46  H   UNL     1      46.187  15.808  21.581  0.00  0.00    +0.396 HD
ENDBRANCH  44  45
BRANCH  58  59
ATOM     59  O   UNL     1      47.846  19.656  19.238  0.00  0.00    -0.487 OA
ATOM     60  H   UNL     1      46.929  19.947  19.335  0.00  0.00    +0.395 HD
ENDBRANCH  58  59
BRANCH  47  48
ATOM     48  C   UNL     1      46.591  18.215  21.315  0.00  0.00    +0.130 C 
BRANCH  48  49
ATOM     49  C   UNL     1      45.137  18.222  20.918  0.00  0.00    -0.055 C 
ATOM     50  C   UNL     1      44.485  19.355  20.835  0.00  0.00    -0.117 C 
ATOM     51  C   UNL     1      45.181  20.650  21.167  0.00  0.00    +0.076 C 
BRANCH  50  52
ATOM     52  C   UNL     1      43.041  19.363  20.408  0.00  0.00    +0.059 C 
BRANCH  52  53
ATOM     53  C   UNL     1      42.911  20.083  19.064  0.00  0.00    +0.054 C 
BRANCH  53  54
ATOM     54  C   UNL     1      41.711  20.994  19.097  0.00  0.00    -0.063 C 
ATOM     55  C   UNL     1      40.607  20.645  18.484  0.00  0.00    -0.130 C 
ATOM     56  C   UNL     1      39.393  21.538  18.551  0.00  0.00    +0.071 C 
ATOM     57  C   UNL     1      40.549  19.352  17.713  0.00  0.00    +0.072 C 
ENDBRANCH  53  54
ENDBRANCH  52  53
ENDBRANCH  50  52
ENDBRANCH  48  49
ENDBRANCH  47  48
TORSDOF 17
ENDMDL
MODEL 4
REMARK VINA RESULT:      -5.6      1.254      2.363
REMARK  Name = ZINC95486184
REMARK  25 active torsions:
REMARK  status: ('A' for Active; 'I' for Inactive)
REMARK    1  A    between atoms: C1_1  and  C2_2
REMARK    2  A    between atoms: C4_4  and  O8_60
REMARK    3  A    between atoms: C8_8  and  C26_30
REMARK    4  A    between atoms: C11_12  and  O2_27
REMARK    5  A    between atoms: C12_13  and  C15_17
REMARK    6  A    between atoms: C13_14  and  O1_16
REMARK    7  A    between atoms: C15_17  and  C16_18
REMARK    8  A    between atoms: C17_19  and  C18_20
REMARK    9  A    between atoms: C17_19  and  C24_26
REMARK   10  A    between atoms: C18_20  and  C19_21
REMARK   11  A    between atoms: C19_21  and  C20_22
REMARK   12  A    between atoms: C21_23  and  C22_24
REMARK   13  A    between atoms: C21_23  and  C23_25
REMARK   14  A    between atoms: C29_34  and  O5_49
REMARK   15  A    between atoms: C30_35  and  C33_39
REMARK   16  A    between atoms: C31_36  and  O4_38
REMARK   17  A    between atoms: C33_39  and  C34_40
REMARK   18  A    between atoms: C35_41  and  C36_42
REMARK   19  A    between atoms: C35_41  and  C42_48
REMARK   20  A    between atoms: C36_42  and  C37_43
REMARK   21  A    between atoms: C37_43  and  C38_44
REMARK   22  A    between atoms: C39_45  and  C40_46
REMARK   23  A    between atoms: C39_45  and  C41_47
REMARK   24  A    between atoms: C47_55  and  C50_59
REMARK   25  A    between atoms: C49_57  and  O7_58
REMARK                            x       y       z     vdW  Elec       q    Type
REMARK                         _______ _______ _______ _____ _____    ______ ____
ROOT
ATOM      1  C   UNL     1      53.124  10.277  14.396  0.00  0.00    +0.099 C 
ATOM      2  C   UNL     1      51.978  11.137  14.860  0.00  0.00    -0.033 A 
ATOM      3  C   UNL     1      50.755  11.048  14.223  0.00  0.00    -0.017 A 
ATOM      4  C   UNL     1      49.701  11.845  14.646  0.00  0.00    +0.174 A 
ATOM      7  C   UNL     1      49.886  12.728  15.717  0.00  0.00    -0.180 A 
ATOM      8  C   UNL     1      51.120  12.807  16.362  0.00  0.00    -0.019 A 
ATOM      9  C   UNL     1      51.351  13.719  17.528  0.00  0.00    +0.115 C 
ATOM     42  C   UNL     1      50.337  14.816  17.649  0.00  0.00    -0.010 A 
ATOM     43  C   UNL     1      49.096  14.752  17.011  0.00  0.00    -0.177 A 
ATOM     44  C   UNL     1      48.165  15.790  17.159  0.00  0.00    +0.186 A 
ATOM     47  C   UNL     1      48.487  16.892  17.933  0.00  0.00    -0.131 A 
ATOM     58  C   UNL     1      49.726  16.953  18.555  0.00  0.00    +0.160 A 
ATOM     61  C   UNL     1      50.640  15.916  18.409  0.00  0.00    -0.026 A 
ATOM     62  C   UNL     1      48.771  13.587  16.166  0.00  0.00    +0.446 C 
ATOM     63  O   UNL     1      47.622  13.343  15.849  0.00  0.00    -0.422 OA
ATOM     64  C   UNL     1      52.158  12.005  15.922  0.00  0.00    -0.007 A 
ENDROOT
BRANCH   9  10
ATOM     10  C   UNL     1      51.321  12.886  18.812  0.00  0.00    +0.115 C 
ATOM     11  C   UNL     1      50.050  13.184  19.547  0.00  0.00    -0.009 A 
ATOM     12  C   UNL     1      50.018  14.027  20.661  0.00  0.00    -0.178 A 
ATOM     13  C   UNL     1      51.271  14.622  21.160  0.00  0.00    +0.441 C 
ATOM     14  C   UNL     1      52.545  14.015  20.720  0.00  0.00    -0.180 A 
ATOM     15  C   UNL     1      53.725  14.278  21.425  0.00  0.00    +0.170 A 
ATOM     18  C   UNL     1      54.911  13.703  21.014  0.00  0.00    -0.019 A 
ATOM     19  C   UNL     1      54.922  12.871  19.912  0.00  0.00    -0.033 A 
ATOM     20  C   UNL     1      56.215  12.237  19.469  0.00  0.00    +0.100 C 
ATOM     21  C   UNL     1      53.757  12.613  19.213  0.00  0.00    -0.006 A 
ATOM     22  O   UNL     1      51.258  15.582  21.908  0.00  0.00    -0.415 OA
ATOM     23  C   UNL     1      48.807  14.297  21.315  0.00  0.00    +0.185 A 
ATOM     26  C   UNL     1      47.637  13.712  20.858  0.00  0.00    -0.132 A 
ATOM     37  C   UNL     1      47.679  12.870  19.756  0.00  0.00    +0.160 A 
ATOM     40  C   UNL     1      48.883  12.614  19.109  0.00  0.00    -0.025 A 
ATOM     41  C   UNL     1      52.558  13.183  19.604  0.00  0.00    -0.016 A 
BRANCH  15  16
ATOM     16  O   UNL     1      53.707  15.097  22.505  0.00  0.00    -0.479 OA
ATOM     17  H   UNL     1      52.819  15.340  22.801  0.00  0.00    +0.394 HD
ENDBRANCH  15  16
BRANCH  23  24
ATOM     24  O   UNL     1      48.781  15.125  22.389  0.00  0.00    -0.475 OA
ATOM     25  H   UNL     1      49.573  15.077  22.942  0.00  0.00    +0.397 HD
ENDBRANCH  23  24
BRANCH  37  38
ATOM     38  O   UNL     1      46.536  12.291  19.307  0.00  0.00    -0.487 OA
ATOM     39  H   UNL     1      45.729  12.738  19.599  0.00  0.00    +0.395 HD
ENDBRANCH  37  38
BRANCH  26  27
ATOM     27  C   UNL     1      46.329  13.990  21.551  0.00  0.00    +0.131 C 
BRANCH  27  28
ATOM     28  C   UNL     1      46.137  15.478  21.687  0.00  0.00    -0.057 C 
ATOM     29  C   UNL     1      45.558  16.154  20.725  0.00  0.00    -0.116 C 
ATOM     30  C   UNL     1      45.184  15.464  19.439  0.00  0.00    +0.076 C 
BRANCH  29  31
ATOM     31  C   UNL     1      45.264  17.620  20.907  0.00  0.00    +0.058 C 
BRANCH  31  32
ATOM     32  C   UNL     1      43.755  17.823  21.054  0.00  0.00    +0.055 C 
BRANCH  32  33
ATOM     33  C   UNL     1      43.290  18.871  20.074  0.00  0.00    -0.062 C 
ATOM     34  C   UNL     1      42.086  19.376  20.178  0.00  0.00    -0.129 C 
ATOM     35  C   UNL     1      41.670  20.520  19.289  0.00  0.00    +0.071 C 
ATOM     36  C   UNL     1      41.117  18.813  21.186  0.00  0.00    +0.070 C 
ENDBRANCH  32  33
ENDBRANCH  31  32
ENDBRANCH  29  31
ENDBRANCH  27  28
ENDBRANCH  26  27
ENDBRANCH   9  10
BRANCH   4   5
ATOM      5  O   UNL     1      48.497  11.768  14.024  0.00  0.00    -0.483 OA
ATOM      6  H   UNL     1      47.927  11.062  14.357  0.00  0.00    +0.399 HD
ENDBRANCH   4   5
BRANCH  44  45
ATOM     45  O   UNL     1      46.957  15.715  16.547  0.00  0.00    -0.473 OA
ATOM     46  H   UNL     1      46.898  15.020  15.877  0.00  0.00    +0.396 HD
ENDBRANCH  44  45
BRANCH  58  59
ATOM     59  O   UNL     1      50.047  18.033  19.311  0.00  0.00    -0.487 OA
ATOM     60  H   UNL     1      49.282  18.515  19.653  0.00  0.00    +0.395 HD
ENDBRANCH  58  59
BRANCH  47  48
ATOM     48  C   UNL     1      47.499  18.018  18.099  0.00  0.00    +0.130 C 
BRANCH  48  49
ATOM     49  C   UNL     1      48.077  19.064  19.017  0.00  0.00    -0.055 C 
ATOM     50  C   UNL     1      47.412  20.165  19.258  0.00  0.00    -0.117 C 
ATOM     51  C   UNL     1      46.081  20.402  18.592  0.00  0.00    +0.076 C 
BRANCH  50  52
ATOM     52  C   UNL     1      47.976  21.196  20.201  0.00  0.00    +0.059 C 
BRANCH  52  53
ATOM     53  C   UNL     1      49.503  21.191  20.107  0.00  0.00    +0.054 C 
BRANCH  53  54
ATOM     54  C   UNL     1      49.917  21.192  18.658  0.00  0.00    -0.063 C 
ATOM     55  C   UNL     1      51.186  21.131  18.339  0.00  0.00    -0.130 C 
ATOM     56  C   UNL     1      51.598  21.092  16.889  0.00  0.00    +0.071 C 
ATOM     57  C   UNL     1      52.235  21.100  19.421  0.00  0.00    +0.072 C 
ENDBRANCH  53  54
ENDBRANCH  52  53
ENDBRANCH  50  52
ENDBRANCH  48  49
ENDBRANCH  47  48
TORSDOF 17
ENDMDL
MODEL 5
REMARK VINA RESULT:      -5.5      2.124      8.680
REMARK  Name = ZINC95486184
REMARK  25 active torsions:
REMARK  status: ('A' for Active; 'I' for Inactive)
REMARK    1  A    between atoms: C1_1  and  C2_2
REMARK    2  A    between atoms: C4_4  and  O8_60
REMARK    3  A    between atoms: C8_8  and  C26_30
REMARK    4  A    between atoms: C11_12  and  O2_27
REMARK    5  A    between atoms: C12_13  and  C15_17
REMARK    6  A    between atoms: C13_14  and  O1_16
REMARK    7  A    between atoms: C15_17  and  C16_18
REMARK    8  A    between atoms: C17_19  and  C18_20
REMARK    9  A    between atoms: C17_19  and  C24_26
REMARK   10  A    between atoms: C18_20  and  C19_21
REMARK   11  A    between atoms: C19_21  and  C20_22
REMARK   12  A    between atoms: C21_23  and  C22_24
REMARK   13  A    between atoms: C21_23  and  C23_25
REMARK   14  A    between atoms: C29_34  and  O5_49
REMARK   15  A    between atoms: C30_35  and  C33_39
REMARK   16  A    between atoms: C31_36  and  O4_38
REMARK   17  A    between atoms: C33_39  and  C34_40
REMARK   18  A    between atoms: C35_41  and  C36_42
REMARK   19  A    between atoms: C35_41  and  C42_48
REMARK   20  A    between atoms: C36_42  and  C37_43
REMARK   21  A    between atoms: C37_43  and  C38_44
REMARK   22  A    between atoms: C39_45  and  C40_46
REMARK   23  A    between atoms: C39_45  and  C41_47
REMARK   24  A    between atoms: C47_55  and  C50_59
REMARK   25  A    between atoms: C49_57  and  O7_58
REMARK                            x       y       z     vdW  Elec       q    Type
REMARK                         _______ _______ _______ _____ _____    ______ ____
ROOT
ATOM      1  C   UNL     1      45.899  23.844  21.017  0.00  0.00    +0.099 C 
ATOM      2  C   UNL     1      45.707  22.378  20.725  0.00  0.00    -0.033 A 
ATOM      3  C   UNL     1      44.517  21.941  20.177  0.00  0.00    -0.017 A 
ATOM      4  C   UNL     1      44.337  20.590  19.915  0.00  0.00    +0.174 A 
ATOM      7  C   UNL     1      45.365  19.685  20.204  0.00  0.00    -0.180 A 
ATOM      8  C   UNL     1      46.568  20.134  20.749  0.00  0.00    -0.019 A 
ATOM      9  C   UNL     1      47.703  19.202  21.049  0.00  0.00    +0.115 C 
ATOM     42  C   UNL     1      47.296  17.763  21.137  0.00  0.00    -0.010 A 
ATOM     43  C   UNL     1      46.096  17.296  20.596  0.00  0.00    -0.177 A 
ATOM     44  C   UNL     1      45.755  15.938  20.684  0.00  0.00    +0.186 A 
ATOM     47  C   UNL     1      46.610  15.059  21.326  0.00  0.00    -0.131 A 
ATOM     58  C   UNL     1      47.795  15.532  21.871  0.00  0.00    +0.160 A 
ATOM     61  C   UNL     1      48.129  16.877  21.773  0.00  0.00    -0.026 A 
ATOM     62  C   UNL     1      45.177  18.244  19.937  0.00  0.00    +0.446 C 
ATOM     63  O   UNL     1      44.293  17.852  19.199  0.00  0.00    -0.422 OA
ATOM     64  C   UNL     1      46.725  21.485  21.005  0.00  0.00    -0.007 A 
ENDROOT
BRANCH   9  10
ATOM     10  C   UNL     1      48.754  19.343  19.945  0.00  0.00    +0.115 C 
ATOM     11  C   UNL     1      48.696  18.127  19.070  0.00  0.00    -0.009 A 
ATOM     12  C   UNL     1      49.633  17.096  19.171  0.00  0.00    -0.178 A 
ATOM     13  C   UNL     1      50.738  17.209  20.140  0.00  0.00    +0.441 C 
ATOM     14  C   UNL     1      51.040  18.549  20.688  0.00  0.00    -0.180 A 
ATOM     15  C   UNL     1      52.274  18.790  21.304  0.00  0.00    +0.170 A 
ATOM     18  C   UNL     1      52.554  20.045  21.806  0.00  0.00    -0.019 A 
ATOM     19  C   UNL     1      51.616  21.052  21.695  0.00  0.00    -0.033 A 
ATOM     20  C   UNL     1      51.926  22.423  22.237  0.00  0.00    +0.100 C 
ATOM     21  C   UNL     1      50.396  20.813  21.089  0.00  0.00    -0.006 A 
ATOM     22  O   UNL     1      51.380  16.232  20.480  0.00  0.00    -0.415 OA
ATOM     23  C   UNL     1      49.539  15.966  18.347  0.00  0.00    +0.185 A 
ATOM     26  C   UNL     1      48.514  15.879  17.419  0.00  0.00    -0.132 A 
ATOM     37  C   UNL     1      47.592  16.911  17.320  0.00  0.00    +0.160 A 
ATOM     40  C   UNL     1      47.689  18.025  18.145  0.00  0.00    -0.025 A 
ATOM     41  C   UNL     1      50.091  19.562  20.583  0.00  0.00    -0.016 A 
BRANCH  15  16
ATOM     16  O   UNL     1      53.191  17.797  21.410  0.00  0.00    -0.479 OA
ATOM     17  H   UNL     1      54.076  18.045  21.110  0.00  0.00    +0.394 HD
ENDBRANCH  15  16
BRANCH  23  24
ATOM     24  O   UNL     1      50.446  14.963  18.457  0.00  0.00    -0.475 OA
ATOM     25  H   UNL     1      51.072  15.077  19.185  0.00  0.00    +0.397 HD
ENDBRANCH  23  24
BRANCH  37  38
ATOM     38  O   UNL     1      46.589  16.832  16.409  0.00  0.00    -0.487 OA
ATOM     39  H   UNL     1      46.139  17.673  16.247  0.00  0.00    +0.395 HD
ENDBRANCH  37  38
BRANCH  26  27
ATOM     27  C   UNL     1      48.401  14.672  16.525  0.00  0.00    +0.131 C 
BRANCH  27  28
ATOM     28  C   UNL     1      49.779  14.219  16.115  0.00  0.00    -0.057 C 
ATOM     29  C   UNL     1      49.926  13.123  15.412  0.00  0.00    -0.116 C 
ATOM     30  C   UNL     1      48.732  12.256  15.109  0.00  0.00    +0.076 C 
BRANCH  29  31
ATOM     31  C   UNL     1      51.290  12.730  14.907  0.00  0.00    +0.058 C 
BRANCH  31  32
ATOM     32  C   UNL     1      51.675  13.627  13.729  0.00  0.00    +0.055 C 
BRANCH  32  33
ATOM     33  C   UNL     1      51.896  12.780  12.502  0.00  0.00    -0.062 C 
ATOM     34  C   UNL     1      51.016  12.793  11.531  0.00  0.00    -0.129 C 
ATOM     35  C   UNL     1      51.302  12.057  10.247  0.00  0.00    +0.071 C 
ATOM     36  C   UNL     1      49.720  13.542  11.698  0.00  0.00    +0.070 C 
ENDBRANCH  32  33
ENDBRANCH  31  32
ENDBRANCH  29  31
ENDBRANCH  27  28
ENDBRANCH  26  27
ENDBRANCH   9  10
BRANCH   4   5
ATOM      5  O   UNL     1      43.170  20.150  19.380  0.00  0.00    -0.483 OA
ATOM      6  H   UNL     1      42.790  19.389  19.838  0.00  0.00    +0.399 HD
ENDBRANCH   4   5
BRANCH  44  45
ATOM     45  O   UNL     1      44.594  15.490  20.144  0.00  0.00    -0.473 OA
ATOM     46  H   UNL     1      44.331  14.612  20.451  0.00  0.00    +0.396 HD
ENDBRANCH  44  45
BRANCH  58  59
ATOM     59  O   UNL     1      48.634  14.674  22.505  0.00  0.00    -0.487 OA
ATOM     60  H   UNL     1      48.243  13.810  22.694  0.00  0.00    +0.395 HD
ENDBRANCH  58  59
BRANCH  47  48
ATOM     48  C   UNL     1      46.256  13.598  21.432  0.00  0.00    +0.130 C 
BRANCH  48  49
ATOM     49  C   UNL     1      47.276  12.778  20.685  0.00  0.00    -0.055 C 
ATOM     50  C   UNL     1      47.083  12.480  19.425  0.00  0.00    -0.117 C 
ATOM     51  C   UNL     1      45.825  12.930  18.729  0.00  0.00    +0.076 C 
BRANCH  50  52
ATOM     52  C   UNL     1      48.118  11.687  18.671  0.00  0.00    +0.059 C 
BRANCH  52  53
ATOM     53  C   UNL     1      49.449  11.738  19.425  0.00  0.00    +0.054 C 
BRANCH  53  54
ATOM     54  C   UNL     1      50.583  11.511  18.459  0.00  0.00    -0.063 C 
ATOM     55  C   UNL     1      51.807  11.377  18.905  0.00  0.00    -0.130 C 
ATOM     56  C   UNL     1      52.935  11.109  17.942  0.00  0.00    +0.071 C 
ATOM     57  C   UNL     1      52.088  11.492  20.381  0.00  0.00    +0.072 C 
ENDBRANCH  53  54
ENDBRANCH  52  53
ENDBRANCH  50  52
ENDBRANCH  48  49
ENDBRANCH  47  48
TORSDOF 17
ENDMDL
MODEL 6
REMARK VINA RESULT:      -5.2      2.360      7.336
REMARK  Name = ZINC95486184
REMARK  25 active torsions:
REMARK  status: ('A' for Active; 'I' for Inactive)
REMARK    1  A    between atoms: C1_1  and  C2_2
REMARK    2  A    between atoms: C4_4  and  O8_60
REMARK    3  A    between atoms: C8_8  and  C26_30
REMARK    4  A    between atoms: C11_12  and  O2_27
REMARK    5  A    between atoms: C12_13  and  C15_17
REMARK    6  A    between atoms: C13_14  and  O1_16
REMARK    7  A    between atoms: C15_17  and  C16_18
REMARK    8  A    between atoms: C17_19  and  C18_20
REMARK    9  A    between atoms: C17_19  and  C24_26
REMARK   10  A    between atoms: C18_20  and  C19_21
REMARK   11  A    between atoms: C19_21  and  C20_22
REMARK   12  A    between atoms: C21_23  and  C22_24
REMARK   13  A    between atoms: C21_23  and  C23_25
REMARK   14  A    between atoms: C29_34  and  O5_49
REMARK   15  A    between atoms: C30_35  and  C33_39
REMARK   16  A    between atoms: C31_36  and  O4_38
REMARK   17  A    between atoms: C33_39  and  C34_40
REMARK   18  A    between atoms: C35_41  and  C36_42
REMARK   19  A    between atoms: C35_41  and  C42_48
REMARK   20  A    between atoms: C36_42  and  C37_43
REMARK   21  A    between atoms: C37_43  and  C38_44
REMARK   22  A    between atoms: C39_45  and  C40_46
REMARK   23  A    between atoms: C39_45  and  C41_47
REMARK   24  A    between atoms: C47_55  and  C50_59
REMARK   25  A    between atoms: C49_57  and  O7_58
REMARK                            x       y       z     vdW  Elec       q    Type
REMARK                         _______ _______ _______ _____ _____    ______ ____
ROOT
ATOM      1  C   UNL     1      50.448  21.159  18.320  0.00  0.00    +0.099 C 
ATOM      2  C   UNL     1      50.763  19.691  18.447  0.00  0.00    -0.033 A 
ATOM      3  C   UNL     1      52.043  19.242  18.190  0.00  0.00    -0.017 A 
ATOM      4  C   UNL     1      52.333  17.890  18.300  0.00  0.00    +0.174 A 
ATOM      7  C   UNL     1      51.324  16.994  18.675  0.00  0.00    -0.180 A 
ATOM      8  C   UNL     1      50.034  17.454  18.941  0.00  0.00    -0.019 A 
ATOM      9  C   UNL     1      48.933  16.532  19.370  0.00  0.00    +0.115 C 
ATOM     42  C   UNL     1      49.198  15.090  19.063  0.00  0.00    -0.010 A 
ATOM     43  C   UNL     1      50.483  14.612  18.795  0.00  0.00    -0.177 A 
ATOM     44  C   UNL     1      50.695  13.252  18.528  0.00  0.00    +0.186 A 
ATOM     47  C   UNL     1      49.619  12.381  18.515  0.00  0.00    -0.131 A 
ATOM     58  C   UNL     1      48.345  12.865  18.771  0.00  0.00    +0.160 A 
ATOM     61  C   UNL     1      48.143  14.213  19.043  0.00  0.00    -0.026 A 
ATOM     62  C   UNL     1      51.621  15.550  18.784  0.00  0.00    +0.446 C 
ATOM     63  O   UNL     1      52.767  15.149  18.861  0.00  0.00    -0.422 OA
ATOM     64  C   UNL     1      49.768  18.807  18.823  0.00  0.00    -0.007 A 
ENDROOT
BRANCH   9  10
ATOM     10  C   UNL     1      48.735  16.679  20.880  0.00  0.00    +0.115 C 
ATOM     11  C   UNL     1      47.321  17.102  21.140  0.00  0.00    -0.009 A 
ATOM     12  C   UNL     1      46.987  18.422  21.451  0.00  0.00    -0.178 A 
ATOM     13  C   UNL     1      48.052  19.436  21.563  0.00  0.00    +0.441 C 
ATOM     14  C   UNL     1      49.442  18.958  21.727  0.00  0.00    -0.180 A 
ATOM     15  C   UNL     1      50.429  19.830  22.203  0.00  0.00    +0.170 A 
ATOM     18  C   UNL     1      51.723  19.378  22.361  0.00  0.00    -0.019 A 
ATOM     19  C   UNL     1      52.033  18.068  22.051  0.00  0.00    -0.033 A 
ATOM     20  C   UNL     1      53.445  17.573  22.232  0.00  0.00    +0.100 C 
ATOM     21  C   UNL     1      51.060  17.207  21.578  0.00  0.00    -0.006 A 
ATOM     22  O   UNL     1      47.797  20.624  21.522  0.00  0.00    -0.415 OA
ATOM     23  C   UNL     1      45.651  18.786  21.671  0.00  0.00    +0.185 A 
ATOM     26  C   UNL     1      44.658  17.823  21.591  0.00  0.00    -0.132 A 
ATOM     37  C   UNL     1      44.999  16.512  21.289  0.00  0.00    +0.160 A 
ATOM     40  C   UNL     1      46.325  16.162  21.066  0.00  0.00    -0.025 A 
ATOM     41  C   UNL     1      49.756  17.641  21.407  0.00  0.00    -0.016 A 
BRANCH  15  16
ATOM     16  O   UNL     1      50.118  21.114  22.505  0.00  0.00    -0.479 OA
ATOM     17  H   UNL     1      49.171  21.311  22.461  0.00  0.00    +0.394 HD
ENDBRANCH  15  16
BRANCH  23  24
ATOM     24  O   UNL     1      45.332  20.072  21.961  0.00  0.00    -0.475 OA
ATOM     25  H   UNL     1      45.744  20.721  21.374  0.00  0.00    +0.397 HD
ENDBRANCH  23  24
BRANCH  37  38
ATOM     38  O   UNL     1      44.030  15.565  21.214  0.00  0.00    -0.487 OA
ATOM     39  H   UNL     1      44.081  15.012  20.423  0.00  0.00    +0.395 HD
ENDBRANCH  37  38
BRANCH  26  27
ATOM     27  C   UNL     1      43.218  18.197  21.828  0.00  0.00    +0.131 C 
BRANCH  27  28
ATOM     28  C   UNL     1      42.580  18.597  20.523  0.00  0.00    -0.057 C 
ATOM     29  C   UNL     1      41.417  19.200  20.519  0.00  0.00    -0.116 C 
ATOM     30  C   UNL     1      40.666  19.395  21.810  0.00  0.00    +0.076 C 
BRANCH  29  31
ATOM     31  C   UNL     1      40.832  19.700  19.224  0.00  0.00    +0.058 C 
BRANCH  31  32
ATOM     32  C   UNL     1      41.891  20.496  18.459  0.00  0.00    +0.055 C 
BRANCH  32  33
ATOM     33  C   UNL     1      42.394  21.624  19.323  0.00  0.00    -0.062 C 
ATOM     34  C   UNL     1      43.682  21.835  19.439  0.00  0.00    -0.129 C 
ATOM     35  C   UNL     1      44.182  23.045  20.186  0.00  0.00    +0.071 C 
ATOM     36  C   UNL     1      44.662  20.870  18.825  0.00  0.00    +0.070 C 
ENDBRANCH  32  33
ENDBRANCH  31  32
ENDBRANCH  29  31
ENDBRANCH  27  28
ENDBRANCH  26  27
ENDBRANCH   9  10
BRANCH   4   5
ATOM      5  O   UNL     1      53.587  17.438  18.047  0.00  0.00    -0.483 OA
ATOM      6  H   UNL     1      54.125  18.045  17.522  0.00  0.00    +0.399 HD
ENDBRANCH   4   5
BRANCH  44  45
ATOM     45  O   UNL     1      51.948  12.793  18.282  0.00  0.00    -0.473 OA
ATOM     46  H   UNL     1      52.308  12.237  18.986  0.00  0.00    +0.396 HD
ENDBRANCH  44  45
BRANCH  58  59
ATOM     59  O   UNL     1      47.286  12.016  18.755  0.00  0.00    -0.487 OA
ATOM     60  H   UNL     1      46.969  11.767  19.633  0.00  0.00    +0.395 HD
ENDBRANCH  58  59
BRANCH  47  48
ATOM     48  C   UNL     1      49.831  10.917  18.224  0.00  0.00    +0.130 C 
BRANCH  48  49
ATOM     49  C   UNL     1      50.519  10.764  16.892  0.00  0.00    -0.055 C 
ATOM     50  C   UNL     1      49.818  10.496  15.819  0.00  0.00    -0.117 C 
ATOM     51  C   UNL     1      48.327  10.310  15.921  0.00  0.00    +0.076 C 
BRANCH  50  52
ATOM     52  C   UNL     1      50.503  10.374  14.483  0.00  0.00    +0.059 C 
BRANCH  52  53
ATOM     53  C   UNL     1      50.934  11.762  14.003  0.00  0.00    +0.054 C 
BRANCH  53  54
ATOM     54  C   UNL     1      51.391  11.677  12.569  0.00  0.00    -0.063 C 
ATOM     55  C   UNL     1      50.800  12.400  11.650  0.00  0.00    -0.130 C 
ATOM     56  C   UNL     1      51.284  12.346  10.223  0.00  0.00    +0.071 C 
ATOM     57  C   UNL     1      49.637  13.285  12.018  0.00  0.00    +0.072 C 
ENDBRANCH  53  54
ENDBRANCH  52  53
ENDBRANCH  50  52
ENDBRANCH  48  49
ENDBRANCH  47  48
TORSDOF 17
ENDMDL
MODEL 7
REMARK VINA RESULT:      -4.0      2.112      8.516
REMARK  Name = ZINC95486184
REMARK  25 active torsions:
REMARK  status: ('A' for Active; 'I' for Inactive)
REMARK    1  A    between atoms: C1_1  and  C2_2
REMARK    2  A    between atoms: C4_4  and  O8_60
REMARK    3  A    between atoms: C8_8  and  C26_30
REMARK    4  A    between atoms: C11_12  and  O2_27
REMARK    5  A    between atoms: C12_13  and  C15_17
REMARK    6  A    between atoms: C13_14  and  O1_16
REMARK    7  A    between atoms: C15_17  and  C16_18
REMARK    8  A    between atoms: C17_19  and  C18_20
REMARK    9  A    between atoms: C17_19  and  C24_26
REMARK   10  A    between atoms: C18_20  and  C19_21
REMARK   11  A    between atoms: C19_21  and  C20_22
REMARK   12  A    between atoms: C21_23  and  C22_24
REMARK   13  A    between atoms: C21_23  and  C23_25
REMARK   14  A    between atoms: C29_34  and  O5_49
REMARK   15  A    between atoms: C30_35  and  C33_39
REMARK   16  A    between atoms: C31_36  and  O4_38
REMARK   17  A    between atoms: C33_39  and  C34_40
REMARK   18  A    between atoms: C35_41  and  C36_42
REMARK   19  A    between atoms: C35_41  and  C42_48
REMARK   20  A    between atoms: C36_42  and  C37_43
REMARK   21  A    between atoms: C37_43  and  C38_44
REMARK   22  A    between atoms: C39_45  and  C40_46
REMARK   23  A    between atoms: C39_45  and  C41_47
REMARK   24  A    between atoms: C47_55  and  C50_59
REMARK   25  A    between atoms: C49_57  and  O7_58
REMARK                            x       y       z     vdW  Elec       q    Type
REMARK                         _______ _______ _______ _____ _____    ______ ____
ROOT
ATOM      1  C   UNL     1      45.448  21.823  19.470  0.00  0.00    +0.099 C 
ATOM      2  C   UNL     1      45.586  20.333  19.654  0.00  0.00    -0.033 A 
ATOM      3  C   UNL     1      44.455  19.541  19.681  0.00  0.00    -0.017 A 
ATOM      4  C   UNL     1      44.581  18.170  19.856  0.00  0.00    +0.174 A 
ATOM      7  C   UNL     1      45.854  17.604  19.999  0.00  0.00    -0.180 A 
ATOM      8  C   UNL     1      46.993  18.408  19.962  0.00  0.00    -0.019 A 
ATOM      9  C   UNL     1      48.373  17.839  20.084  0.00  0.00    +0.115 C 
ATOM     42  C   UNL     1      48.410  16.463  20.678  0.00  0.00    -0.010 A 
ATOM     43  C   UNL     1      47.279  15.644  20.722  0.00  0.00    -0.177 A 
ATOM     44  C   UNL     1      47.354  14.356  21.271  0.00  0.00    +0.186 A 
ATOM     47  C   UNL     1      48.557  13.900  21.785  0.00  0.00    -0.131 A 
ATOM     58  C   UNL     1      49.672  14.724  21.747  0.00  0.00    +0.160 A 
ATOM     61  C   UNL     1      49.592  15.997  21.195  0.00  0.00    -0.026 A 
ATOM     62  C   UNL     1      45.995  16.146  20.197  0.00  0.00    +0.446 C 
ATOM     63  O   UNL     1      45.083  15.385  19.936  0.00  0.00    -0.422 OA
ATOM     64  C   UNL     1      46.844  19.773  19.788  0.00  0.00    -0.007 A 
ENDROOT
BRANCH   9  10
ATOM     10  C   UNL     1      49.003  17.783  18.691  0.00  0.00    +0.115 C 
ATOM     11  C   UNL     1      48.964  16.367  18.202  0.00  0.00    -0.009 A 
ATOM     12  C   UNL     1      50.092  15.544  18.222  0.00  0.00    -0.178 A 
ATOM     13  C   UNL     1      51.377  16.082  18.705  0.00  0.00    +0.441 C 
ATOM     14  C   UNL     1      51.523  17.551  18.783  0.00  0.00    -0.180 A 
ATOM     15  C   UNL     1      52.798  18.124  18.869  0.00  0.00    +0.170 A 
ATOM     18  C   UNL     1      52.929  19.496  18.934  0.00  0.00    -0.019 A 
ATOM     19  C   UNL     1      51.802  20.293  18.911  0.00  0.00    -0.033 A 
ATOM     20  C   UNL     1      51.946  21.792  18.974  0.00  0.00    +0.100 C 
ATOM     21  C   UNL     1      50.542  19.728  18.828  0.00  0.00    -0.006 A 
ATOM     22  O   UNL     1      52.287  15.342  19.029  0.00  0.00    -0.415 OA
ATOM     23  C   UNL     1      50.014  14.218  17.772  0.00  0.00    +0.185 A 
ATOM     26  C   UNL     1      48.811  13.727  17.294  0.00  0.00    -0.132 A 
ATOM     37  C   UNL     1      47.696  14.554  17.271  0.00  0.00    +0.160 A 
ATOM     40  C   UNL     1      47.781  15.865  17.725  0.00  0.00    -0.025 A 
ATOM     41  C   UNL     1      50.386  18.354  18.767  0.00  0.00    -0.016 A 
BRANCH  15  16
ATOM     16  O   UNL     1      53.900  17.335  18.893  0.00  0.00    -0.479 OA
ATOM     17  H   UNL     1      54.663  17.738  19.331  0.00  0.00    +0.394 HD
ENDBRANCH  15  16
BRANCH  23  24
ATOM     24  O   UNL     1      51.111  13.421  17.805  0.00  0.00    -0.475 OA
ATOM     25  H   UNL     1      51.941  13.898  17.945  0.00  0.00    +0.397 HD
ENDBRANCH  23  24
BRANCH  37  38
ATOM     38  O   UNL     1      46.516  14.078  16.799  0.00  0.00    -0.487 OA
ATOM     39  H   UNL     1      45.797  14.726  16.815  0.00  0.00    +0.395 HD
ENDBRANCH  37  38
BRANCH  26  27
ATOM     27  C   UNL     1      48.712  12.306  16.805  0.00  0.00    +0.131 C 
BRANCH  27  28
ATOM     28  C   UNL     1      49.635  12.114  15.630  0.00  0.00    -0.057 C 
ATOM     29  C   UNL     1      50.509  11.138  15.636  0.00  0.00    -0.116 C 
ATOM     30  C   UNL     1      50.669  10.277  16.863  0.00  0.00    +0.076 C 
BRANCH  29  31
ATOM     31  C   UNL     1      51.355  10.876  14.417  0.00  0.00    +0.058 C 
BRANCH  31  32
ATOM     32  C   UNL     1      50.474  10.916  13.167  0.00  0.00    +0.055 C 
BRANCH  32  33
ATOM     33  C   UNL     1      51.189  11.664  12.071  0.00  0.00    -0.062 C 
ATOM     34  C   UNL     1      50.685  12.779  11.603  0.00  0.00    -0.129 C 
ATOM     35  C   UNL     1      51.467  13.598  10.609  0.00  0.00    +0.071 C 
ATOM     36  C   UNL     1      49.326  13.241  12.058  0.00  0.00    +0.070 C 
ENDBRANCH  32  33
ENDBRANCH  31  32
ENDBRANCH  29  31
ENDBRANCH  27  28
ENDBRANCH  26  27
ENDBRANCH   9  10
BRANCH   4   5
ATOM      5  O   UNL     1      43.476  17.383  19.889  0.00  0.00    -0.483 OA
ATOM      6  H   UNL     1      43.662  16.439  19.798  0.00  0.00    +0.399 HD
ENDBRANCH   4   5
BRANCH  44  45
ATOM     45  O   UNL     1      46.255  13.561  21.299  0.00  0.00    -0.473 OA
ATOM     46  H   UNL     1      45.419  14.047  21.307  0.00  0.00    +0.396 HD
ENDBRANCH  44  45
BRANCH  58  59
ATOM     59  O   UNL     1      50.852  14.283  22.254  0.00  0.00    -0.487 OA
ATOM     60  H   UNL     1      51.616  14.473  21.694  0.00  0.00    +0.395 HD
ENDBRANCH  58  59
BRANCH  47  48
ATOM     48  C   UNL     1      48.652  12.520  22.382  0.00  0.00    +0.130 C 
BRANCH  48  49
ATOM     49  C   UNL     1      49.962  11.890  21.984  0.00  0.00    -0.055 C 
ATOM     50  C   UNL     1      50.040  11.172  20.892  0.00  0.00    -0.117 C 
ATOM     51  C   UNL     1      48.812  10.950  20.048  0.00  0.00    +0.076 C 
BRANCH  50  52
ATOM     52  C   UNL     1      51.357  10.569  20.479  0.00  0.00    +0.059 C 
BRANCH  52  53
ATOM     53  C   UNL     1      52.444  11.646  20.513  0.00  0.00    +0.054 C 
BRANCH  53  54
ATOM     54  C   UNL     1      53.783  11.001  20.761  0.00  0.00    -0.063 C 
ATOM     55  C   UNL     1      54.885  11.643  20.463  0.00  0.00    -0.130 C 
ATOM     56  C   UNL     1      56.225  11.013  20.749  0.00  0.00    +0.071 C 
ATOM     57  C   UNL     1      54.815  13.012  19.835  0.00  0.00    +0.072 C 
ENDBRANCH  53  54
ENDBRANCH  52  53
ENDBRANCH  50  52
ENDBRANCH  48  49
ENDBRANCH  47  48
TORSDOF 17
ENDMDL
MODEL 8
REMARK VINA RESULT:      -3.8      2.418      6.815
REMARK  Name = ZINC95486184
REMARK  25 active torsions:
REMARK  status: ('A' for Active; 'I' for Inactive)
REMARK    1  A    between atoms: C1_1  and  C2_2
REMARK    2  A    between atoms: C4_4  and  O8_60
REMARK    3  A    between atoms: C8_8  and  C26_30
REMARK    4  A    between atoms: C11_12  and  O2_27
REMARK    5  A    between atoms: C12_13  and  C15_17
REMARK    6  A    between atoms: C13_14  and  O1_16
REMARK    7  A    between atoms: C15_17  and  C16_18
REMARK    8  A    between atoms: C17_19  and  C18_20
REMARK    9  A    between atoms: C17_19  and  C24_26
REMARK   10  A    between atoms: C18_20  and  C19_21
REMARK   11  A    between atoms: C19_21  and  C20_22
REMARK   12  A    between atoms: C21_23  and  C22_24
REMARK   13  A    between atoms: C21_23  and  C23_25
REMARK   14  A    between atoms: C29_34  and  O5_49
REMARK   15  A    between atoms: C30_35  and  C33_39
REMARK   16  A    between atoms: C31_36  and  O4_38
REMARK   17  A    between atoms: C33_39  and  C34_40
REMARK   18  A    between atoms: C35_41  and  C36_42
REMARK   19  A    between atoms: C35_41  and  C42_48
REMARK   20  A    between atoms: C36_42  and  C37_43
REMARK   21  A    between atoms: C37_43  and  C38_44
REMARK   22  A    between atoms: C39_45  and  C40_46
REMARK   23  A    between atoms: C39_45  and  C41_47
REMARK   24  A    between atoms: C47_55  and  C50_59
REMARK   25  A    between atoms: C49_57  and  O7_58
REMARK                            x       y       z     vdW  Elec       q    Type
REMARK                         _______ _______ _______ _____ _____    ______ ____
ROOT
ATOM      1  C   UNL     1      45.789  18.518  18.133  0.00  0.00    +0.099 C 
ATOM      2  C   UNL     1      47.059  17.711  18.218  0.00  0.00    -0.033 A 
ATOM      3  C   UNL     1      48.149  18.070  17.449  0.00  0.00    -0.017 A 
ATOM      4  C   UNL     1      49.317  17.323  17.523  0.00  0.00    +0.174 A 
ATOM      7  C   UNL     1      49.379  16.218  18.379  0.00  0.00    -0.180 A 
ATOM      8  C   UNL     1      48.279  15.866  19.160  0.00  0.00    -0.019 A 
ATOM      9  C   UNL     1      48.313  14.706  20.108  0.00  0.00    +0.115 C 
ATOM     42  C   UNL     1      49.414  13.728  19.828  0.00  0.00    -0.010 A 
ATOM     43  C   UNL     1      50.524  14.065  19.050  0.00  0.00    -0.177 A 
ATOM     44  C   UNL     1      51.543  13.128  18.822  0.00  0.00    +0.186 A 
ATOM     47  C   UNL     1      51.438  11.858  19.362  0.00  0.00    -0.131 A 
ATOM     58  C   UNL     1      50.328  11.529  20.125  0.00  0.00    +0.160 A 
ATOM     61  C   UNL     1      49.325  12.464  20.353  0.00  0.00    -0.026 A 
ATOM     62  C   UNL     1      50.616  15.411  18.455  0.00  0.00    +0.446 C 
ATOM     63  O   UNL     1      51.674  15.844  18.039  0.00  0.00    -0.422 OA
ATOM     64  C   UNL     1      47.123  16.623  19.069  0.00  0.00    -0.007 A 
ENDROOT
BRANCH   9  10
ATOM     10  C   UNL     1      48.491  15.244  21.530  0.00  0.00    +0.115 C 
ATOM     11  C   UNL     1      47.478  16.323  21.765  0.00  0.00    -0.009 A 
ATOM     12  C   UNL     1      47.815  17.678  21.724  0.00  0.00    -0.178 A 
ATOM     13  C   UNL     1      49.213  18.073  21.474  0.00  0.00    +0.441 C 
ATOM     14  C   UNL     1      50.262  17.049  21.662  0.00  0.00    -0.180 A 
ATOM     15  C   UNL     1      51.600  17.436  21.806  0.00  0.00    +0.170 A 
ATOM     18  C   UNL     1      52.574  16.476  21.988  0.00  0.00    -0.019 A 
ATOM     19  C   UNL     1      52.222  15.142  22.029  0.00  0.00    -0.033 A 
ATOM     20  C   UNL     1      53.286  14.095  22.235  0.00  0.00    +0.100 C 
ATOM     21  C   UNL     1      50.901  14.758  21.883  0.00  0.00    -0.006 A 
ATOM     22  O   UNL     1      49.495  19.204  21.126  0.00  0.00    -0.415 OA
ATOM     23  C   UNL     1      46.837  18.661  21.932  0.00  0.00    +0.185 A 
ATOM     26  C   UNL     1      45.530  18.282  22.193  0.00  0.00    -0.132 A 
ATOM     37  C   UNL     1      45.206  16.934  22.240  0.00  0.00    +0.160 A 
ATOM     40  C   UNL     1      46.180  15.966  22.026  0.00  0.00    -0.025 A 
ATOM     41  C   UNL     1      49.908  15.703  21.695  0.00  0.00    -0.016 A 
BRANCH  15  16
ATOM     16  O   UNL     1      51.939  18.748  21.764  0.00  0.00    -0.479 OA
ATOM     17  H   UNL     1      52.889  18.912  21.847  0.00  0.00    +0.394 HD
ENDBRANCH  15  16
BRANCH  23  24
ATOM     24  O   UNL     1      47.168  19.975  21.879  0.00  0.00    -0.475 OA
ATOM     25  H   UNL     1      47.478  20.337  22.721  0.00  0.00    +0.397 HD
ENDBRANCH  23  24
BRANCH  37  38
ATOM     38  O   UNL     1      43.928  16.558  22.500  0.00  0.00    -0.487 OA
ATOM     39  H   UNL     1      43.307  17.297  22.567  0.00  0.00    +0.395 HD
ENDBRANCH  37  38
BRANCH  26  27
ATOM     27  C   UNL     1      44.469  19.326  22.422  0.00  0.00    +0.131 C 
BRANCH  27  28
ATOM     28  C   UNL     1      43.819  19.679  21.110  0.00  0.00    -0.057 C 
ATOM     29  C   UNL     1      44.003  20.865  20.585  0.00  0.00    -0.116 C 
ATOM     30  C   UNL     1      44.774  21.914  21.344  0.00  0.00    +0.076 C 
BRANCH  29  31
ATOM     31  C   UNL     1      43.447  21.180  19.221  0.00  0.00    +0.058 C 
BRANCH  31  32
ATOM     32  C   UNL     1      42.396  22.286  19.341  0.00  0.00    +0.055 C 
BRANCH  32  33
ATOM     33  C   UNL     1      41.222  21.964  18.452  0.00  0.00    -0.062 C 
ATOM     34  C   UNL     1      40.303  21.123  18.860  0.00  0.00    -0.129 C 
ATOM     35  C   UNL     1      39.061  20.908  18.035  0.00  0.00    +0.071 C 
ATOM     36  C   UNL     1      40.489  20.373  20.154  0.00  0.00    +0.070 C 
ENDBRANCH  32  33
ENDBRANCH  31  32
ENDBRANCH  29  31
ENDBRANCH  27  28
ENDBRANCH  26  27
ENDBRANCH   9  10
BRANCH   4   5
ATOM      5  O   UNL     1      50.392  17.664  16.768  0.00  0.00    -0.483 OA
ATOM      6  H   UNL     1      50.933  16.913  16.492  0.00  0.00    +0.399 HD
ENDBRANCH   4   5
BRANCH  44  45
ATOM     45  O   UNL     1      52.625  13.466  18.075  0.00  0.00    -0.473 OA
ATOM     46  H   UNL     1      53.361  13.824  18.590  0.00  0.00    +0.396 HD
ENDBRANCH  44  45
BRANCH  58  59
ATOM     59  O   UNL     1      50.219  10.283  20.653  0.00  0.00    -0.487 OA
ATOM     60  H   UNL     1      50.278  10.258  21.617  0.00  0.00    +0.395 HD
ENDBRANCH  58  59
BRANCH  47  48
ATOM     48  C   UNL     1      52.523  10.840  19.122  0.00  0.00    +0.130 C 
BRANCH  48  49
ATOM     49  C   UNL     1      53.866  11.525  19.129  0.00  0.00    -0.055 C 
ATOM     50  C   UNL     1      54.736  11.252  20.069  0.00  0.00    -0.117 C 
ATOM     51  C   UNL     1      54.384  10.277  21.161  0.00  0.00    +0.076 C 
BRANCH  50  52
ATOM     52  C   UNL     1      56.090  11.914  20.057  0.00  0.00    +0.059 C 
BRANCH  52  53
ATOM     53  C   UNL     1      56.279  12.711  21.350  0.00  0.00    +0.054 C 
BRANCH  53  54
ATOM     54  C   UNL     1      56.803  14.085  21.021  0.00  0.00    -0.063 C 
ATOM     55  C   UNL     1      58.006  14.436  21.403  0.00  0.00    -0.130 C 
ATOM     56  C   UNL     1      58.546  15.795  21.038  0.00  0.00    +0.071 C 
ATOM     57  C   UNL     1      58.850  13.481  22.207  0.00  0.00    +0.072 C 
ENDBRANCH  53  54
ENDBRANCH  52  53
ENDBRANCH  50  52
ENDBRANCH  48  49
ENDBRANCH  47  48
TORSDOF 17
ENDMDL
MODEL 9
REMARK VINA RESULT:      -2.9      1.871      8.295
REMARK  Name = ZINC95486184
REMARK  25 active torsions:
REMARK  status: ('A' for Active; 'I' for Inactive)
REMARK    1  A    between atoms: C1_1  and  C2_2
REMARK    2  A    between atoms: C4_4  and  O8_60
REMARK    3  A    between atoms: C8_8  and  C26_30
REMARK    4  A    between atoms: C11_12  and  O2_27
REMARK    5  A    between atoms: C12_13  and  C15_17
REMARK    6  A    between atoms: C13_14  and  O1_16
REMARK    7  A    between atoms: C15_17  and  C16_18
REMARK    8  A    between atoms: C17_19  and  C18_20
REMARK    9  A    between atoms: C17_19  and  C24_26
REMARK   10  A    between atoms: C18_20  and  C19_21
REMARK   11  A    between atoms: C19_21  and  C20_22
REMARK   12  A    between atoms: C21_23  and  C22_24
REMARK   13  A    between atoms: C21_23  and  C23_25
REMARK   14  A    between atoms: C29_34  and  O5_49
REMARK   15  A    between atoms: C30_35  and  C33_39
REMARK   16  A    between atoms: C31_36  and  O4_38
REMARK   17  A    between atoms: C33_39  and  C34_40
REMARK   18  A    between atoms: C35_41  and  C36_42
REMARK   19  A    between atoms: C35_41  and  C42_48
REMARK   20  A    between atoms: C36_42  and  C37_43
REMARK   21  A    between atoms: C37_43  and  C38_44
REMARK   22  A    between atoms: C39_45  and  C40_46
REMARK   23  A    between atoms: C39_45  and  C41_47
REMARK   24  A    between atoms: C47_55  and  C50_59
REMARK   25  A    between atoms: C49_57  and  O7_58
REMARK                            x       y       z     vdW  Elec       q    Type
REMARK                         _______ _______ _______ _____ _____    ______ ____
ROOT
ATOM      1  C   UNL     1      43.801  21.930  20.833  0.00  0.00    +0.099 C 
ATOM      2  C   UNL     1      44.772  20.977  20.185  0.00  0.00    -0.033 A 
ATOM      3  C   UNL     1      45.718  21.460  19.303  0.00  0.00    -0.017 A 
ATOM      4  C   UNL     1      46.608  20.583  18.701  0.00  0.00    +0.174 A 
ATOM      7  C   UNL     1      46.541  19.216  18.998  0.00  0.00    -0.180 A 
ATOM      8  C   UNL     1      45.588  18.734  19.896  0.00  0.00    -0.019 A 
ATOM      9  C   UNL     1      45.500  17.284  20.261  0.00  0.00    +0.115 C 
ATOM     42  C   UNL     1      46.183  16.373  19.287  0.00  0.00    -0.010 A 
ATOM     43  C   UNL     1      47.139  16.838  18.381  0.00  0.00    -0.177 A 
ATOM     44  C   UNL     1      47.770  15.953  17.494  0.00  0.00    +0.186 A 
ATOM     47  C   UNL     1      47.428  14.611  17.509  0.00  0.00    -0.131 A 
ATOM     58  C   UNL     1      46.470  14.159  18.404  0.00  0.00    +0.160 A 
ATOM     61  C   UNL     1      45.855  15.041  19.285  0.00  0.00    -0.026 A 
ATOM     62  C   UNL     1      47.478  18.273  18.353  0.00  0.00    +0.446 C 
ATOM     63  O   UNL     1      48.495  18.668  17.815  0.00  0.00    -0.422 OA
ATOM     64  C   UNL     1      44.709  19.628  20.483  0.00  0.00    -0.007 A 
ENDROOT
BRANCH   9  10
ATOM     10  C   UNL     1      46.137  17.087  21.638  0.00  0.00    +0.115 C 
ATOM     11  C   UNL     1      47.290  18.035  21.773  0.00  0.00    -0.009 A 
ATOM     12  C   UNL     1      48.615  17.616  21.630  0.00  0.00    -0.178 A 
ATOM     13  C   UNL     1      48.905  16.193  21.371  0.00  0.00    +0.441 C 
ATOM     14  C   UNL     1      47.837  15.211  21.653  0.00  0.00    -0.180 A 
ATOM     15  C   UNL     1      48.153  13.853  21.786  0.00  0.00    +0.170 A 
ATOM     18  C   UNL     1      47.154  12.941  22.057  0.00  0.00    -0.019 A 
ATOM     19  C   UNL     1      45.851  13.375  22.198  0.00  0.00    -0.033 A 
ATOM     20  C   UNL     1      44.761  12.379  22.502  0.00  0.00    +0.100 C 
ATOM     21  C   UNL     1      45.537  14.715  22.064  0.00  0.00    -0.006 A 
ATOM     22  O   UNL     1      49.986  15.840  20.938  0.00  0.00    -0.415 OA
ATOM     23  C   UNL     1      49.669  18.533  21.746  0.00  0.00    +0.185 A 
ATOM     26  C   UNL     1      49.392  19.863  22.016  0.00  0.00    -0.132 A 
ATOM     37  C   UNL     1      48.073  20.270  22.165  0.00  0.00    +0.160 A 
ATOM     40  C   UNL     1      47.035  19.355  22.042  0.00  0.00    -0.025 A 
ATOM     41  C   UNL     1      46.522  15.647  21.787  0.00  0.00    -0.016 A 
BRANCH  15  16
ATOM     16  O   UNL     1      49.434  13.434  21.646  0.00  0.00    -0.479 OA
ATOM     17  H   UNL     1      49.581  12.866  20.876  0.00  0.00    +0.394 HD
ENDBRANCH  15  16
BRANCH  23  24
ATOM     24  O   UNL     1      50.952  18.122  21.594  0.00  0.00    -0.475 OA
ATOM     25  H   UNL     1      51.318  18.289  20.715  0.00  0.00    +0.397 HD
ENDBRANCH  23  24
BRANCH  37  38
ATOM     38  O   UNL     1      47.797  21.571  22.435  0.00  0.00    -0.487 OA
ATOM     39  H   UNL     1      48.571  22.150  22.411  0.00  0.00    +0.395 HD
ENDBRANCH  37  38
BRANCH  26  27
ATOM     27  C   UNL     1      50.513  20.860  22.147  0.00  0.00    +0.131 C 
BRANCH  27  28
ATOM     28  C   UNL     1      51.600  20.528  21.158  0.00  0.00    -0.057 C 
ATOM     29  C   UNL     1      51.477  20.887  19.904  0.00  0.00    -0.116 C 
ATOM     30  C   UNL     1      50.202  21.532  19.427  0.00  0.00    +0.076 C 
BRANCH  29  31
ATOM     31  C   UNL     1      52.611  20.655  18.940  0.00  0.00    +0.058 C 
BRANCH  31  32
ATOM     32  C   UNL     1      52.094  19.895  17.717  0.00  0.00    +0.055 C 
BRANCH  32  33
ATOM     33  C   UNL     1      51.923  18.438  18.065  0.00  0.00    -0.062 C 
ATOM     34  C   UNL     1      51.914  17.536  17.116  0.00  0.00    -0.129 C 
ATOM     35  C   UNL     1      51.884  16.071  17.471  0.00  0.00    +0.071 C 
ATOM     36  C   UNL     1      51.934  17.961  15.671  0.00  0.00    +0.070 C 
ENDBRANCH  32  33
ENDBRANCH  31  32
ENDBRANCH  29  31
ENDBRANCH  27  28
ENDBRANCH  26  27
ENDBRANCH   9  10
BRANCH   4   5
ATOM      5  O   UNL     1      47.539  21.047  17.830  0.00  0.00    -0.483 OA
ATOM      6  H   UNL     1      47.305  21.887  17.415  0.00  0.00    +0.399 HD
ENDBRANCH   4   5
BRANCH  44  45
ATOM     45  O   UNL     1      48.708  16.410  16.627  0.00  0.00    -0.473 OA
ATOM     46  H   UNL     1      49.451  15.805  16.498  0.00  0.00    +0.396 HD
ENDBRANCH  44  45
BRANCH  58  59
ATOM     59  O   UNL     1      46.129  12.845  18.418  0.00  0.00    -0.487 OA
ATOM     60  H   UNL     1      45.337  12.639  17.904  0.00  0.00    +0.395 HD
ENDBRANCH  58  59
BRANCH  47  48
ATOM     48  C   UNL     1      48.094  13.649  16.559  0.00  0.00    +0.130 C 
BRANCH  48  49
ATOM     49  C   UNL     1      49.507  13.389  17.015  0.00  0.00    -0.055 C 
ATOM     50  C   UNL     1      50.359  12.805  16.210  0.00  0.00    -0.117 C 
ATOM     51  C   UNL     1      49.917  12.362  14.839  0.00  0.00    +0.076 C 
BRANCH  50  52
ATOM     52  C   UNL     1      51.780  12.575  16.654  0.00  0.00    +0.059 C 
BRANCH  52  53
ATOM     53  C   UNL     1      51.781  11.861  18.008  0.00  0.00    +0.054 C 
BRANCH  53  54
ATOM     54  C   UNL     1      53.200  11.558  18.415  0.00  0.00    -0.063 C 
ATOM     55  C   UNL     1      53.816  12.333  19.272  0.00  0.00    -0.130 C 
ATOM     56  C   UNL     1      55.221  12.007  19.709  0.00  0.00    +0.071 C 
ATOM     57  C   UNL     1      53.120  13.552  19.822  0.00  0.00    +0.072 C 
ENDBRANCH  53  54
ENDBRANCH  52  53
ENDBRANCH  50  52
ENDBRANCH  48  49
ENDBRANCH  47  48
TORSDOF 17
ENDMDL
