MODEL 1
REMARK VINA RESULT:      -5.5      0.000      0.000
REMARK  Name = ZINC95486036
REMARK  6 active torsions:
REMARK  status: ('A' for Active; 'I' for Inactive)
REMARK    1  A    between atoms: C2_2  and  C3_3
REMARK    2  A    between atoms: C5_5  and  O5_24
REMARK    3  A    between atoms: O5_24  and  C16_25
REMARK    4  A    between atoms: C16_25  and  C17_27
REMARK    5  A    between atoms: C17_27  and  C19_29
REMARK    6  A    between atoms: C19_29  and  O7_30
REMARK                            x       y       z     vdW  Elec       q    Type
REMARK                         _______ _______ _______ _____ _____    ______ ____
ROOT
ATOM      3  C   UNL     1      45.531  17.374  21.239  0.00  0.00    -0.056 C 
ATOM      4  C   UNL     1      45.859  18.865  21.346  0.00  0.00    +0.060 C 
ATOM      5  C   UNL     1      45.304  19.558  20.100  0.00  0.00    +0.208 C 
ATOM     14  C   UNL     1      45.874  18.983  18.828  0.00  0.00    +0.040 C 
ATOM     15  C   UNL     1      45.810  17.443  18.751  0.00  0.00    +0.250 C 
ATOM     16  O   UNL     1      46.828  17.183  17.743  0.00  0.00    -0.334 OA
ATOM     17  C   UNL     1      47.866  18.014  18.005  0.00  0.00    +0.511 C 
ATOM     18  O   UNL     1      49.028  17.793  17.731  0.00  0.00    -0.439 OA
ATOM     19  C   UNL     1      47.366  19.214  18.689  0.00  0.00    -0.229 C 
ATOM     20  C   UNL     1      48.071  20.271  19.083  0.00  0.00    +0.205 C 
ATOM     21  C   UNL     1      45.962  16.632  22.505  0.00  0.00    +0.275 C 
ATOM     22  O   UNL     1      45.655  15.248  22.389  0.00  0.00    -0.351 OA
ATOM     23  C   UNL     1      46.173  14.611  21.309  0.00  0.00    +0.527 C 
ATOM     24  O   UNL     1      46.705  13.521  21.405  0.00  0.00    -0.441 OA
ATOM     25  C   UNL     1      46.058  15.312  20.005  0.00  0.00    -0.205 C 
ATOM     26  C   UNL     1      45.767  14.666  18.878  0.00  0.00    +0.170 C 
ATOM     27  C   UNL     1      46.294  16.809  20.037  0.00  0.00    +0.035 C 
ENDROOT
BRANCH   3   2
ATOM      1  C   UNL     1      43.245  17.116  22.059  0.00  0.00    +0.026 C 
ATOM      2  C   UNL     1      44.049  17.195  21.028  0.00  0.00    -0.018 C 
ENDBRANCH   3   2
BRANCH   5   6
ATOM      6  O   UNL     1      43.883  19.404  20.079  0.00  0.00    -0.332 OA
BRANCH   6   7
ATOM      7  C   UNL     1      43.158  20.477  19.704  0.00  0.00    +0.508 C 
ATOM     13  O   UNL     1      43.700  21.554  19.551  0.00  0.00    -0.500 OA
BRANCH   7   8
ATOM      8  C   UNL     1      41.712  20.344  19.480  0.00  0.00    -0.182 C 
ATOM     12  C   UNL     1      40.985  19.557  20.271  0.00  0.00    +0.203 C 
BRANCH   8   9
ATOM      9  C   UNL     1      41.051  21.100  18.356  0.00  0.00    +0.249 C 
BRANCH   9  10
ATOM     10  O   UNL     1      41.376  22.487  18.461  0.00  0.00    -0.572 OA
ATOM     11  H   UNL     1      40.605  23.067  18.536  0.00  0.00    +0.390 HD
ENDBRANCH   9  10
ENDBRANCH   8   9
ENDBRANCH   7   8
ENDBRANCH   6   7
ENDBRANCH   5   6
TORSDOF 6
ENDMDL
MODEL 2
REMARK VINA RESULT:      -5.4      2.658      6.593
REMARK  Name = ZINC95486036
REMARK  6 active torsions:
REMARK  status: ('A' for Active; 'I' for Inactive)
REMARK    1  A    between atoms: C2_2  and  C3_3
REMARK    2  A    between atoms: C5_5  and  O5_24
REMARK    3  A    between atoms: O5_24  and  C16_25
REMARK    4  A    between atoms: C16_25  and  C17_27
REMARK    5  A    between atoms: C17_27  and  C19_29
REMARK    6  A    between atoms: C19_29  and  O7_30
REMARK                            x       y       z     vdW  Elec       q    Type
REMARK                         _______ _______ _______ _____ _____    ______ ____
ROOT
ATOM      3  C   UNL     1      48.253  18.717  19.791  0.00  0.00    -0.056 C 
ATOM      4  C   UNL     1      49.328  17.627  19.795  0.00  0.00    +0.060 C 
ATOM      5  C   UNL     1      49.490  17.125  18.359  0.00  0.00    +0.208 C 
ATOM     14  C   UNL     1      48.199  16.589  17.794  0.00  0.00    +0.040 C 
ATOM     15  C   UNL     1      46.994  17.535  17.978  0.00  0.00    +0.250 C 
ATOM     16  O   UNL     1      45.891  16.595  17.826  0.00  0.00    -0.334 OA
ATOM     17  C   UNL     1      46.239  15.466  18.488  0.00  0.00    +0.511 C 
ATOM     18  O   UNL     1      45.463  14.680  18.993  0.00  0.00    -0.439 OA
ATOM     19  C   UNL     1      47.704  15.352  18.516  0.00  0.00    -0.229 C 
ATOM     20  C   UNL     1      48.427  14.368  19.046  0.00  0.00    +0.205 C 
ATOM     21  C   UNL     1      48.112  19.344  21.179  0.00  0.00    +0.275 C 
ATOM     22  O   UNL     1      47.108  20.351  21.161  0.00  0.00    -0.351 OA
ATOM     23  C   UNL     1      45.881  19.962  20.729  0.00  0.00    +0.527 C 
ATOM     24  O   UNL     1      44.866  20.283  21.315  0.00  0.00    -0.441 OA
ATOM     25  C   UNL     1      45.844  19.125  19.504  0.00  0.00    -0.205 C 
ATOM     26  C   UNL     1      44.918  19.290  18.562  0.00  0.00    +0.170 C 
ATOM     27  C   UNL     1      46.924  18.067  19.393  0.00  0.00    +0.035 C 
ENDROOT
BRANCH   3   2
ATOM      1  C   UNL     1      49.343  20.809  19.158  0.00  0.00    +0.026 C 
ATOM      2  C   UNL     1      48.615  19.783  18.790  0.00  0.00    -0.018 C 
ENDBRANCH   3   2
BRANCH   5   6
ATOM      6  O   UNL     1      49.939  18.205  17.539  0.00  0.00    -0.332 OA
BRANCH   6   7
ATOM      7  C   UNL     1      51.182  18.108  17.025  0.00  0.00    +0.508 C 
ATOM     13  O   UNL     1      51.572  17.047  16.576  0.00  0.00    -0.500 OA
BRANCH   7   8
ATOM      8  C   UNL     1      52.065  19.282  17.008  0.00  0.00    -0.182 C 
ATOM     12  C   UNL     1      52.689  19.662  18.120  0.00  0.00    +0.203 C 
BRANCH   8   9
ATOM      9  C   UNL     1      52.265  20.055  15.730  0.00  0.00    +0.249 C 
BRANCH   9  10
ATOM     10  O   UNL     1      52.105  21.451  15.988  0.00  0.00    -0.572 OA
ATOM     11  H   UNL     1      51.413  21.872  15.460  0.00  0.00    +0.390 HD
ENDBRANCH   9  10
ENDBRANCH   8   9
ENDBRANCH   7   8
ENDBRANCH   6   7
ENDBRANCH   5   6
TORSDOF 6
ENDMDL
MODEL 3
REMARK VINA RESULT:      -5.3      2.087      6.355
REMARK  Name = ZINC95486036
REMARK  6 active torsions:
REMARK  status: ('A' for Active; 'I' for Inactive)
REMARK    1  A    between atoms: C2_2  and  C3_3
REMARK    2  A    between atoms: C5_5  and  O5_24
REMARK    3  A    between atoms: O5_24  and  C16_25
REMARK    4  A    between atoms: C16_25  and  C17_27
REMARK    5  A    between atoms: C17_27  and  C19_29
REMARK    6  A    between atoms: C19_29  and  O7_30
REMARK                            x       y       z     vdW  Elec       q    Type
REMARK                         _______ _______ _______ _____ _____    ______ ____
ROOT
ATOM      3  C   UNL     1      46.356  19.850  20.762  0.00  0.00    -0.056 C 
ATOM      4  C   UNL     1      46.450  18.424  21.313  0.00  0.00    +0.060 C 
ATOM      5  C   UNL     1      45.718  17.496  20.342  0.00  0.00    +0.208 C 
ATOM     14  C   UNL     1      44.276  17.894  20.155  0.00  0.00    +0.040 C 
ATOM     15  C   UNL     1      44.073  19.391  19.840  0.00  0.00    +0.250 C 
ATOM     16  O   UNL     1      42.675  19.555  20.211  0.00  0.00    -0.334 OA
ATOM     17  C   UNL     1      42.485  18.858  21.357  0.00  0.00    +0.511 C 
ATOM     18  O   UNL     1      41.656  19.116  22.207  0.00  0.00    -0.439 OA
ATOM     19  C   UNL     1      43.452  17.754  21.420  0.00  0.00    -0.229 C 
ATOM     20  C   UNL     1      43.563  16.831  22.372  0.00  0.00    +0.205 C 
ATOM     21  C   UNL     1      47.161  20.820  21.627  0.00  0.00    +0.275 C 
ATOM     22  O   UNL     1      47.060  22.139  21.105  0.00  0.00    -0.351 OA
ATOM     23  C   UNL     1      45.802  22.626  20.953  0.00  0.00    +0.527 C 
ATOM     24  O   UNL     1      45.506  23.752  21.303  0.00  0.00    -0.441 OA
ATOM     25  C   UNL     1      44.806  21.713  20.339  0.00  0.00    -0.205 C 
ATOM     26  C   UNL     1      43.902  22.140  19.460  0.00  0.00    +0.170 C 
ATOM     27  C   UNL     1      44.881  20.263  20.775  0.00  0.00    +0.035 C 
ENDROOT
BRANCH   3   2
ATOM      1  C   UNL     1      48.111  20.253  19.112  0.00  0.00    +0.026 C 
ATOM      2  C   UNL     1      46.877  19.881  19.348  0.00  0.00    -0.018 C 
ENDBRANCH   3   2
BRANCH   5   6
ATOM      6  O   UNL     1      46.377  17.539  19.075  0.00  0.00    -0.332 OA
BRANCH   6   7
ATOM      7  C   UNL     1      46.510  16.371  18.415  0.00  0.00    +0.508 C 
ATOM     13  O   UNL     1      45.753  15.450  18.652  0.00  0.00    -0.500 OA
BRANCH   7   8
ATOM      8  C   UNL     1      47.570  16.211  17.410  0.00  0.00    -0.182 C 
ATOM     12  C   UNL     1      48.342  17.246  17.087  0.00  0.00    +0.203 C 
BRANCH   8   9
ATOM      9  C   UNL     1      47.783  14.875  16.747  0.00  0.00    +0.249 C 
BRANCH   9  10
ATOM     10  O   UNL     1      46.759  14.657  15.775  0.00  0.00    -0.572 OA
ATOM     11  H   UNL     1      46.233  13.860  15.929  0.00  0.00    +0.390 HD
ENDBRANCH   9  10
ENDBRANCH   8   9
ENDBRANCH   7   8
ENDBRANCH   6   7
ENDBRANCH   5   6
TORSDOF 6
ENDMDL
MODEL 4
REMARK VINA RESULT:      -5.2      2.485      6.731
REMARK  Name = ZINC95486036
REMARK  6 active torsions:
REMARK  status: ('A' for Active; 'I' for Inactive)
REMARK    1  A    between atoms: C2_2  and  C3_3
REMARK    2  A    between atoms: C5_5  and  O5_24
REMARK    3  A    between atoms: O5_24  and  C16_25
REMARK    4  A    between atoms: C16_25  and  C17_27
REMARK    5  A    between atoms: C17_27  and  C19_29
REMARK    6  A    between atoms: C19_29  and  O7_30
REMARK                            x       y       z     vdW  Elec       q    Type
REMARK                         _______ _______ _______ _____ _____    ______ ____
ROOT
ATOM      3  C   UNL     1      47.693  19.807  20.247  0.00  0.00    -0.056 C 
ATOM      4  C   UNL     1      47.870  18.288  20.321  0.00  0.00    +0.060 C 
ATOM      5  C   UNL     1      47.404  17.696  18.989  0.00  0.00    +0.208 C 
ATOM     14  C   UNL     1      45.969  18.045  18.684  0.00  0.00    +0.040 C 
ATOM     15  C   UNL     1      45.642  19.545  18.834  0.00  0.00    +0.250 C 
ATOM     16  O   UNL     1      44.194  19.489  18.982  0.00  0.00    -0.334 OA
ATOM     17  C   UNL     1      43.919  18.438  19.791  0.00  0.00    +0.511 C 
ATOM     18  O   UNL     1      42.949  18.344  20.516  0.00  0.00    -0.439 OA
ATOM     19  C   UNL     1      44.989  17.438  19.669  0.00  0.00    -0.229 C 
ATOM     20  C   UNL     1      45.065  16.258  20.279  0.00  0.00    +0.205 C 
ATOM     21  C   UNL     1      48.241  20.478  21.506  0.00  0.00    +0.275 C 
ATOM     22  O   UNL     1      48.065  21.887  21.426  0.00  0.00    -0.351 OA
ATOM     23  C   UNL     1      46.796  22.319  21.216  0.00  0.00    +0.527 C 
ATOM     24  O   UNL     1      46.322  23.242  21.849  0.00  0.00    -0.441 OA
ATOM     25  C   UNL     1      46.016  21.605  20.173  0.00  0.00    -0.205 C 
ATOM     26  C   UNL     1      45.208  22.246  19.331  0.00  0.00    +0.170 C 
ATOM     27  C   UNL     1      46.194  20.100  20.128  0.00  0.00    +0.035 C 
ENDROOT
BRANCH   3   2
ATOM      1  C   UNL     1      49.635  20.796  19.145  0.00  0.00    +0.026 C 
ATOM      2  C   UNL     1      48.411  20.342  19.035  0.00  0.00    -0.018 C 
ENDBRANCH   3   2
BRANCH   5   6
ATOM      6  O   UNL     1      48.234  18.202  17.942  0.00  0.00    -0.332 OA
BRANCH   6   7
ATOM      7  C   UNL     1      49.160  17.362  17.436  0.00  0.00    +0.508 C 
ATOM     13  O   UNL     1      48.823  16.282  16.992  0.00  0.00    -0.500 OA
BRANCH   7   8
ATOM      8  C   UNL     1      50.576  17.752  17.423  0.00  0.00    -0.182 C 
ATOM     12  C   UNL     1      51.364  17.435  18.448  0.00  0.00    +0.203 C 
BRANCH   8   9
ATOM      9  C   UNL     1      51.138  18.510  16.247  0.00  0.00    +0.249 C 
BRANCH   9  10
ATOM     10  O   UNL     1      52.186  17.747  15.646  0.00  0.00    -0.572 OA
ATOM     11  H   UNL     1      51.889  17.160  14.937  0.00  0.00    +0.390 HD
ENDBRANCH   9  10
ENDBRANCH   8   9
ENDBRANCH   7   8
ENDBRANCH   6   7
ENDBRANCH   5   6
TORSDOF 6
ENDMDL
MODEL 5
REMARK VINA RESULT:      -5.2      2.977      4.944
REMARK  Name = ZINC95486036
REMARK  6 active torsions:
REMARK  status: ('A' for Active; 'I' for Inactive)
REMARK    1  A    between atoms: C2_2  and  C3_3
REMARK    2  A    between atoms: C5_5  and  O5_24
REMARK    3  A    between atoms: O5_24  and  C16_25
REMARK    4  A    between atoms: C16_25  and  C17_27
REMARK    5  A    between atoms: C17_27  and  C19_29
REMARK    6  A    between atoms: C19_29  and  O7_30
REMARK                            x       y       z     vdW  Elec       q    Type
REMARK                         _______ _______ _______ _____ _____    ______ ____
ROOT
ATOM      3  C   UNL     1      49.143  17.835  18.620  0.00  0.00    -0.056 C 
ATOM      4  C   UNL     1      48.567  18.363  19.937  0.00  0.00    +0.060 C 
ATOM      5  C   UNL     1      48.118  19.807  19.707  0.00  0.00    +0.208 C 
ATOM     14  C   UNL     1      49.250  20.686  19.238  0.00  0.00    +0.040 C 
ATOM     15  C   UNL     1      50.051  20.100  18.057  0.00  0.00    +0.250 C 
ATOM     16  O   UNL     1      51.289  20.858  18.174  0.00  0.00    -0.334 OA
ATOM     17  C   UNL     1      51.586  20.933  19.494  0.00  0.00    +0.511 C 
ATOM     18  O   UNL     1      52.703  21.038  19.958  0.00  0.00    -0.439 OA
ATOM     19  C   UNL     1      50.344  20.848  20.275  0.00  0.00    -0.229 C 
ATOM     20  C   UNL     1      50.217  20.915  21.597  0.00  0.00    +0.205 C 
ATOM     21  C   UNL     1      49.514  16.358  18.745  0.00  0.00    +0.275 C 
ATOM     22  O   UNL     1      50.052  15.883  17.516  0.00  0.00    -0.351 OA
ATOM     23  C   UNL     1      51.120  16.565  17.030  0.00  0.00    +0.527 C 
ATOM     24  O   UNL     1      52.100  15.991  16.595  0.00  0.00    -0.441 OA
ATOM     25  C   UNL     1      51.031  18.047  17.057  0.00  0.00    -0.205 C 
ATOM     26  C   UNL     1      51.478  18.801  16.056  0.00  0.00    +0.170 C 
ATOM     27  C   UNL     1      50.401  18.648  18.298  0.00  0.00    +0.035 C 
ENDROOT
BRANCH   3   2
ATOM      1  C   UNL     1      47.257  17.066  17.273  0.00  0.00    +0.026 C 
ATOM      2  C   UNL     1      48.130  18.011  17.518  0.00  0.00    -0.018 C 
ENDBRANCH   3   2
BRANCH   5   6
ATOM      6  O   UNL     1      47.085  19.819  18.721  0.00  0.00    -0.332 OA
BRANCH   6   7
ATOM      7  C   UNL     1      45.921  20.410  19.061  0.00  0.00    +0.508 C 
ATOM     13  O   UNL     1      45.680  21.539  18.681  0.00  0.00    -0.500 OA
BRANCH   7   8
ATOM      8  C   UNL     1      44.946  19.690  19.891  0.00  0.00    -0.182 C 
ATOM     12  C   UNL     1      44.640  18.425  19.613  0.00  0.00    +0.203 C 
BRANCH   8   9
ATOM      9  C   UNL     1      44.294  20.383  21.059  0.00  0.00    +0.249 C 
BRANCH   9  10
ATOM     10  O   UNL     1      43.456  21.437  20.580  0.00  0.00    -0.572 OA
ATOM     11  H   UNL     1      42.648  21.129  20.146  0.00  0.00    +0.390 HD
ENDBRANCH   9  10
ENDBRANCH   8   9
ENDBRANCH   7   8
ENDBRANCH   6   7
ENDBRANCH   5   6
TORSDOF 6
ENDMDL
MODEL 6
REMARK VINA RESULT:      -5.0      2.547      6.438
REMARK  Name = ZINC95486036
REMARK  6 active torsions:
REMARK  status: ('A' for Active; 'I' for Inactive)
REMARK    1  A    between atoms: C2_2  and  C3_3
REMARK    2  A    between atoms: C5_5  and  O5_24
REMARK    3  A    between atoms: O5_24  and  C16_25
REMARK    4  A    between atoms: C16_25  and  C17_27
REMARK    5  A    between atoms: C17_27  and  C19_29
REMARK    6  A    between atoms: C19_29  and  O7_30
REMARK                            x       y       z     vdW  Elec       q    Type
REMARK                         _______ _______ _______ _____ _____    ______ ____
ROOT
ATOM      3  C   UNL     1      47.763  16.953  19.417  0.00  0.00    -0.056 C 
ATOM      4  C   UNL     1      47.539  15.651  20.191  0.00  0.00    +0.060 C 
ATOM      5  C   UNL     1      46.229  15.033  19.700  0.00  0.00    +0.208 C 
ATOM     14  C   UNL     1      45.057  15.964  19.885  0.00  0.00    +0.040 C 
ATOM     15  C   UNL     1      45.298  17.390  19.350  0.00  0.00    +0.250 C 
ATOM     16  O   UNL     1      44.282  18.128  20.090  0.00  0.00    -0.334 OA
ATOM     17  C   UNL     1      44.286  17.645  21.356  0.00  0.00    +0.511 C 
ATOM     18  O   UNL     1      43.968  18.271  22.347  0.00  0.00    -0.439 OA
ATOM     19  C   UNL     1      44.753  16.252  21.342  0.00  0.00    -0.229 C 
ATOM     20  C   UNL     1      44.866  15.429  22.381  0.00  0.00    +0.205 C 
ATOM     21  C   UNL     1      49.112  17.573  19.779  0.00  0.00    +0.275 C 
ATOM     22  O   UNL     1      49.304  18.784  19.057  0.00  0.00    -0.351 OA
ATOM     23  C   UNL     1      48.336  19.724  19.201  0.00  0.00    +0.527 C 
ATOM     24  O   UNL     1      48.605  20.895  19.388  0.00  0.00    -0.441 OA
ATOM     25  C   UNL     1      46.931  19.249  19.119  0.00  0.00    -0.205 C 
ATOM     26  C   UNL     1      45.985  19.944  18.492  0.00  0.00    +0.170 C 
ATOM     27  C   UNL     1      46.641  17.925  19.797  0.00  0.00    +0.035 C 
ENDROOT
BRANCH   3   2
ATOM      1  C   UNL     1      48.821  16.451  17.275  0.00  0.00    +0.026 C 
ATOM      2  C   UNL     1      47.714  16.677  17.937  0.00  0.00    -0.018 C 
ENDBRANCH   3   2
BRANCH   5   6
ATOM      6  O   UNL     1      46.356  14.722  18.311  0.00  0.00    -0.332 OA
BRANCH   6   7
ATOM      7  C   UNL     1      46.077  13.456  17.940  0.00  0.00    +0.508 C 
ATOM     13  O   UNL     1      45.007  12.959  18.235  0.00  0.00    -0.500 OA
BRANCH   7   8
ATOM      8  C   UNL     1      47.064  12.678  17.180  0.00  0.00    -0.182 C 
ATOM     12  C   UNL     1      47.445  11.479  17.615  0.00  0.00    +0.203 C 
BRANCH   8   9
ATOM      9  C   UNL     1      47.645  13.237  15.907  0.00  0.00    +0.249 C 
BRANCH   9  10
ATOM     10  O   UNL     1      46.799  14.278  15.415  0.00  0.00    -0.572 OA
ATOM     11  H   UNL     1      47.157  14.747  14.648  0.00  0.00    +0.390 HD
ENDBRANCH   9  10
ENDBRANCH   8   9
ENDBRANCH   7   8
ENDBRANCH   6   7
ENDBRANCH   5   6
TORSDOF 6
ENDMDL
MODEL 7
REMARK VINA RESULT:      -5.0      2.530      5.956
REMARK  Name = ZINC95486036
REMARK  6 active torsions:
REMARK  status: ('A' for Active; 'I' for Inactive)
REMARK    1  A    between atoms: C2_2  and  C3_3
REMARK    2  A    between atoms: C5_5  and  O5_24
REMARK    3  A    between atoms: O5_24  and  C16_25
REMARK    4  A    between atoms: C16_25  and  C17_27
REMARK    5  A    between atoms: C17_27  and  C19_29
REMARK    6  A    between atoms: C19_29  and  O7_30
REMARK                            x       y       z     vdW  Elec       q    Type
REMARK                         _______ _______ _______ _____ _____    ______ ____
ROOT
ATOM      3  C   UNL     1      47.255  15.898  17.563  0.00  0.00    -0.056 C 
ATOM      4  C   UNL     1      47.442  17.329  17.052  0.00  0.00    +0.060 C 
ATOM      5  C   UNL     1      48.022  18.163  18.197  0.00  0.00    +0.208 C 
ATOM     14  C   UNL     1      47.134  18.150  19.415  0.00  0.00    +0.040 C 
ATOM     15  C   UNL     1      46.688  16.740  19.852  0.00  0.00    +0.250 C 
ATOM     16  O   UNL     1      45.517  17.067  20.655  0.00  0.00    -0.334 OA
ATOM     17  C   UNL     1      44.846  18.042  19.996  0.00  0.00    +0.511 C 
ATOM     18  O   UNL     1      43.649  18.238  20.061  0.00  0.00    -0.439 OA
ATOM     19  C   UNL     1      45.791  18.814  19.178  0.00  0.00    -0.229 C 
ATOM     20  C   UNL     1      45.523  19.869  18.414  0.00  0.00    +0.205 C 
ATOM     21  C   UNL     1      46.779  14.979  16.438  0.00  0.00    +0.275 C 
ATOM     22  O   UNL     1      46.605  13.655  16.928  0.00  0.00    -0.351 OA
ATOM     23  C   UNL     1      45.772  13.516  17.990  0.00  0.00    +0.527 C 
ATOM     24  O   UNL     1      44.935  12.636  18.035  0.00  0.00    -0.441 OA
ATOM     25  C   UNL     1      45.934  14.496  19.094  0.00  0.00    -0.205 C 
ATOM     26  C   UNL     1      45.850  14.140  20.374  0.00  0.00    +0.170 C 
ATOM     27  C   UNL     1      46.200  15.928  18.673  0.00  0.00    +0.035 C 
ENDROOT
BRANCH   3   2
ATOM      1  C   UNL     1      49.420  14.792  17.329  0.00  0.00    +0.026 C 
ATOM      2  C   UNL     1      48.558  15.384  18.119  0.00  0.00    -0.018 C 
ENDBRANCH   3   2
BRANCH   5   6
ATOM      6  O   UNL     1      49.301  17.635  18.552  0.00  0.00    -0.332 OA
BRANCH   6   7
ATOM      7  C   UNL     1      50.309  18.519  18.694  0.00  0.00    +0.508 C 
ATOM     13  O   UNL     1      50.451  19.115  19.744  0.00  0.00    -0.500 OA
BRANCH   7   8
ATOM      8  C   UNL     1      51.236  18.762  17.581  0.00  0.00    -0.182 C 
ATOM     12  C   UNL     1      51.269  17.924  16.547  0.00  0.00    +0.203 C 
BRANCH   8   9
ATOM      9  C   UNL     1      52.148  19.961  17.608  0.00  0.00    +0.249 C 
BRANCH   9  10
ATOM     10  O   UNL     1      51.365  21.152  17.706  0.00  0.00    -0.572 OA
ATOM     11  H   UNL     1      51.429  21.729  16.932  0.00  0.00    +0.390 HD
ENDBRANCH   9  10
ENDBRANCH   8   9
ENDBRANCH   7   8
ENDBRANCH   6   7
ENDBRANCH   5   6
TORSDOF 6
ENDMDL
MODEL 8
REMARK VINA RESULT:      -5.0      4.215      6.661
REMARK  Name = ZINC95486036
REMARK  6 active torsions:
REMARK  status: ('A' for Active; 'I' for Inactive)
REMARK    1  A    between atoms: C2_2  and  C3_3
REMARK    2  A    between atoms: C5_5  and  O5_24
REMARK    3  A    between atoms: O5_24  and  C16_25
REMARK    4  A    between atoms: C16_25  and  C17_27
REMARK    5  A    between atoms: C17_27  and  C19_29
REMARK    6  A    between atoms: C19_29  and  O7_30
REMARK                            x       y       z     vdW  Elec       q    Type
REMARK                         _______ _______ _______ _____ _____    ______ ____
ROOT
ATOM      3  C   UNL     1      48.299  15.804  18.351  0.00  0.00    -0.056 C 
ATOM      4  C   UNL     1      49.549  16.360  19.038  0.00  0.00    +0.060 C 
ATOM      5  C   UNL     1      50.618  16.573  17.965  0.00  0.00    +0.208 C 
ATOM     14  C   UNL     1      50.945  15.300  17.226  0.00  0.00    +0.040 C 
ATOM     15  C   UNL     1      49.706  14.538  16.712  0.00  0.00    +0.250 C 
ATOM     16  O   UNL     1      50.269  13.207  16.530  0.00  0.00    -0.334 OA
ATOM     17  C   UNL     1      51.076  12.969  17.592  0.00  0.00    +0.511 C 
ATOM     18  O   UNL     1      51.328  11.874  18.051  0.00  0.00    -0.439 OA
ATOM     19  C   UNL     1      51.581  14.247  18.112  0.00  0.00    -0.229 C 
ATOM     20  C   UNL     1      52.423  14.429  19.126  0.00  0.00    +0.205 C 
ATOM     21  C   UNL     1      47.148  15.667  19.348  0.00  0.00    +0.275 C 
ATOM     22  O   UNL     1      45.996  15.146  18.697  0.00  0.00    -0.351 OA
ATOM     23  C   UNL     1      46.160  13.964  18.050  0.00  0.00    +0.527 C 
ATOM     24  O   UNL     1      45.352  13.062  18.154  0.00  0.00    -0.441 OA
ATOM     25  C   UNL     1      47.376  13.830  17.209  0.00  0.00    -0.205 C 
ATOM     26  C   UNL     1      47.354  13.225  16.024  0.00  0.00    +0.170 C 
ATOM     27  C   UNL     1      48.647  14.424  17.786  0.00  0.00    +0.035 C 
ENDROOT
BRANCH   3   2
ATOM      1  C   UNL     1      47.051  17.703  17.456  0.00  0.00    +0.026 C 
ATOM      2  C   UNL     1      47.888  16.722  17.228  0.00  0.00    -0.018 C 
ENDBRANCH   3   2
BRANCH   5   6
ATOM      6  O   UNL     1      50.145  17.542  17.027  0.00  0.00    -0.332 OA
BRANCH   6   7
ATOM      7  C   UNL     1      50.995  18.534  16.691  0.00  0.00    +0.508 C 
ATOM     13  O   UNL     1      51.725  18.407  15.727  0.00  0.00    -0.500 OA
BRANCH   7   8
ATOM      8  C   UNL     1      51.040  19.766  17.489  0.00  0.00    -0.182 C 
ATOM     12  C   UNL     1      50.058  20.041  18.345  0.00  0.00    +0.203 C 
BRANCH   8   9
ATOM      9  C   UNL     1      52.199  20.718  17.341  0.00  0.00    +0.249 C 
BRANCH   9  10
ATOM     10  O   UNL     1      52.149  21.330  16.051  0.00  0.00    -0.572 OA
ATOM     11  H   UNL     1      52.923  21.149  15.500  0.00  0.00    +0.390 HD
ENDBRANCH   9  10
ENDBRANCH   8   9
ENDBRANCH   7   8
ENDBRANCH   6   7
ENDBRANCH   5   6
TORSDOF 6
ENDMDL
MODEL 9
REMARK VINA RESULT:      -5.0      2.127      5.263
REMARK  Name = ZINC95486036
REMARK  6 active torsions:
REMARK  status: ('A' for Active; 'I' for Inactive)
REMARK    1  A    between atoms: C2_2  and  C3_3
REMARK    2  A    between atoms: C5_5  and  O5_24
REMARK    3  A    between atoms: O5_24  and  C16_25
REMARK    4  A    between atoms: C16_25  and  C17_27
REMARK    5  A    between atoms: C17_27  and  C19_29
REMARK    6  A    between atoms: C19_29  and  O7_30
REMARK                            x       y       z     vdW  Elec       q    Type
REMARK                         _______ _______ _______ _____ _____    ______ ____
ROOT
ATOM      3  C   UNL     1      46.427  17.084  18.827  0.00  0.00    -0.056 C 
ATOM      4  C   UNL     1      46.351  18.488  18.223  0.00  0.00    +0.060 C 
ATOM      5  C   UNL     1      46.546  19.497  19.356  0.00  0.00    +0.208 C 
ATOM     14  C   UNL     1      45.514  19.336  20.444  0.00  0.00    +0.040 C 
ATOM     15  C   UNL     1      45.347  17.885  20.940  0.00  0.00    +0.250 C 
ATOM     16  O   UNL     1      44.026  17.962  21.549  0.00  0.00    -0.334 OA
ATOM     17  C   UNL     1      43.253  18.710  20.726  0.00  0.00    +0.511 C 
ATOM     18  O   UNL     1      42.047  18.614  20.615  0.00  0.00    -0.439 OA
ATOM     19  C   UNL     1      44.105  19.642  19.975  0.00  0.00    -0.229 C 
ATOM     20  C   UNL     1      43.716  20.559  19.093  0.00  0.00    +0.205 C 
ATOM     21  C   UNL     1      46.349  16.018  17.734  0.00  0.00    +0.275 C 
ATOM     22  O   UNL     1      46.415  14.720  18.311  0.00  0.00    -0.351 OA
ATOM     23  C   UNL     1      45.488  14.441  19.262  0.00  0.00    +0.527 C 
ATOM     24  O   UNL     1      44.880  13.388  19.273  0.00  0.00    -0.441 OA
ATOM     25  C   UNL     1      45.253  15.489  20.288  0.00  0.00    -0.205 C 
ATOM     26  C   UNL     1      45.065  15.192  21.572  0.00  0.00    +0.170 C 
ATOM     27  C   UNL     1      45.240  16.918  19.782  0.00  0.00    +0.035 C 
ENDROOT
BRANCH   3   2
ATOM      1  C   UNL     1      48.805  16.550  18.971  0.00  0.00    +0.026 C 
ATOM      2  C   UNL     1      47.716  16.930  19.592  0.00  0.00    -0.018 C 
ENDBRANCH   3   2
BRANCH   5   6
ATOM      6  O   UNL     1      47.845  19.314  19.922  0.00  0.00    -0.332 OA
BRANCH   6   7
ATOM      7  C   UNL     1      48.628  20.407  20.022  0.00  0.00    +0.508 C 
ATOM     13  O   UNL     1      48.179  21.435  20.487  0.00  0.00    -0.500 OA
BRANCH   7   8
ATOM      8  C   UNL     1      50.024  20.354  19.567  0.00  0.00    -0.182 C 
ATOM     12  C   UNL     1      50.931  19.687  20.278  0.00  0.00    +0.203 C 
BRANCH   8   9
ATOM      9  C   UNL     1      50.429  21.053  18.295  0.00  0.00    +0.249 C 
BRANCH   9  10
ATOM     10  O   UNL     1      51.791  21.474  18.396  0.00  0.00    -0.572 OA
ATOM     11  H   UNL     1      52.076  22.058  17.680  0.00  0.00    +0.390 HD
ENDBRANCH   9  10
ENDBRANCH   8   9
ENDBRANCH   7   8
ENDBRANCH   6   7
ENDBRANCH   5   6
TORSDOF 6
ENDMDL
