MODEL 1
REMARK VINA RESULT:      -6.6      0.000      0.000
REMARK  Name = ZINC95486285
REMARK  9 active torsions:
REMARK  status: ('A' for Active; 'I' for Inactive)
REMARK    1  A    between atoms: C1_1  and  C2_2
REMARK    2  A    between atoms: C3_3  and  O8_25
REMARK    3  A    between atoms: C7_7  and  O1_8
REMARK    4  A    between atoms: C9_11  and  O7_23
REMARK    5  A    between atoms: C10_12  and  O4_14
REMARK    6  A    between atoms: O4_14  and  C11_15
REMARK    7  A    between atoms: C14_18  and  O6_22
REMARK    8  A    between atoms: C15_19  and  O5_21
REMARK    9  A    between atoms: O7_23  and  C17_24
REMARK                            x       y       z     vdW  Elec       q    Type
REMARK                         _______ _______ _______ _____ _____    ______ ____
ROOT
ATOM      1  C   UNL     1      46.460  12.855  17.623  0.00  0.00    +0.121 C 
ATOM      2  C   UNL     1      46.207  14.303  17.956  0.00  0.00    -0.167 A 
ATOM      3  C   UNL     1      46.456  15.288  17.005  0.00  0.00    +0.193 A 
ATOM      6  C   UNL     1      46.227  16.623  17.296  0.00  0.00    -0.020 A 
ATOM      7  C   UNL     1      45.745  16.990  18.543  0.00  0.00    +0.187 A 
ATOM      8  C   UNL     1      45.493  15.997  19.505  0.00  0.00    -0.252 A 
ATOM      9  C   UNL     1      44.982  16.411  20.822  0.00  0.00    +0.442 A 
ATOM     10  C   UNL     1      44.776  17.794  21.036  0.00  0.00    -0.076 A 
ATOM     13  C   UNL     1      45.054  18.674  20.038  0.00  0.00    +0.225 A 
ATOM     25  O   UNL     1      44.744  15.592  21.696  0.00  0.00    -0.426 OA
ATOM     26  O   UNL     1      45.519  18.286  18.843  0.00  0.00    -0.232 OA
ATOM     27  C   UNL     1      45.721  14.649  19.203  0.00  0.00    +0.221 A 
ENDROOT
BRANCH   3   4
ATOM      4  O   UNL     1      46.927  14.937  15.781  0.00  0.00    -0.483 OA
ATOM      5  H   UNL     1      47.878  15.074  15.671  0.00  0.00    +0.404 HD
ENDBRANCH   3   4
BRANCH  10  11
ATOM     11  O   UNL     1      44.305  18.241  22.234  0.00  0.00    -0.285 OA
ATOM     12  C   UNL     1      42.905  18.095  22.476  0.00  0.00    +0.258 C 
ENDBRANCH  10  11
BRANCH  27  28
ATOM     28  O   UNL     1      45.471  13.689  20.129  0.00  0.00    -0.468 OA
ATOM     29  H   UNL     1      46.160  13.014  20.192  0.00  0.00    +0.403 HD
ENDBRANCH  27  28
BRANCH  13  14
ATOM     14  O   UNL     1      44.852  19.992  20.261  0.00  0.00    -0.205 OA
BRANCH  14  15
ATOM     15  C   UNL     1      43.724  20.559  19.756  0.00  0.00    +0.059 A 
ATOM     16  C   UNL     1      42.644  19.762  19.406  0.00  0.00    +0.036 A 
ATOM     17  C   UNL     1      41.497  20.337  18.892  0.00  0.00    +0.029 A 
ATOM     18  C   UNL     1      41.424  21.711  18.724  0.00  0.00    +0.098 A 
ATOM     21  C   UNL     1      42.506  22.512  19.074  0.00  0.00    +0.096 A 
ATOM     24  C   UNL     1      43.653  21.935  19.595  0.00  0.00    +0.023 A 
BRANCH  18  19
ATOM     19  O   UNL     1      40.295  22.275  18.217  0.00  0.00    -0.484 OA
ATOM     20  H   UNL     1      40.391  22.605  17.313  0.00  0.00    +0.394 HD
ENDBRANCH  18  19
BRANCH  21  22
ATOM     22  O   UNL     1      42.436  23.860  18.910  0.00  0.00    -0.481 OA
ATOM     23  H   UNL     1      41.654  24.158  18.426  0.00  0.00    +0.393 HD
ENDBRANCH  21  22
ENDBRANCH  14  15
ENDBRANCH  13  14
TORSDOF 7
ENDMDL
MODEL 2
REMARK VINA RESULT:      -6.4      6.415      9.679
REMARK  Name = ZINC95486285
REMARK  9 active torsions:
REMARK  status: ('A' for Active; 'I' for Inactive)
REMARK    1  A    between atoms: C1_1  and  C2_2
REMARK    2  A    between atoms: C3_3  and  O8_25
REMARK    3  A    between atoms: C7_7  and  O1_8
REMARK    4  A    between atoms: C9_11  and  O7_23
REMARK    5  A    between atoms: C10_12  and  O4_14
REMARK    6  A    between atoms: O4_14  and  C11_15
REMARK    7  A    between atoms: C14_18  and  O6_22
REMARK    8  A    between atoms: C15_19  and  O5_21
REMARK    9  A    between atoms: O7_23  and  C17_24
REMARK                            x       y       z     vdW  Elec       q    Type
REMARK                         _______ _______ _______ _____ _____    ______ ____
ROOT
ATOM      1  C   UNL     1      50.804  21.208  18.174  0.00  0.00    +0.121 C 
ATOM      2  C   UNL     1      51.027  19.812  17.650  0.00  0.00    -0.167 A 
ATOM      3  C   UNL     1      51.701  19.621  16.449  0.00  0.00    +0.193 A 
ATOM      6  C   UNL     1      51.915  18.345  15.955  0.00  0.00    -0.020 A 
ATOM      7  C   UNL     1      51.455  17.242  16.658  0.00  0.00    +0.187 A 
ATOM      8  C   UNL     1      50.772  17.433  17.872  0.00  0.00    -0.252 A 
ATOM      9  C   UNL     1      50.293  16.247  18.600  0.00  0.00    +0.442 A 
ATOM     10  C   UNL     1      50.552  14.980  18.026  0.00  0.00    -0.076 A 
ATOM     13  C   UNL     1      51.221  14.905  16.845  0.00  0.00    +0.225 A 
ATOM     25  O   UNL     1      49.695  16.352  19.660  0.00  0.00    -0.426 OA
ATOM     26  O   UNL     1      51.652  15.992  16.190  0.00  0.00    -0.232 OA
ATOM     27  C   UNL     1      50.565  18.725  18.369  0.00  0.00    +0.221 A 
ENDROOT
BRANCH   3   4
ATOM      4  O   UNL     1      52.156  20.696  15.755  0.00  0.00    -0.483 OA
ATOM      5  H   UNL     1      51.542  21.443  15.739  0.00  0.00    +0.404 HD
ENDBRANCH   3   4
BRANCH  10  11
ATOM     11  O   UNL     1      50.134  13.844  18.652  0.00  0.00    -0.285 OA
ATOM     12  C   UNL     1      48.780  13.445  18.435  0.00  0.00    +0.258 C 
ENDBRANCH  10  11
BRANCH  27  28
ATOM     28  O   UNL     1      49.913  18.910  19.544  0.00  0.00    -0.468 OA
ATOM     29  H   UNL     1      50.266  19.632  20.080  0.00  0.00    +0.403 HD
ENDBRANCH  27  28
BRANCH  13  14
ATOM     14  O   UNL     1      51.459  13.687  16.310  0.00  0.00    -0.205 OA
BRANCH  14  15
ATOM     15  C   UNL     1      51.023  13.448  15.045  0.00  0.00    +0.059 A 
ATOM     16  C   UNL     1      49.727  13.001  14.832  0.00  0.00    +0.036 A 
ATOM     17  C   UNL     1      49.282  12.757  13.546  0.00  0.00    +0.029 A 
ATOM     18  C   UNL     1      50.129  12.957  12.468  0.00  0.00    +0.098 A 
ATOM     21  C   UNL     1      51.429  13.406  12.680  0.00  0.00    +0.096 A 
ATOM     24  C   UNL     1      51.872  13.656  13.968  0.00  0.00    +0.023 A 
BRANCH  18  19
ATOM     19  O   UNL     1      49.689  12.716  11.203  0.00  0.00    -0.484 OA
ATOM     20  H   UNL     1      49.124  13.413  10.843  0.00  0.00    +0.394 HD
ENDBRANCH  18  19
BRANCH  21  22
ATOM     22  O   UNL     1      52.261  13.603  11.623  0.00  0.00    -0.481 OA
ATOM     23  H   UNL     1      51.929  14.238  10.973  0.00  0.00    +0.393 HD
ENDBRANCH  21  22
ENDBRANCH  14  15
ENDBRANCH  13  14
TORSDOF 7
ENDMDL
MODEL 3
REMARK VINA RESULT:      -6.4      4.455      5.331
REMARK  Name = ZINC95486285
REMARK  9 active torsions:
REMARK  status: ('A' for Active; 'I' for Inactive)
REMARK    1  A    between atoms: C1_1  and  C2_2
REMARK    2  A    between atoms: C3_3  and  O8_25
REMARK    3  A    between atoms: C7_7  and  O1_8
REMARK    4  A    between atoms: C9_11  and  O7_23
REMARK    5  A    between atoms: C10_12  and  O4_14
REMARK    6  A    between atoms: O4_14  and  C11_15
REMARK    7  A    between atoms: C14_18  and  O6_22
REMARK    8  A    between atoms: C15_19  and  O5_21
REMARK    9  A    between atoms: O7_23  and  C17_24
REMARK                            x       y       z     vdW  Elec       q    Type
REMARK                         _______ _______ _______ _____ _____    ______ ____
ROOT
ATOM      1  C   UNL     1      52.244  18.794  15.398  0.00  0.00    +0.121 C 
ATOM      2  C   UNL     1      51.446  19.347  16.551  0.00  0.00    -0.167 A 
ATOM      3  C   UNL     1      51.429  20.717  16.789  0.00  0.00    +0.193 A 
ATOM      6  C   UNL     1      50.699  21.241  17.844  0.00  0.00    -0.020 A 
ATOM      7  C   UNL     1      49.977  20.398  18.675  0.00  0.00    +0.187 A 
ATOM      8  C   UNL     1      49.993  19.013  18.436  0.00  0.00    -0.252 A 
ATOM      9  C   UNL     1      49.218  18.139  19.332  0.00  0.00    +0.442 A 
ATOM     10  C   UNL     1      48.502  18.754  20.384  0.00  0.00    -0.076 A 
ATOM     13  C   UNL     1      48.554  20.105  20.529  0.00  0.00    +0.225 A 
ATOM     25  O   UNL     1      49.195  16.928  19.172  0.00  0.00    -0.426 OA
ATOM     26  O   UNL     1      49.263  20.892  19.708  0.00  0.00    -0.232 OA
ATOM     27  C   UNL     1      50.728  18.491  17.365  0.00  0.00    +0.221 A 
ENDROOT
BRANCH   3   4
ATOM      4  O   UNL     1      52.133  21.549  15.980  0.00  0.00    -0.483 OA
ATOM      5  H   UNL     1      52.744  22.133  16.450  0.00  0.00    +0.404 HD
ENDBRANCH   3   4
BRANCH  10  11
ATOM     11  O   UNL     1      47.765  17.999  21.247  0.00  0.00    -0.285 OA
ATOM     12  C   UNL     1      48.436  17.496  22.404  0.00  0.00    +0.258 C 
ENDBRANCH  10  11
BRANCH  27  28
ATOM     28  O   UNL     1      50.738  17.155  17.130  0.00  0.00    -0.468 OA
ATOM     29  H   UNL     1      50.291  16.896  16.312  0.00  0.00    +0.403 HD
ENDBRANCH  27  28
BRANCH  13  14
ATOM     14  O   UNL     1      47.863  20.676  21.541  0.00  0.00    -0.205 OA
BRANCH  14  15
ATOM     15  C   UNL     1      46.725  21.353  21.235  0.00  0.00    +0.059 A 
ATOM     16  C   UNL     1      45.616  20.667  20.761  0.00  0.00    +0.036 A 
ATOM     17  C   UNL     1      44.458  21.353  20.449  0.00  0.00    +0.029 A 
ATOM     18  C   UNL     1      44.402  22.729  20.607  0.00  0.00    +0.098 A 
ATOM     21  C   UNL     1      45.512  23.419  21.082  0.00  0.00    +0.096 A 
ATOM     24  C   UNL     1      46.670  22.729  21.401  0.00  0.00    +0.023 A 
BRANCH  18  19
ATOM     19  O   UNL     1      43.261  23.403  20.298  0.00  0.00    -0.484 OA
ATOM     20  H   UNL     1      42.563  23.319  20.961  0.00  0.00    +0.394 HD
ENDBRANCH  18  19
BRANCH  21  22
ATOM     22  O   UNL     1      45.459  24.768  21.238  0.00  0.00    -0.481 OA
ATOM     23  H   UNL     1      44.566  25.114  21.376  0.00  0.00    +0.393 HD
ENDBRANCH  21  22
ENDBRANCH  14  15
ENDBRANCH  13  14
TORSDOF 7
ENDMDL
MODEL 4
REMARK VINA RESULT:      -6.3      3.232      4.296
REMARK  Name = ZINC95486285
REMARK  9 active torsions:
REMARK  status: ('A' for Active; 'I' for Inactive)
REMARK    1  A    between atoms: C1_1  and  C2_2
REMARK    2  A    between atoms: C3_3  and  O8_25
REMARK    3  A    between atoms: C7_7  and  O1_8
REMARK    4  A    between atoms: C9_11  and  O7_23
REMARK    5  A    between atoms: C10_12  and  O4_14
REMARK    6  A    between atoms: O4_14  and  C11_15
REMARK    7  A    between atoms: C14_18  and  O6_22
REMARK    8  A    between atoms: C15_19  and  O5_21
REMARK    9  A    between atoms: O7_23  and  C17_24
REMARK                            x       y       z     vdW  Elec       q    Type
REMARK                         _______ _______ _______ _____ _____    ______ ____
ROOT
ATOM      1  C   UNL     1      52.016  19.184  16.958  0.00  0.00    +0.121 C 
ATOM      2  C   UNL     1      50.746  19.395  17.742  0.00  0.00    -0.167 A 
ATOM      3  C   UNL     1      50.560  20.571  18.460  0.00  0.00    +0.193 A 
ATOM      6  C   UNL     1      49.398  20.780  19.185  0.00  0.00    -0.020 A 
ATOM      7  C   UNL     1      48.406  19.812  19.199  0.00  0.00    +0.187 A 
ATOM      8  C   UNL     1      48.591  18.622  18.475  0.00  0.00    -0.252 A 
ATOM      9  C   UNL     1      47.524  17.608  18.506  0.00  0.00    +0.442 A 
ATOM     10  C   UNL     1      46.370  17.900  19.270  0.00  0.00    -0.076 A 
ATOM     13  C   UNL     1      46.290  19.082  19.936  0.00  0.00    +0.225 A 
ATOM     25  O   UNL     1      47.630  16.556  17.895  0.00  0.00    -0.426 OA
ATOM     26  O   UNL     1      47.268  19.998  19.901  0.00  0.00    -0.232 OA
ATOM     27  C   UNL     1      49.766  18.420  17.739  0.00  0.00    +0.221 A 
ENDROOT
BRANCH   3   4
ATOM      4  O   UNL     1      51.527  21.525  18.450  0.00  0.00    -0.483 OA
ATOM      5  H   UNL     1      52.350  21.255  18.880  0.00  0.00    +0.404 HD
ENDBRANCH   3   4
BRANCH  10  11
ATOM     11  O   UNL     1      45.347  17.003  19.339  0.00  0.00    -0.285 OA
ATOM     12  C   UNL     1      45.404  16.033  20.385  0.00  0.00    +0.258 C 
ENDBRANCH  10  11
BRANCH  27  28
ATOM     28  O   UNL     1      49.942  17.274  17.034  0.00  0.00    -0.468 OA
ATOM     29  H   UNL     1      50.124  16.499  17.583  0.00  0.00    +0.403 HD
ENDBRANCH  27  28
BRANCH  13  14
ATOM     14  O   UNL     1      45.180  19.344  20.662  0.00  0.00    -0.205 OA
BRANCH  14  15
ATOM     15  C   UNL     1      44.241  20.163  20.120  0.00  0.00    +0.059 A 
ATOM     16  C   UNL     1      43.129  19.622  19.491  0.00  0.00    +0.036 A 
ATOM     17  C   UNL     1      42.173  20.453  18.938  0.00  0.00    +0.029 A 
ATOM     18  C   UNL     1      42.323  21.829  19.009  0.00  0.00    +0.098 A 
ATOM     21  C   UNL     1      43.438  22.374  19.639  0.00  0.00    +0.096 A 
ATOM     24  C   UNL     1      44.392  21.540  20.199  0.00  0.00    +0.023 A 
BRANCH  18  19
ATOM     19  O   UNL     1      41.382  22.645  18.464  0.00  0.00    -0.484 OA
ATOM     20  H   UNL     1      41.003  22.313  17.638  0.00  0.00    +0.394 HD
ENDBRANCH  18  19
BRANCH  21  22
ATOM     22  O   UNL     1      43.587  23.723  19.711  0.00  0.00    -0.481 OA
ATOM     23  H   UNL     1      43.694  24.060  20.611  0.00  0.00    +0.393 HD
ENDBRANCH  21  22
ENDBRANCH  14  15
ENDBRANCH  13  14
TORSDOF 7
ENDMDL
MODEL 5
REMARK VINA RESULT:      -6.2      3.784      7.074
REMARK  Name = ZINC95486285
REMARK  9 active torsions:
REMARK  status: ('A' for Active; 'I' for Inactive)
REMARK    1  A    between atoms: C1_1  and  C2_2
REMARK    2  A    between atoms: C3_3  and  O8_25
REMARK    3  A    between atoms: C7_7  and  O1_8
REMARK    4  A    between atoms: C9_11  and  O7_23
REMARK    5  A    between atoms: C10_12  and  O4_14
REMARK    6  A    between atoms: O4_14  and  C11_15
REMARK    7  A    between atoms: C14_18  and  O6_22
REMARK    8  A    between atoms: C15_19  and  O5_21
REMARK    9  A    between atoms: O7_23  and  C17_24
REMARK                            x       y       z     vdW  Elec       q    Type
REMARK                         _______ _______ _______ _____ _____    ______ ____
ROOT
ATOM      1  C   UNL     1      40.929  21.869  18.591  0.00  0.00    +0.121 C 
ATOM      2  C   UNL     1      42.325  21.774  19.151  0.00  0.00    -0.167 A 
ATOM      3  C   UNL     1      43.098  22.922  19.286  0.00  0.00    +0.193 A 
ATOM      6  C   UNL     1      44.383  22.852  19.800  0.00  0.00    -0.020 A 
ATOM      7  C   UNL     1      44.911  21.629  20.185  0.00  0.00    +0.187 A 
ATOM      8  C   UNL     1      44.132  20.467  20.049  0.00  0.00    -0.252 A 
ATOM      9  C   UNL     1      44.714  19.180  20.464  0.00  0.00    +0.442 A 
ATOM     10  C   UNL     1      46.031  19.196  20.977  0.00  0.00    -0.076 A 
ATOM     13  C   UNL     1      46.701  20.376  21.067  0.00  0.00    +0.225 A 
ATOM     25  O   UNL     1      44.083  18.138  20.368  0.00  0.00    -0.426 OA
ATOM     26  O   UNL     1      46.161  21.542  20.685  0.00  0.00    -0.232 OA
ATOM     27  C   UNL     1      42.832  20.546  19.534  0.00  0.00    +0.221 A 
ENDROOT
BRANCH   3   4
ATOM      4  O   UNL     1      42.589  24.124  18.912  0.00  0.00    -0.483 OA
ATOM      5  H   UNL     1      41.849  24.425  19.457  0.00  0.00    +0.404 HD
ENDBRANCH   3   4
BRANCH  10  11
ATOM     11  O   UNL     1      46.626  18.037  21.379  0.00  0.00    -0.285 OA
ATOM     12  C   UNL     1      47.295  17.270  20.377  0.00  0.00    +0.258 C 
ENDBRANCH  10  11
BRANCH  27  28
ATOM     28  O   UNL     1      42.077  19.426  19.409  0.00  0.00    -0.468 OA
ATOM     29  H   UNL     1      42.547  18.608  19.624  0.00  0.00    +0.403 HD
ENDBRANCH  27  28
BRANCH  13  14
ATOM     14  O   UNL     1      47.959  20.372  21.560  0.00  0.00    -0.205 OA
BRANCH  14  15
ATOM     15  C   UNL     1      48.983  20.607  20.697  0.00  0.00    +0.059 A 
ATOM     16  C   UNL     1      48.740  20.666  19.332  0.00  0.00    +0.036 A 
ATOM     17  C   UNL     1      49.780  20.904  18.454  0.00  0.00    +0.029 A 
ATOM     18  C   UNL     1      51.068  21.084  18.933  0.00  0.00    +0.098 A 
ATOM     21  C   UNL     1      51.314  21.025  20.302  0.00  0.00    +0.096 A 
ATOM     24  C   UNL     1      50.270  20.793  21.182  0.00  0.00    +0.023 A 
BRANCH  18  19
ATOM     19  O   UNL     1      52.091  21.317  18.067  0.00  0.00    -0.484 OA
ATOM     20  H   UNL     1      51.899  21.062  17.154  0.00  0.00    +0.394 HD
ENDBRANCH  18  19
BRANCH  21  22
ATOM     22  O   UNL     1      52.576  21.202  20.774  0.00  0.00    -0.481 OA
ATOM     23  H   UNL     1      53.230  20.607  20.382  0.00  0.00    +0.393 HD
ENDBRANCH  21  22
ENDBRANCH  14  15
ENDBRANCH  13  14
TORSDOF 7
ENDMDL
MODEL 6
REMARK VINA RESULT:      -6.1      1.876      7.119
REMARK  Name = ZINC95486285
REMARK  9 active torsions:
REMARK  status: ('A' for Active; 'I' for Inactive)
REMARK    1  A    between atoms: C1_1  and  C2_2
REMARK    2  A    between atoms: C3_3  and  O8_25
REMARK    3  A    between atoms: C7_7  and  O1_8
REMARK    4  A    between atoms: C9_11  and  O7_23
REMARK    5  A    between atoms: C10_12  and  O4_14
REMARK    6  A    between atoms: O4_14  and  C11_15
REMARK    7  A    between atoms: C14_18  and  O6_22
REMARK    8  A    between atoms: C15_19  and  O5_21
REMARK    9  A    between atoms: O7_23  and  C17_24
REMARK                            x       y       z     vdW  Elec       q    Type
REMARK                         _______ _______ _______ _____ _____    ______ ____
ROOT
ATOM      1  C   UNL     1      42.344  22.501  19.165  0.00  0.00    +0.121 C 
ATOM      2  C   UNL     1      43.004  21.162  19.379  0.00  0.00    -0.167 A 
ATOM      3  C   UNL     1      42.247  20.076  19.806  0.00  0.00    +0.193 A 
ATOM      6  C   UNL     1      42.838  18.839  20.007  0.00  0.00    -0.020 A 
ATOM      7  C   UNL     1      44.196  18.674  19.782  0.00  0.00    +0.187 A 
ATOM      8  C   UNL     1      44.963  19.770  19.350  0.00  0.00    -0.252 A 
ATOM      9  C   UNL     1      46.403  19.570  19.119  0.00  0.00    +0.442 A 
ATOM     10  C   UNL     1      46.926  18.277  19.347  0.00  0.00    -0.076 A 
ATOM     13  C   UNL     1      46.097  17.283  19.766  0.00  0.00    +0.225 A 
ATOM     25  O   UNL     1      47.118  20.486  18.743  0.00  0.00    -0.426 OA
ATOM     26  O   UNL     1      44.788  17.477  19.974  0.00  0.00    -0.232 OA
ATOM     27  C   UNL     1      44.358  21.016  19.144  0.00  0.00    +0.221 A 
ENDROOT
BRANCH   3   4
ATOM      4  O   UNL     1      40.916  20.230  20.028  0.00  0.00    -0.483 OA
ATOM      5  H   UNL     1      40.356  19.879  19.322  0.00  0.00    +0.404 HD
ENDBRANCH   3   4
BRANCH  10  11
ATOM     11  O   UNL     1      48.251  18.027  19.150  0.00  0.00    -0.285 OA
ATOM     12  C   UNL     1      49.126  18.260  20.255  0.00  0.00    +0.258 C 
ENDBRANCH  10  11
BRANCH  27  28
ATOM     28  O   UNL     1      45.096  22.073  18.721  0.00  0.00    -0.468 OA
ATOM     29  H   UNL     1      44.862  22.910  19.144  0.00  0.00    +0.403 HD
ENDBRANCH  27  28
BRANCH  13  14
ATOM     14  O   UNL     1      46.615  16.053  19.980  0.00  0.00    -0.205 OA
BRANCH  14  15
ATOM     15  C   UNL     1      46.308  15.068  19.094  0.00  0.00    +0.059 A 
ATOM     16  C   UNL     1      45.488  14.018  19.483  0.00  0.00    +0.036 A 
ATOM     17  C   UNL     1      45.175  13.016  18.584  0.00  0.00    +0.029 A 
ATOM     18  C   UNL     1      45.680  13.056  17.294  0.00  0.00    +0.098 A 
ATOM     21  C   UNL     1      46.503  14.108  16.903  0.00  0.00    +0.096 A 
ATOM     24  C   UNL     1      46.811  15.115  17.802  0.00  0.00    +0.023 A 
BRANCH  18  19
ATOM     19  O   UNL     1      45.372  12.068  16.412  0.00  0.00    -0.484 OA
ATOM     20  H   UNL     1      44.748  12.336  15.723  0.00  0.00    +0.394 HD
ENDBRANCH  18  19
BRANCH  21  22
ATOM     22  O   UNL     1      46.999  14.149  15.638  0.00  0.00    -0.481 OA
ATOM     23  H   UNL     1      46.413  13.765  14.972  0.00  0.00    +0.393 HD
ENDBRANCH  21  22
ENDBRANCH  14  15
ENDBRANCH  13  14
TORSDOF 7
ENDMDL
MODEL 7
REMARK VINA RESULT:      -6.0      4.019      7.214
REMARK  Name = ZINC95486285
REMARK  9 active torsions:
REMARK  status: ('A' for Active; 'I' for Inactive)
REMARK    1  A    between atoms: C1_1  and  C2_2
REMARK    2  A    between atoms: C3_3  and  O8_25
REMARK    3  A    between atoms: C7_7  and  O1_8
REMARK    4  A    between atoms: C9_11  and  O7_23
REMARK    5  A    between atoms: C10_12  and  O4_14
REMARK    6  A    between atoms: O4_14  and  C11_15
REMARK    7  A    between atoms: C14_18  and  O6_22
REMARK    8  A    between atoms: C15_19  and  O5_21
REMARK    9  A    between atoms: O7_23  and  C17_24
REMARK                            x       y       z     vdW  Elec       q    Type
REMARK                         _______ _______ _______ _____ _____    ______ ____
ROOT
ATOM      1  C   UNL     1      42.176  21.181  19.258  0.00  0.00    +0.121 C 
ATOM      2  C   UNL     1      43.650  20.865  19.272  0.00  0.00    -0.167 A 
ATOM      3  C   UNL     1      44.582  21.895  19.201  0.00  0.00    +0.193 A 
ATOM      6  C   UNL     1      45.940  21.621  19.214  0.00  0.00    -0.020 A 
ATOM      7  C   UNL     1      46.383  20.310  19.299  0.00  0.00    +0.187 A 
ATOM      8  C   UNL     1      45.443  19.267  19.372  0.00  0.00    -0.252 A 
ATOM      9  C   UNL     1      45.937  17.883  19.461  0.00  0.00    +0.442 A 
ATOM     10  C   UNL     1      47.338  17.691  19.469  0.00  0.00    -0.076 A 
ATOM     13  C   UNL     1      48.163  18.770  19.393  0.00  0.00    +0.225 A 
ATOM     25  O   UNL     1      45.167  16.938  19.527  0.00  0.00    -0.426 OA
ATOM     26  O   UNL     1      47.702  20.025  19.312  0.00  0.00    -0.232 OA
ATOM     27  C   UNL     1      44.072  19.552  19.364  0.00  0.00    +0.221 A 
ENDROOT
BRANCH   3   4
ATOM      4  O   UNL     1      44.156  23.182  19.117  0.00  0.00    -0.483 OA
ATOM      5  H   UNL     1      43.218  23.300  19.317  0.00  0.00    +0.404 HD
ENDBRANCH   3   4
BRANCH  10  11
ATOM     11  O   UNL     1      47.859  16.434  19.550  0.00  0.00    -0.285 OA
ATOM     12  C   UNL     1      48.032  15.723  18.324  0.00  0.00    +0.258 C 
ENDBRANCH  10  11
BRANCH  27  28
ATOM     28  O   UNL     1      43.165  18.546  19.440  0.00  0.00    -0.468 OA
ATOM     29  H   UNL     1      43.256  17.994  20.229  0.00  0.00    +0.403 HD
ENDBRANCH  27  28
BRANCH  13  14
ATOM     14  O   UNL     1      49.499  18.567  19.401  0.00  0.00    -0.205 OA
BRANCH  14  15
ATOM     15  C   UNL     1      50.252  19.238  18.490  0.00  0.00    +0.059 A 
ATOM     16  C   UNL     1      50.408  20.613  18.597  0.00  0.00    +0.036 A 
ATOM     17  C   UNL     1      51.173  21.297  17.672  0.00  0.00    +0.029 A 
ATOM     18  C   UNL     1      51.784  20.613  16.633  0.00  0.00    +0.098 A 
ATOM     21  C   UNL     1      51.629  19.234  16.524  0.00  0.00    +0.096 A 
ATOM     24  C   UNL     1      50.868  18.548  17.456  0.00  0.00    +0.023 A 
BRANCH  18  19
ATOM     19  O   UNL     1      52.536  21.288  15.722  0.00  0.00    -0.484 OA
ATOM     20  H   UNL     1      52.560  22.244  15.864  0.00  0.00    +0.394 HD
ENDBRANCH  18  19
BRANCH  21  22
ATOM     22  O   UNL     1      52.229  18.561  15.507  0.00  0.00    -0.481 OA
ATOM     23  H   UNL     1      52.108  18.969  14.638  0.00  0.00    +0.393 HD
ENDBRANCH  21  22
ENDBRANCH  14  15
ENDBRANCH  13  14
TORSDOF 7
ENDMDL
MODEL 8
REMARK VINA RESULT:      -6.0      5.685      7.186
REMARK  Name = ZINC95486285
REMARK  9 active torsions:
REMARK  status: ('A' for Active; 'I' for Inactive)
REMARK    1  A    between atoms: C1_1  and  C2_2
REMARK    2  A    between atoms: C3_3  and  O8_25
REMARK    3  A    between atoms: C7_7  and  O1_8
REMARK    4  A    between atoms: C9_11  and  O7_23
REMARK    5  A    between atoms: C10_12  and  O4_14
REMARK    6  A    between atoms: O4_14  and  C11_15
REMARK    7  A    between atoms: C14_18  and  O6_22
REMARK    8  A    between atoms: C15_19  and  O5_21
REMARK    9  A    between atoms: O7_23  and  C17_24
REMARK                            x       y       z     vdW  Elec       q    Type
REMARK                         _______ _______ _______ _____ _____    ______ ____
ROOT
ATOM      1  C   UNL     1      47.050  11.478  14.717  0.00  0.00    +0.121 C 
ATOM      2  C   UNL     1      48.076  12.437  15.265  0.00  0.00    -0.167 A 
ATOM      3  C   UNL     1      49.410  12.316  14.888  0.00  0.00    +0.193 A 
ATOM      6  C   UNL     1      50.365  13.190  15.383  0.00  0.00    -0.020 A 
ATOM      7  C   UNL     1      49.996  14.197  16.261  0.00  0.00    +0.187 A 
ATOM      8  C   UNL     1      48.649  14.321  16.644  0.00  0.00    -0.252 A 
ATOM      9  C   UNL     1      48.282  15.397  17.578  0.00  0.00    +0.442 A 
ATOM     10  C   UNL     1      49.317  16.245  18.035  0.00  0.00    -0.076 A 
ATOM     13  C   UNL     1      50.590  16.039  17.604  0.00  0.00    +0.225 A 
ATOM     25  O   UNL     1      47.127  15.553  17.944  0.00  0.00    -0.426 OA
ATOM     26  O   UNL     1      50.913  15.055  16.754  0.00  0.00    -0.232 OA
ATOM     27  C   UNL     1      47.688  13.438  16.136  0.00  0.00    +0.221 A 
ENDROOT
BRANCH   3   4
ATOM      4  O   UNL     1      49.779  11.333  14.028  0.00  0.00    -0.483 OA
ATOM      5  H   UNL     1      49.945  10.480  14.452  0.00  0.00    +0.404 HD
ENDBRANCH   3   4
BRANCH  10  11
ATOM     11  O   UNL     1      49.042  17.261  18.901  0.00  0.00    -0.285 OA
ATOM     12  C   UNL     1      49.038  16.943  20.293  0.00  0.00    +0.258 C 
ENDBRANCH  10  11
BRANCH  27  28
ATOM     28  O   UNL     1      46.387  13.561  16.499  0.00  0.00    -0.468 OA
ATOM     29  H   UNL     1      46.258  13.965  17.368  0.00  0.00    +0.403 HD
ENDBRANCH  27  28
BRANCH  13  14
ATOM     14  O   UNL     1      51.567  16.859  18.052  0.00  0.00    -0.205 OA
BRANCH  14  15
ATOM     15  C   UNL     1      51.665  18.097  17.500  0.00  0.00    +0.059 A 
ATOM     16  C   UNL     1      51.699  18.240  16.120  0.00  0.00    +0.036 A 
ATOM     17  C   UNL     1      51.799  19.499  15.557  0.00  0.00    +0.029 A 
ATOM     18  C   UNL     1      51.865  20.620  16.369  0.00  0.00    +0.098 A 
ATOM     21  C   UNL     1      51.831  20.478  17.753  0.00  0.00    +0.096 A 
ATOM     24  C   UNL     1      51.724  19.217  18.316  0.00  0.00    +0.023 A 
BRANCH  18  19
ATOM     19  O   UNL     1      51.964  21.858  15.813  0.00  0.00    -0.484 OA
ATOM     20  H   UNL     1      52.773  22.332  16.050  0.00  0.00    +0.394 HD
ENDBRANCH  18  19
BRANCH  21  22
ATOM     22  O   UNL     1      51.895  21.577  18.551  0.00  0.00    -0.481 OA
ATOM     23  H   UNL     1      51.100  21.726  19.081  0.00  0.00    +0.393 HD
ENDBRANCH  21  22
ENDBRANCH  14  15
ENDBRANCH  13  14
TORSDOF 7
ENDMDL
MODEL 9
REMARK VINA RESULT:      -5.8      2.782      6.508
REMARK  Name = ZINC95486285
REMARK  9 active torsions:
REMARK  status: ('A' for Active; 'I' for Inactive)
REMARK    1  A    between atoms: C1_1  and  C2_2
REMARK    2  A    between atoms: C3_3  and  O8_25
REMARK    3  A    between atoms: C7_7  and  O1_8
REMARK    4  A    between atoms: C9_11  and  O7_23
REMARK    5  A    between atoms: C10_12  and  O4_14
REMARK    6  A    between atoms: O4_14  and  C11_15
REMARK    7  A    between atoms: C14_18  and  O6_22
REMARK    8  A    between atoms: C15_19  and  O5_21
REMARK    9  A    between atoms: O7_23  and  C17_24
REMARK                            x       y       z     vdW  Elec       q    Type
REMARK                         _______ _______ _______ _____ _____    ______ ____
ROOT
ATOM      1  C   UNL     1      39.902  21.032  18.948  0.00  0.00    +0.121 C 
ATOM      2  C   UNL     1      41.345  20.926  19.373  0.00  0.00    -0.167 A 
ATOM      3  C   UNL     1      42.243  21.933  19.037  0.00  0.00    +0.193 A 
ATOM      6  C   UNL     1      43.572  21.851  19.421  0.00  0.00    -0.020 A 
ATOM      7  C   UNL     1      44.018  20.758  20.148  0.00  0.00    +0.187 A 
ATOM      8  C   UNL     1      43.112  19.739  20.488  0.00  0.00    -0.252 A 
ATOM      9  C   UNL     1      43.609  18.588  21.260  0.00  0.00    +0.442 A 
ATOM     10  C   UNL     1      44.979  18.582  21.612  0.00  0.00    -0.076 A 
ATOM     13  C   UNL     1      45.773  19.618  21.231  0.00  0.00    +0.225 A 
ATOM     25  O   UNL     1      42.867  17.673  21.585  0.00  0.00    -0.426 OA
ATOM     26  O   UNL     1      45.309  20.661  20.528  0.00  0.00    -0.232 OA
ATOM     27  C   UNL     1      41.769  19.831  20.102  0.00  0.00    +0.221 A 
ENDROOT
BRANCH   3   4
ATOM      4  O   UNL     1      41.814  23.007  18.326  0.00  0.00    -0.483 OA
ATOM      5  H   UNL     1      42.527  23.545  17.956  0.00  0.00    +0.404 HD
ENDBRANCH   3   4
BRANCH  10  11
ATOM     11  O   UNL     1      45.501  17.545  22.326  0.00  0.00    -0.285 OA
ATOM     12  C   UNL     1      45.890  16.383  21.592  0.00  0.00    +0.258 C 
ENDBRANCH  10  11
BRANCH  27  28
ATOM     28  O   UNL     1      40.893  18.851  20.437  0.00  0.00    -0.468 OA
ATOM     29  H   UNL     1      40.404  18.488  19.686  0.00  0.00    +0.403 HD
ENDBRANCH  27  28
BRANCH  13  14
ATOM     14  O   UNL     1      47.079  19.595  21.575  0.00  0.00    -0.205 OA
BRANCH  14  15
ATOM     15  C   UNL     1      48.003  19.646  20.579  0.00  0.00    +0.059 A 
ATOM     16  C   UNL     1      48.859  20.733  20.482  0.00  0.00    +0.036 A 
ATOM     17  C   UNL     1      49.798  20.787  19.470  0.00  0.00    +0.029 A 
ATOM     18  C   UNL     1      49.887  19.756  18.548  0.00  0.00    +0.098 A 
ATOM     21  C   UNL     1      49.029  18.664  18.644  0.00  0.00    +0.096 A 
ATOM     24  C   UNL     1      48.092  18.608  19.662  0.00  0.00    +0.023 A 
BRANCH  18  19
ATOM     19  O   UNL     1      50.811  19.810  17.552  0.00  0.00    -0.484 OA
ATOM     20  H   UNL     1      51.392  19.038  17.512  0.00  0.00    +0.394 HD
ENDBRANCH  18  19
BRANCH  21  22
ATOM     22  O   UNL     1      49.114  17.651  17.741  0.00  0.00    -0.481 OA
ATOM     23  H   UNL     1      48.337  17.564  17.172  0.00  0.00    +0.393 HD
ENDBRANCH  21  22
ENDBRANCH  14  15
ENDBRANCH  13  14
TORSDOF 7
ENDMDL
