MODEL 1
REMARK VINA RESULT:      -5.5      0.000      0.000
REMARK  Name = ZINC14497261
REMARK  4 active torsions:
REMARK  status: ('A' for Active; 'I' for Inactive)
REMARK    1  A    between atoms: C1_1  and  O1_2
REMARK    2  A    between atoms: O1_2  and  C2_3
REMARK    3  A    between atoms: C2_3  and  C3_5
REMARK    4  A    between atoms: C3_5  and  O4_12
REMARK                            x       y       z     vdW  Elec       q    Type
REMARK                         _______ _______ _______ _____ _____    ______ ____
ROOT
ATOM      4  C   UNL     1      35.535  33.726   9.920  0.00  0.00    +0.177 C 
ATOM      7  C   UNL     1      36.710  34.644  10.070  0.00  0.00    -0.077 C 
ATOM      8  C   UNL     1      37.152  35.386   9.101  0.00  0.00    +0.039 C 
ATOM      9  C   UNL     1      36.531  35.401   7.737  0.00  0.00    +0.134 C 
ATOM     10  C   UNL     1      35.707  34.172   7.503  0.00  0.00    +0.120 C 
ATOM     11  C   UNL     1      35.262  33.424   8.477  0.00  0.00    +0.355 C 
ATOM     12  O   UNL     1      34.523  32.329   8.171  0.00  0.00    -0.524 OA
ENDROOT
BRANCH   4   3
ATOM      3  C   UNL     1      35.820  32.438  10.648  0.00  0.00    +0.448 C 
ATOM     13  O   UNL     1      36.339  31.516  10.065  0.00  0.00    -0.479 OA
BRANCH   3   2
ATOM      1  C   UNL     1      36.514  32.686  12.914  0.00  0.00    +0.276 C 
ATOM      2  O   UNL     1      35.499  32.315  11.946  0.00  0.00    -0.355 OA
ENDBRANCH   3   2
ENDBRANCH   4   3
BRANCH   4   5
ATOM      5  O   UNL     1      34.382  34.343  10.496  0.00  0.00    -0.512 OA
ATOM      6  H   UNL     1      34.085  33.932  11.320  0.00  0.00    +0.400 HD
ENDBRANCH   4   5
TORSDOF 3
ENDMDL
MODEL 2
REMARK VINA RESULT:      -4.9      9.646     10.862
REMARK  Name = ZINC14497261
REMARK  4 active torsions:
REMARK  status: ('A' for Active; 'I' for Inactive)
REMARK    1  A    between atoms: C1_1  and  O1_2
REMARK    2  A    between atoms: O1_2  and  C2_3
REMARK    3  A    between atoms: C2_3  and  C3_5
REMARK    4  A    between atoms: C3_5  and  O4_12
REMARK                            x       y       z     vdW  Elec       q    Type
REMARK                         _______ _______ _______ _____ _____    ______ ____
ROOT
ATOM      4  C   UNL     1      42.572  31.900   2.403  0.00  0.00    +0.177 C 
ATOM      7  C   UNL     1      44.046  32.172   2.426  0.00  0.00    -0.077 C 
ATOM      8  C   UNL     1      44.541  33.359   2.596  0.00  0.00    +0.039 C 
ATOM      9  C   UNL     1      43.690  34.578   2.787  0.00  0.00    +0.134 C 
ATOM     10  C   UNL     1      42.294  34.345   2.295  0.00  0.00    +0.120 C 
ATOM     11  C   UNL     1      41.795  33.151   2.123  0.00  0.00    +0.355 C 
ATOM     12  O   UNL     1      40.520  33.036   1.674  0.00  0.00    -0.524 OA
ENDROOT
BRANCH   4   3
ATOM      3  C   UNL     1      42.276  30.884   1.329  0.00  0.00    +0.448 C 
ATOM     13  O   UNL     1      41.702  29.859   1.610  0.00  0.00    -0.479 OA
BRANCH   3   2
ATOM      1  C   UNL     1      42.673  29.981  -0.840  0.00  0.00    +0.276 C 
ATOM      2  O   UNL     1      42.649  31.119   0.061  0.00  0.00    -0.355 OA
ENDBRANCH   3   2
ENDBRANCH   4   3
BRANCH   4   5
ATOM      5  O   UNL     1      42.173  31.372   3.669  0.00  0.00    -0.512 OA
ATOM      6  H   UNL     1      41.757  32.021   4.253  0.00  0.00    +0.400 HD
ENDBRANCH   4   5
TORSDOF 3
ENDMDL
MODEL 3
REMARK VINA RESULT:      -4.8      1.763      2.397
REMARK  Name = ZINC14497261
REMARK  4 active torsions:
REMARK  status: ('A' for Active; 'I' for Inactive)
REMARK    1  A    between atoms: C1_1  and  O1_2
REMARK    2  A    between atoms: O1_2  and  C2_3
REMARK    3  A    between atoms: C2_3  and  C3_5
REMARK    4  A    between atoms: C3_5  and  O4_12
REMARK                            x       y       z     vdW  Elec       q    Type
REMARK                         _______ _______ _______ _____ _____    ______ ____
ROOT
ATOM      4  C   UNL     1      35.421  33.008  11.114  0.00  0.00    +0.177 C 
ATOM      7  C   UNL     1      35.397  34.243  10.265  0.00  0.00    -0.077 C 
ATOM      8  C   UNL     1      35.104  34.223   9.001  0.00  0.00    +0.039 C 
ATOM      9  C   UNL     1      34.761  32.965   8.263  0.00  0.00    +0.134 C 
ATOM     10  C   UNL     1      35.249  31.754   9.000  0.00  0.00    +0.120 C 
ATOM     11  C   UNL     1      35.543  31.773  10.272  0.00  0.00    +0.355 C 
ATOM     12  O   UNL     1      35.978  30.629  10.857  0.00  0.00    -0.524 OA
ENDROOT
BRANCH   4   3
ATOM      3  C   UNL     1      36.596  33.081  12.056  0.00  0.00    +0.448 C 
ATOM     13  O   UNL     1      37.331  34.039  12.030  0.00  0.00    -0.479 OA
BRANCH   3   2
ATOM      1  C   UNL     1      37.641  32.391  14.083  0.00  0.00    +0.276 C 
ATOM      2  O   UNL     1      36.823  32.082  12.924  0.00  0.00    -0.355 OA
ENDBRANCH   3   2
ENDBRANCH   4   3
BRANCH   4   5
ATOM      5  O   UNL     1      34.214  32.939  11.876  0.00  0.00    -0.512 OA
ATOM      6  H   UNL     1      34.167  33.581  12.597  0.00  0.00    +0.400 HD
ENDBRANCH   4   5
TORSDOF 3
ENDMDL
MODEL 4
REMARK VINA RESULT:      -4.7     15.937     17.648
REMARK  Name = ZINC14497261
REMARK  4 active torsions:
REMARK  status: ('A' for Active; 'I' for Inactive)
REMARK    1  A    between atoms: C1_1  and  O1_2
REMARK    2  A    between atoms: O1_2  and  C2_3
REMARK    3  A    between atoms: C2_3  and  C3_5
REMARK    4  A    between atoms: C3_5  and  O4_12
REMARK                            x       y       z     vdW  Elec       q    Type
REMARK                         _______ _______ _______ _____ _____    ______ ____
ROOT
ATOM      4  C   UNL     1      43.209  20.552  19.603  0.00  0.00    +0.177 C 
ATOM      7  C   UNL     1      44.144  19.541  19.011  0.00  0.00    -0.077 C 
ATOM      8  C   UNL     1      45.399  19.787  18.790  0.00  0.00    +0.039 C 
ATOM      9  C   UNL     1      46.040  21.105  19.105  0.00  0.00    +0.134 C 
ATOM     10  C   UNL     1      45.012  22.189  19.234  0.00  0.00    +0.120 C 
ATOM     11  C   UNL     1      43.750  21.943  19.457  0.00  0.00    +0.355 C 
ATOM     12  O   UNL     1      42.891  22.988  19.560  0.00  0.00    -0.524 OA
ENDROOT
BRANCH   4   3
ATOM      3  C   UNL     1      41.879  20.463  18.899  0.00  0.00    +0.448 C 
ATOM     13  O   UNL     1      41.824  20.074  17.757  0.00  0.00    -0.479 OA
BRANCH   3   2
ATOM      1  C   UNL     1      39.708  21.436  18.749  0.00  0.00    +0.276 C 
ATOM      2  O   UNL     1      40.754  20.816  19.542  0.00  0.00    -0.355 OA
ENDBRANCH   3   2
ENDBRANCH   4   3
BRANCH   4   5
ATOM      5  O   UNL     1      43.024  20.264  20.990  0.00  0.00    -0.512 OA
ATOM      6  H   UNL     1      43.320  19.381  21.252  0.00  0.00    +0.400 HD
ENDBRANCH   4   5
TORSDOF 3
ENDMDL
MODEL 5
REMARK VINA RESULT:      -4.6     16.873     19.415
REMARK  Name = ZINC14497261
REMARK  4 active torsions:
REMARK  status: ('A' for Active; 'I' for Inactive)
REMARK    1  A    between atoms: C1_1  and  O1_2
REMARK    2  A    between atoms: O1_2  and  C2_3
REMARK    3  A    between atoms: C2_3  and  C3_5
REMARK    4  A    between atoms: C3_5  and  O4_12
REMARK                            x       y       z     vdW  Elec       q    Type
REMARK                         _______ _______ _______ _____ _____    ______ ____
ROOT
ATOM      4  C   UNL     1      42.973  19.470  20.557  0.00  0.00    +0.177 C 
ATOM      7  C   UNL     1      42.270  18.618  21.570  0.00  0.00    -0.077 C 
ATOM      8  C   UNL     1      42.775  17.518  22.038  0.00  0.00    +0.039 C 
ATOM      9  C   UNL     1      44.112  16.989  21.613  0.00  0.00    +0.134 C 
ATOM     10  C   UNL     1      44.540  17.586  20.306  0.00  0.00    +0.120 C 
ATOM     11  C   UNL     1      44.032  18.692  19.834  0.00  0.00    +0.355 C 
ATOM     12  O   UNL     1      44.480  19.158  18.642  0.00  0.00    -0.524 OA
ENDROOT
BRANCH   4   3
ATOM      3  C   UNL     1      41.965  19.978  19.557  0.00  0.00    +0.448 C 
ATOM     13  O   UNL     1      41.126  19.232  19.113  0.00  0.00    -0.479 OA
BRANCH   3   2
ATOM      1  C   UNL     1      40.790  21.800  18.568  0.00  0.00    +0.276 C 
ATOM      2  O   UNL     1      42.001  21.261  19.161  0.00  0.00    -0.355 OA
ENDBRANCH   3   2
ENDBRANCH   4   3
BRANCH   4   5
ATOM      5  O   UNL     1      43.577  20.583  21.219  0.00  0.00    -0.512 OA
ATOM      6  H   UNL     1      44.522  20.473  21.392  0.00  0.00    +0.400 HD
ENDBRANCH   4   5
TORSDOF 3
ENDMDL
MODEL 6
REMARK VINA RESULT:      -4.5     17.506     18.932
REMARK  Name = ZINC14497261
REMARK  4 active torsions:
REMARK  status: ('A' for Active; 'I' for Inactive)
REMARK    1  A    between atoms: C1_1  and  O1_2
REMARK    2  A    between atoms: O1_2  and  C2_3
REMARK    3  A    between atoms: C2_3  and  C3_5
REMARK    4  A    between atoms: C3_5  and  O4_12
REMARK                            x       y       z     vdW  Elec       q    Type
REMARK                         _______ _______ _______ _____ _____    ______ ____
ROOT
ATOM      4  C   UNL     1      43.464  20.590  19.755  0.00  0.00    +0.177 C 
ATOM      7  C   UNL     1      42.222  20.340  18.954  0.00  0.00    -0.077 C 
ATOM      8  C   UNL     1      41.204  19.681  19.419  0.00  0.00    +0.039 C 
ATOM      9  C   UNL     1      41.169  19.106  20.803  0.00  0.00    +0.134 C 
ATOM     10  C   UNL     1      42.551  18.966  21.367  0.00  0.00    +0.120 C 
ATOM     11  C   UNL     1      43.575  19.628  20.900  0.00  0.00    +0.355 C 
ATOM     12  O   UNL     1      44.789  19.438  21.473  0.00  0.00    -0.524 OA
ENDROOT
BRANCH   4   3
ATOM      3  C   UNL     1      44.666  20.433  18.860  0.00  0.00    +0.448 C 
ATOM     13  O   UNL     1      45.474  21.326  18.772  0.00  0.00    -0.479 OA
BRANCH   3   2
ATOM      1  C   UNL     1      46.175  18.731  18.148  0.00  0.00    +0.276 C 
ATOM      2  O   UNL     1      44.839  19.300  18.161  0.00  0.00    -0.355 OA
ENDBRANCH   3   2
ENDBRANCH   4   3
BRANCH   4   5
ATOM      5  O   UNL     1      43.432  21.924  20.265  0.00  0.00    -0.512 OA
ATOM      6  H   UNL     1      43.017  22.004  21.135  0.00  0.00    +0.400 HD
ENDBRANCH   4   5
TORSDOF 3
ENDMDL
MODEL 7
REMARK VINA RESULT:      -4.4     21.549     22.757
REMARK  Name = ZINC14497261
REMARK  4 active torsions:
REMARK  status: ('A' for Active; 'I' for Inactive)
REMARK    1  A    between atoms: C1_1  and  O1_2
REMARK    2  A    between atoms: O1_2  and  C2_3
REMARK    3  A    between atoms: C2_3  and  C3_5
REMARK    4  A    between atoms: C3_5  and  O4_12
REMARK                            x       y       z     vdW  Elec       q    Type
REMARK                         _______ _______ _______ _____ _____    ______ ____
ROOT
ATOM      4  C   UNL     1      51.624  18.669  17.750  0.00  0.00    +0.177 C 
ATOM      7  C   UNL     1      51.727  18.735  16.256  0.00  0.00    -0.077 C 
ATOM      8  C   UNL     1      51.739  19.855  15.599  0.00  0.00    +0.039 C 
ATOM      9  C   UNL     1      51.653  21.193  16.268  0.00  0.00    +0.134 C 
ATOM     10  C   UNL     1      51.089  21.072  17.652  0.00  0.00    +0.120 C 
ATOM     11  C   UNL     1      51.076  19.946  18.313  0.00  0.00    +0.355 C 
ATOM     12  O   UNL     1      50.546  19.930  19.562  0.00  0.00    -0.524 OA
ENDROOT
BRANCH   4   3
ATOM      3  C   UNL     1      50.713  17.530  18.130  0.00  0.00    +0.448 C 
ATOM     13  O   UNL     1      51.087  16.695  18.919  0.00  0.00    -0.479 OA
BRANCH   3   2
ATOM      1  C   UNL     1      49.014  16.119  17.234  0.00  0.00    +0.276 C 
ATOM      2  O   UNL     1      49.485  17.445  17.594  0.00  0.00    -0.355 OA
ENDBRANCH   3   2
ENDBRANCH   4   3
BRANCH   4   5
ATOM      5  O   UNL     1      52.922  18.432  18.298  0.00  0.00    -0.512 OA
ATOM      6  H   UNL     1      52.944  18.418  19.265  0.00  0.00    +0.400 HD
ENDBRANCH   4   5
TORSDOF 3
ENDMDL
MODEL 8
REMARK VINA RESULT:      -4.3     17.967     19.086
REMARK  Name = ZINC14497261
REMARK  4 active torsions:
REMARK  status: ('A' for Active; 'I' for Inactive)
REMARK    1  A    between atoms: C1_1  and  O1_2
REMARK    2  A    between atoms: O1_2  and  C2_3
REMARK    3  A    between atoms: C2_3  and  C3_5
REMARK    4  A    between atoms: C3_5  and  O4_12
REMARK                            x       y       z     vdW  Elec       q    Type
REMARK                         _______ _______ _______ _____ _____    ______ ____
ROOT
ATOM      4  C   UNL     1      54.332  33.751   6.250  0.00  0.00    +0.177 C 
ATOM      7  C   UNL     1      53.545  34.910   6.785  0.00  0.00    -0.077 C 
ATOM      8  C   UNL     1      52.256  34.879   6.930  0.00  0.00    +0.039 C 
ATOM      9  C   UNL     1      51.424  33.683   6.578  0.00  0.00    +0.134 C 
ATOM     10  C   UNL     1      52.155  32.772   5.639  0.00  0.00    +0.120 C 
ATOM     11  C   UNL     1      53.452  32.802   5.493  0.00  0.00    +0.355 C 
ATOM     12  O   UNL     1      54.029  31.939   4.619  0.00  0.00    -0.524 OA
ENDROOT
BRANCH   4   3
ATOM      3  C   UNL     1      55.407  34.269   5.330  0.00  0.00    +0.448 C 
ATOM     13  O   UNL     1      55.110  34.941   4.371  0.00  0.00    -0.479 OA
BRANCH   3   2
ATOM      1  C   UNL     1      57.360  33.084   4.651  0.00  0.00    +0.276 C 
ATOM      2  O   UNL     1      56.696  33.984   5.577  0.00  0.00    -0.355 OA
ENDBRANCH   3   2
ENDBRANCH   4   3
BRANCH   4   5
ATOM      5  O   UNL     1      54.943  33.057   7.340  0.00  0.00    -0.512 OA
ATOM      6  H   UNL     1      54.999  33.574   8.155  0.00  0.00    +0.400 HD
ENDBRANCH   4   5
TORSDOF 3
ENDMDL
MODEL 9
REMARK VINA RESULT:      -4.3     10.309     11.326
REMARK  Name = ZINC14497261
REMARK  4 active torsions:
REMARK  status: ('A' for Active; 'I' for Inactive)
REMARK    1  A    between atoms: C1_1  and  O1_2
REMARK    2  A    between atoms: O1_2  and  C2_3
REMARK    3  A    between atoms: C2_3  and  C3_5
REMARK    4  A    between atoms: C3_5  and  O4_12
REMARK                            x       y       z     vdW  Elec       q    Type
REMARK                         _______ _______ _______ _____ _____    ______ ____
ROOT
ATOM      4  C   UNL     1      42.341  32.589   1.347  0.00  0.00    +0.177 C 
ATOM      7  C   UNL     1      42.875  32.690  -0.050  0.00  0.00    -0.077 C 
ATOM      8  C   UNL     1      42.951  31.672  -0.850  0.00  0.00    +0.039 C 
ATOM      9  C   UNL     1      42.512  30.293  -0.459  0.00  0.00    +0.134 C 
ATOM     10  C   UNL     1      42.445  30.148   1.031  0.00  0.00    +0.120 C 
ATOM     11  C   UNL     1      42.368  31.172   1.837  0.00  0.00    +0.355 C 
ATOM     12  O   UNL     1      42.310  30.946   3.174  0.00  0.00    -0.524 OA
ENDROOT
BRANCH   4   3
ATOM      3  C   UNL     1      43.184  33.443   2.259  0.00  0.00    +0.448 C 
ATOM     13  O   UNL     1      42.704  34.418   2.788  0.00  0.00    -0.479 OA
BRANCH   3   2
ATOM      1  C   UNL     1      45.357  34.197   2.881  0.00  0.00    +0.276 C 
ATOM      2  O   UNL     1      44.468  33.121   2.484  0.00  0.00    -0.355 OA
ENDBRANCH   3   2
ENDBRANCH   4   3
BRANCH   4   5
ATOM      5  O   UNL     1      40.995  33.068   1.370  0.00  0.00    -0.512 OA
ATOM      6  H   UNL     1      40.337  32.386   1.563  0.00  0.00    +0.400 HD
ENDBRANCH   4   5
TORSDOF 3
ENDMDL
