MODEL 1
REMARK VINA RESULT:      -5.6      0.000      0.000
REMARK  Name = ZINC00265517
REMARK  2 active torsions:
REMARK  status: ('A' for Active; 'I' for Inactive)
REMARK    1  A    between atoms: C1_1  and  O1_2
REMARK    2  A    between atoms: O1_2  and  C2_3
REMARK                            x       y       z     vdW  Elec       q    Type
REMARK                         _______ _______ _______ _____ _____    ______ ____
ROOT
ATOM      3  C   UNL     1      43.276  20.100  20.049  0.00  0.00    +0.337 A 
ATOM      4  C   UNL     1      44.246  21.058  20.414  0.00  0.00    -0.133 A 
ATOM      5  C   UNL     1      45.411  20.686  21.102  0.00  0.00    +0.120 A 
ATOM      6  C   UNL     1      46.326  21.637  21.439  0.00  0.00    +0.050 A 
ATOM      7  C   UNL     1      46.120  22.974  21.110  0.00  0.00    +0.153 A 
ATOM      8  C   UNL     1      45.002  23.370  20.444  0.00  0.00    +0.011 A 
ATOM      9  C   UNL     1      44.031  22.418  20.077  0.00  0.00    +0.203 A 
ATOM     10  N   UNL     1      42.928  22.790  19.422  0.00  0.00    -0.466 N 
ATOM     11  H   UNL     1      42.804  23.726  19.202  0.00  0.00    +0.448 HD
ATOM     12  C   UNL     1      42.001  21.920  19.066  0.00  0.00    +0.348 A 
ATOM     13  O   UNL     1      40.827  22.053  18.413  0.00  0.00    -0.169 OA
ATOM     14  C   UNL     1      40.221  20.861  18.260  0.00  0.00    +0.284 A 
ATOM     15  C   UNL     1      40.956  19.891  18.818  0.00  0.00    +0.038 A 
ATOM     16  C   UNL     1      42.151  20.547  19.363  0.00  0.00    -0.202 A 
ENDROOT
BRANCH   3   2
ATOM      1  C   UNL     1      42.753  18.298  21.504  0.00  0.00    +0.297 C 
ATOM      2  O   UNL     1      43.438  18.788  20.350  0.00  0.00    -0.318 OA
ENDBRANCH   3   2
TORSDOF 1
ENDMDL
MODEL 2
REMARK VINA RESULT:      -5.1     20.900     22.505
REMARK  Name = ZINC00265517
REMARK  2 active torsions:
REMARK  status: ('A' for Active; 'I' for Inactive)
REMARK    1  A    between atoms: C1_1  and  O1_2
REMARK    2  A    between atoms: O1_2  and  C2_3
REMARK                            x       y       z     vdW  Elec       q    Type
REMARK                         _______ _______ _______ _____ _____    ______ ____
ROOT
ATOM      3  C   UNL     1      54.603  32.470   4.606  0.00  0.00    +0.337 A 
ATOM      4  C   UNL     1      53.612  33.065   5.415  0.00  0.00    -0.133 A 
ATOM      5  C   UNL     1      52.254  32.747   5.252  0.00  0.00    +0.120 A 
ATOM      6  C   UNL     1      51.324  33.341   6.050  0.00  0.00    +0.050 A 
ATOM      7  C   UNL     1      51.702  34.259   7.027  0.00  0.00    +0.153 A 
ATOM      8  C   UNL     1      53.009  34.590   7.211  0.00  0.00    +0.011 A 
ATOM      9  C   UNL     1      54.002  34.000   6.408  0.00  0.00    +0.203 A 
ATOM     10  N   UNL     1      55.289  34.314   6.576  0.00  0.00    -0.466 N 
ATOM     11  H   UNL     1      55.531  34.956   7.262  0.00  0.00    +0.448 HD
ATOM     12  C   UNL     1      56.242  33.776   5.837  0.00  0.00    +0.348 A 
ATOM     13  O   UNL     1      57.582  33.933   5.821  0.00  0.00    -0.169 OA
ATOM     14  C   UNL     1      58.150  33.147   4.887  0.00  0.00    +0.284 A 
ATOM     15  C   UNL     1      57.211  32.450   4.234  0.00  0.00    +0.038 A 
ATOM     16  C   UNL     1      55.927  32.833   4.834  0.00  0.00    -0.202 A 
ENDROOT
BRANCH   3   2
ATOM      1  C   UNL     1      54.195  32.057   2.303  0.00  0.00    +0.297 C 
ATOM      2  O   UNL     1      54.278  31.572   3.645  0.00  0.00    -0.318 OA
ENDBRANCH   3   2
TORSDOF 1
ENDMDL
MODEL 3
REMARK VINA RESULT:      -5.0      9.214      9.794
REMARK  Name = ZINC00265517
REMARK  2 active torsions:
REMARK  status: ('A' for Active; 'I' for Inactive)
REMARK    1  A    between atoms: C1_1  and  O1_2
REMARK    2  A    between atoms: O1_2  and  C2_3
REMARK                            x       y       z     vdW  Elec       q    Type
REMARK                         _______ _______ _______ _____ _____    ______ ____
ROOT
ATOM      3  C   UNL     1      52.067  18.817  19.594  0.00  0.00    +0.337 A 
ATOM      4  C   UNL     1      51.969  19.164  18.230  0.00  0.00    -0.133 A 
ATOM      5  C   UNL     1      51.761  18.186  17.245  0.00  0.00    +0.120 A 
ATOM      6  C   UNL     1      51.672  18.556  15.938  0.00  0.00    +0.050 A 
ATOM      7  C   UNL     1      51.784  19.894  15.565  0.00  0.00    +0.153 A 
ATOM      8  C   UNL     1      51.986  20.867  16.493  0.00  0.00    +0.011 A 
ATOM      9  C   UNL     1      52.084  20.527  17.856  0.00  0.00    +0.203 A 
ATOM     10  N   UNL     1      52.281  21.471  18.780  0.00  0.00    -0.466 N 
ATOM     11  H   UNL     1      52.357  22.396  18.499  0.00  0.00    +0.448 HD
ATOM     12  C   UNL     1      52.377  21.181  20.064  0.00  0.00    +0.348 A 
ATOM     13  O   UNL     1      52.573  21.945  21.160  0.00  0.00    -0.169 OA
ATOM     14  C   UNL     1      52.582  21.194  22.277  0.00  0.00    +0.284 A 
ATOM     15  C   UNL     1      52.411  19.902  21.970  0.00  0.00    +0.038 A 
ATOM     16  C   UNL     1      52.266  19.845  20.510  0.00  0.00    -0.202 A 
ENDROOT
BRANCH   3   2
ATOM      1  C   UNL     1      53.183  16.820  20.229  0.00  0.00    +0.297 C 
ATOM      2  O   UNL     1      51.963  17.528  19.999  0.00  0.00    -0.318 OA
ENDBRANCH   3   2
TORSDOF 1
ENDMDL
MODEL 4
REMARK VINA RESULT:      -4.9      1.812      3.397
REMARK  Name = ZINC00265517
REMARK  2 active torsions:
REMARK  status: ('A' for Active; 'I' for Inactive)
REMARK    1  A    between atoms: C1_1  and  O1_2
REMARK    2  A    between atoms: O1_2  and  C2_3
REMARK                            x       y       z     vdW  Elec       q    Type
REMARK                         _______ _______ _______ _____ _____    ______ ____
ROOT
ATOM      3  C   UNL     1      43.366  20.747  19.749  0.00  0.00    +0.337 A 
ATOM      4  C   UNL     1      43.597  19.683  20.647  0.00  0.00    -0.133 A 
ATOM      5  C   UNL     1      44.895  19.368  21.081  0.00  0.00    +0.120 A 
ATOM      6  C   UNL     1      45.081  18.334  21.948  0.00  0.00    +0.050 A 
ATOM      7  C   UNL     1      44.001  17.585  22.409  0.00  0.00    +0.153 A 
ATOM      8  C   UNL     1      42.731  17.863  22.009  0.00  0.00    +0.011 A 
ATOM      9  C   UNL     1      42.495  18.923  21.114  0.00  0.00    +0.203 A 
ATOM     10  N   UNL     1      41.254  19.210  20.711  0.00  0.00    -0.466 N 
ATOM     11  H   UNL     1      40.515  18.676  21.044  0.00  0.00    +0.448 HD
ATOM     12  C   UNL     1      41.003  20.198  19.872  0.00  0.00    +0.348 A 
ATOM     13  O   UNL     1      39.858  20.668  19.333  0.00  0.00    -0.169 OA
ATOM     14  C   UNL     1      40.099  21.722  18.531  0.00  0.00    +0.284 A 
ATOM     15  C   UNL     1      41.411  21.986  18.492  0.00  0.00    +0.038 A 
ATOM     16  C   UNL     1      42.052  21.000  19.372  0.00  0.00    -0.202 A 
ENDROOT
BRANCH   3   2
ATOM      1  C   UNL     1      44.609  22.765  19.905  0.00  0.00    +0.297 C 
ATOM      2  O   UNL     1      44.389  21.500  19.277  0.00  0.00    -0.318 OA
ENDBRANCH   3   2
TORSDOF 1
ENDMDL
MODEL 5
REMARK VINA RESULT:      -4.9     20.952     22.345
REMARK  Name = ZINC00265517
REMARK  2 active torsions:
REMARK  status: ('A' for Active; 'I' for Inactive)
REMARK    1  A    between atoms: C1_1  and  O1_2
REMARK    2  A    between atoms: O1_2  and  C2_3
REMARK                            x       y       z     vdW  Elec       q    Type
REMARK                         _______ _______ _______ _____ _____    ______ ____
ROOT
ATOM      3  C   UNL     1      54.138  32.438   4.479  0.00  0.00    +0.337 A 
ATOM      4  C   UNL     1      55.524  32.669   4.606  0.00  0.00    -0.133 A 
ATOM      5  C   UNL     1      56.438  32.122   3.692  0.00  0.00    +0.120 A 
ATOM      6  C   UNL     1      57.769  32.365   3.846  0.00  0.00    +0.050 A 
ATOM      7  C   UNL     1      58.236  33.149   4.898  0.00  0.00    +0.153 A 
ATOM      8  C   UNL     1      57.378  33.694   5.802  0.00  0.00    +0.011 A 
ATOM      9  C   UNL     1      55.994  33.467   5.680  0.00  0.00    +0.203 A 
ATOM     10  N   UNL     1      55.138  33.996   6.558  0.00  0.00    -0.466 N 
ATOM     11  H   UNL     1      55.483  34.539   7.284  0.00  0.00    +0.448 HD
ATOM     12  C   UNL     1      53.835  33.800   6.468  0.00  0.00    +0.348 A 
ATOM     13  O   UNL     1      52.796  34.220   7.220  0.00  0.00    -0.169 OA
ATOM     14  C   UNL     1      51.627  33.774   6.721  0.00  0.00    +0.284 A 
ATOM     15  C   UNL     1      51.843  33.028   5.630  0.00  0.00    +0.038 A 
ATOM     16  C   UNL     1      53.296  33.020   5.421  0.00  0.00    -0.202 A 
ENDROOT
BRANCH   3   2
ATOM      1  C   UNL     1      53.126  32.374   2.331  0.00  0.00    +0.297 C 
ATOM      2  O   UNL     1      53.643  31.681   3.469  0.00  0.00    -0.318 OA
ENDBRANCH   3   2
TORSDOF 1
ENDMDL
MODEL 6
REMARK VINA RESULT:      -4.8      8.872     10.062
REMARK  Name = ZINC00265517
REMARK  2 active torsions:
REMARK  status: ('A' for Active; 'I' for Inactive)
REMARK    1  A    between atoms: C1_1  and  O1_2
REMARK    2  A    between atoms: O1_2  and  C2_3
REMARK                            x       y       z     vdW  Elec       q    Type
REMARK                         _______ _______ _______ _____ _____    ______ ____
ROOT
ATOM      3  C   UNL     1      51.807  19.821  19.652  0.00  0.00    +0.337 A 
ATOM      4  C   UNL     1      51.783  19.972  18.250  0.00  0.00    -0.133 A 
ATOM      5  C   UNL     1      51.390  21.182  17.656  0.00  0.00    +0.120 A 
ATOM      6  C   UNL     1      51.379  21.292  16.299  0.00  0.00    +0.050 A 
ATOM      7  C   UNL     1      51.752  20.220  15.492  0.00  0.00    +0.153 A 
ATOM      8  C   UNL     1      52.138  19.034  16.033  0.00  0.00    +0.011 A 
ATOM      9  C   UNL     1      52.164  18.877  17.432  0.00  0.00    +0.203 A 
ATOM     10  N   UNL     1      52.540  17.719  17.980  0.00  0.00    -0.466 N 
ATOM     11  H   UNL     1      52.796  16.985  17.400  0.00  0.00    +0.448 HD
ATOM     12  C   UNL     1      52.574  17.544  19.288  0.00  0.00    +0.348 A 
ATOM     13  O   UNL     1      52.911  16.488  20.059  0.00  0.00    -0.169 OA
ATOM     14  C   UNL     1      52.805  16.791  21.366  0.00  0.00    +0.284 A 
ATOM     15  C   UNL     1      52.378  18.051  21.518  0.00  0.00    +0.038 A 
ATOM     16  C   UNL     1      52.214  18.593  20.163  0.00  0.00    -0.202 A 
ENDROOT
BRANCH   3   2
ATOM      1  C   UNL     1      52.509  21.619  21.036  0.00  0.00    +0.297 C 
ATOM      2  O   UNL     1      51.452  20.839  20.473  0.00  0.00    -0.318 OA
ENDBRANCH   3   2
TORSDOF 1
ENDMDL
MODEL 7
REMARK VINA RESULT:      -4.7      1.917      4.927
REMARK  Name = ZINC00265517
REMARK  2 active torsions:
REMARK  status: ('A' for Active; 'I' for Inactive)
REMARK    1  A    between atoms: C1_1  and  O1_2
REMARK    2  A    between atoms: O1_2  and  C2_3
REMARK                            x       y       z     vdW  Elec       q    Type
REMARK                         _______ _______ _______ _____ _____    ______ ____
ROOT
ATOM      3  C   UNL     1      44.440  21.384  19.819  0.00  0.00    +0.337 A 
ATOM      4  C   UNL     1      43.096  21.152  19.459  0.00  0.00    -0.133 A 
ATOM      5  C   UNL     1      42.277  22.195  18.998  0.00  0.00    +0.120 A 
ATOM      6  C   UNL     1      40.984  21.935  18.660  0.00  0.00    +0.050 A 
ATOM      7  C   UNL     1      40.463  20.647  18.764  0.00  0.00    +0.153 A 
ATOM      8  C   UNL     1      41.229  19.613  19.207  0.00  0.00    +0.011 A 
ATOM      9  C   UNL     1      42.571  19.839  19.567  0.00  0.00    +0.203 A 
ATOM     10  N   UNL     1      43.336  18.835  20.003  0.00  0.00    -0.466 N 
ATOM     11  H   UNL     1      42.954  17.946  20.068  0.00  0.00    +0.448 HD
ATOM     12  C   UNL     1      44.597  19.018  20.348  0.00  0.00    +0.348 A 
ATOM     13  O   UNL     1      45.548  18.177  20.808  0.00  0.00    -0.169 OA
ATOM     14  C   UNL     1      46.711  18.826  21.008  0.00  0.00    +0.284 A 
ATOM     15  C   UNL     1      46.576  20.124  20.707  0.00  0.00    +0.038 A 
ATOM     16  C   UNL     1      45.189  20.298  20.260  0.00  0.00    -0.202 A 
ENDROOT
BRANCH   3   2
ATOM      1  C   UNL     1      45.150  23.347  20.953  0.00  0.00    +0.297 C 
ATOM      2  O   UNL     1      44.986  22.622  19.732  0.00  0.00    -0.318 OA
ENDBRANCH   3   2
TORSDOF 1
ENDMDL
MODEL 8
REMARK VINA RESULT:      -4.6     21.177     22.202
REMARK  Name = ZINC00265517
REMARK  2 active torsions:
REMARK  status: ('A' for Active; 'I' for Inactive)
REMARK    1  A    between atoms: C1_1  and  O1_2
REMARK    2  A    between atoms: O1_2  and  C2_3
REMARK                            x       y       z     vdW  Elec       q    Type
REMARK                         _______ _______ _______ _____ _____    ______ ____
ROOT
ATOM      3  C   UNL     1      53.347  33.459   5.629  0.00  0.00    +0.337 A 
ATOM      4  C   UNL     1      54.676  33.222   5.216  0.00  0.00    -0.133 A 
ATOM      5  C   UNL     1      55.759  33.482   6.069  0.00  0.00    +0.120 A 
ATOM      6  C   UNL     1      57.028  33.242   5.637  0.00  0.00    +0.050 A 
ATOM      7  C   UNL     1      57.265  32.742   4.359  0.00  0.00    +0.153 A 
ATOM      8  C   UNL     1      56.239  32.479   3.506  0.00  0.00    +0.011 A 
ATOM      9  C   UNL     1      54.912  32.713   3.913  0.00  0.00    +0.203 A 
ATOM     10  N   UNL     1      53.893  32.460   3.088  0.00  0.00    -0.466 N 
ATOM     11  H   UNL     1      54.079  32.112   2.202  0.00  0.00    +0.448 HD
ATOM     12  C   UNL     1      52.638  32.670   3.443  0.00  0.00    +0.348 A 
ATOM     13  O   UNL     1      51.466  32.495   2.797  0.00  0.00    -0.169 OA
ATOM     14  C   UNL     1      50.426  32.836   3.582  0.00  0.00    +0.284 A 
ATOM     15  C   UNL     1      50.864  33.265   4.772  0.00  0.00    +0.038 A 
ATOM     16  C   UNL     1      52.328  33.170   4.727  0.00  0.00    -0.202 A 
ENDROOT
BRANCH   3   2
ATOM      1  C   UNL     1      52.766  35.337   6.961  0.00  0.00    +0.297 C 
ATOM      2  O   UNL     1      53.074  33.944   6.864  0.00  0.00    -0.318 OA
ENDBRANCH   3   2
TORSDOF 1
ENDMDL
MODEL 9
REMARK VINA RESULT:      -4.6      7.966      9.240
REMARK  Name = ZINC00265517
REMARK  2 active torsions:
REMARK  status: ('A' for Active; 'I' for Inactive)
REMARK    1  A    between atoms: C1_1  and  O1_2
REMARK    2  A    between atoms: O1_2  and  C2_3
REMARK                            x       y       z     vdW  Elec       q    Type
REMARK                         _______ _______ _______ _____ _____    ______ ____
ROOT
ATOM      3  C   UNL     1      50.319  17.823  18.461  0.00  0.00    +0.337 A 
ATOM      4  C   UNL     1      50.847  18.907  17.729  0.00  0.00    -0.133 A 
ATOM      5  C   UNL     1      50.594  20.234  18.111  0.00  0.00    +0.120 A 
ATOM      6  C   UNL     1      51.120  21.256  17.381  0.00  0.00    +0.050 A 
ATOM      7  C   UNL     1      51.906  21.002  16.259  0.00  0.00    +0.153 A 
ATOM      8  C   UNL     1      52.171  19.729  15.860  0.00  0.00    +0.011 A 
ATOM      9  C   UNL     1      51.647  18.643  16.587  0.00  0.00    +0.203 A 
ATOM     10  N   UNL     1      51.898  17.387  16.210  0.00  0.00    -0.466 N 
ATOM     11  H   UNL     1      52.447  17.232  15.426  0.00  0.00    +0.448 HD
ATOM     12  C   UNL     1      51.419  16.350  16.872  0.00  0.00    +0.348 A 
ATOM     13  O   UNL     1      51.533  15.018  16.687  0.00  0.00    -0.169 OA
ATOM     14  C   UNL     1      50.873  14.339  17.644  0.00  0.00    +0.284 A 
ATOM     15  C   UNL     1      50.282  15.189  18.493  0.00  0.00    +0.038 A 
ATOM     16  C   UNL     1      50.620  16.538  18.022  0.00  0.00    -0.202 A 
ENDROOT
BRANCH   3   2
ATOM      1  C   UNL     1      50.189  17.908  20.831  0.00  0.00    +0.297 C 
ATOM      2  O   UNL     1      49.550  18.026  19.558  0.00  0.00    -0.318 OA
ENDBRANCH   3   2
TORSDOF 1
ENDMDL
