MODEL 1
REMARK VINA RESULT:      -7.6      0.000      0.000
REMARK  Name = ZINC95485930
REMARK  14 active torsions:
REMARK  status: ('A' for Active; 'I' for Inactive)
REMARK    1  A    between atoms: C1_1  and  O1_2
REMARK    2  A    between atoms: O1_2  and  C2_3
REMARK    3  A    between atoms: C3_4  and  C22_37
REMARK    4  A    between atoms: C12_15  and  O9_32
REMARK    5  A    between atoms: C13_16  and  O4_18
REMARK    6  A    between atoms: O4_18  and  C15_19
REMARK    7  A    between atoms: C16_21  and  O8_31
REMARK    8  A    between atoms: C17_23  and  O7_30
REMARK    9  A    between atoms: C18_25  and  O6_29
REMARK   10  A    between atoms: O9_32  and  C20_33
REMARK   11  A    between atoms: C22_37  and  C23_39
REMARK   12  A    between atoms: C25_41  and  O15_47
REMARK   13  A    between atoms: C26_42  and  O14_46
REMARK   14  A    between atoms: C27_43  and  O13_45
REMARK                            x       y       z     vdW  Elec       q    Type
REMARK                         _______ _______ _______ _____ _____    ______ ____
ROOT
ATOM      3  C   UNL     1      46.498  19.098  19.157  0.00  0.00    +0.172 A 
ATOM      4  C   UNL     1      45.418  18.899  20.035  0.00  0.00    -0.146 A 
ATOM     19  C   UNL     1      44.960  17.614  20.348  0.00  0.00    +0.169 A 
ATOM     20  C   UNL     1      45.588  16.519  19.780  0.00  0.00    -0.138 A 
ATOM     21  C   UNL     1      46.670  16.731  18.895  0.00  0.00    -0.041 A 
ATOM     22  C   UNL     1      47.308  15.547  18.308  0.00  0.00    -0.109 A 
ATOM     23  C   UNL     1      46.737  14.288  18.475  0.00  0.00    +0.156 A 
ATOM     24  O   UNL     1      45.565  14.166  19.149  0.00  0.00    -0.259 OA
ATOM     25  C   UNL     1      47.385  13.196  17.907  0.00  0.00    +0.106 A 
ATOM     28  C   UNL     1      48.560  13.380  17.177  0.00  0.00    +0.151 A 
ATOM     42  C   UNL     1      49.105  14.640  16.984  0.00  0.00    +0.053 A 
ATOM     43  C   UNL     1      48.487  15.742  17.559  0.00  0.00    -0.093 A 
ATOM     44  C   UNL     1      48.991  17.122  17.463  0.00  0.00    +0.538 A 
ATOM     45  O   UNL     1      50.160  17.337  17.208  0.00  0.00    -0.409 OA
ATOM     46  O   UNL     1      48.130  18.149  17.664  0.00  0.00    -0.260 OA
ATOM     47  C   UNL     1      45.215  15.120  20.047  0.00  0.00    +0.539 A 
ATOM     48  O   UNL     1      44.604  14.824  21.055  0.00  0.00    -0.404 OA
ATOM     49  C   UNL     1      47.124  18.006  18.565  0.00  0.00    +0.108 A 
ENDROOT
BRANCH   3   2
ATOM      1  C   UNL     1      48.091  20.809  19.577  0.00  0.00    +0.255 C 
ATOM      2  O   UNL     1      46.926  20.356  18.884  0.00  0.00    -0.318 OA
ENDBRANCH   3   2
BRANCH   4   5
ATOM      5  C   UNL     1      44.753  20.068  20.641  0.00  0.00    +0.458 C 
ATOM     18  O   UNL     1      45.136  20.498  21.712  0.00  0.00    -0.417 OA
BRANCH   5   6
ATOM      6  C   UNL     1      43.623  20.716  19.948  0.00  0.00    -0.140 A 
ATOM      7  C   UNL     1      42.556  19.944  19.477  0.00  0.00    +0.063 A 
ATOM      8  C   UNL     1      41.499  20.553  18.827  0.00  0.00    +0.088 A 
ATOM     11  C   UNL     1      41.496  21.933  18.642  0.00  0.00    +0.096 A 
ATOM     14  C   UNL     1      42.558  22.704  19.110  0.00  0.00    +0.087 A 
ATOM     17  C   UNL     1      43.614  22.102  19.765  0.00  0.00    +0.077 A 
BRANCH   8   9
ATOM      9  O   UNL     1      40.461  19.804  18.369  0.00  0.00    -0.479 OA
ATOM     10  H   UNL     1      39.825  19.551  19.053  0.00  0.00    +0.393 HD
ENDBRANCH   8   9
BRANCH  11  12
ATOM     12  O   UNL     1      40.456  22.529  18.002  0.00  0.00    -0.473 OA
ATOM     13  H   UNL     1      39.594  22.355  18.405  0.00  0.00    +0.392 HD
ENDBRANCH  11  12
BRANCH  14  15
ATOM     15  O   UNL     1      42.551  24.052  18.926  0.00  0.00    -0.479 OA
ATOM     16  H   UNL     1      43.305  24.507  19.326  0.00  0.00    +0.393 HD
ENDBRANCH  14  15
ENDBRANCH   5   6
ENDBRANCH   4   5
BRANCH  25  26
ATOM     26  O   UNL     1      46.873  11.946  18.063  0.00  0.00    -0.307 OA
ATOM     27  C   UNL     1      46.052  11.445  17.006  0.00  0.00    +0.245 C 
ENDBRANCH  25  26
BRANCH  28  29
ATOM     29  O   UNL     1      49.174  12.301  16.625  0.00  0.00    -0.271 OA
BRANCH  29  30
ATOM     30  C   UNL     1      50.001  12.537  15.483  0.00  0.00    +0.306 C 
ATOM     31  C   UNL     1      51.003  11.390  15.332  0.00  0.00    +0.195 C 
ATOM     34  C   UNL     1      51.843  11.621  14.072  0.00  0.00    +0.201 C 
ATOM     37  C   UNL     1      50.910  11.740  12.864  0.00  0.00    +0.122 C 
ATOM     40  C   UNL     1      49.912  12.873  13.111  0.00  0.00    +0.227 C 
ATOM     41  O   UNL     1      49.185  12.613  14.312  0.00  0.00    -0.387 OA
BRANCH  31  32
ATOM     32  O   UNL     1      51.857  11.349  16.477  0.00  0.00    -0.538 OA
ATOM     33  H   UNL     1      52.633  11.922  16.410  0.00  0.00    +0.393 HD
ENDBRANCH  31  32
BRANCH  34  35
ATOM     35  O   UNL     1      52.734  10.518  13.885  0.00  0.00    -0.544 OA
ATOM     36  H   UNL     1      52.447   9.703  14.319  0.00  0.00    +0.392 HD
ENDBRANCH  34  35
BRANCH  37  38
ATOM     38  O   UNL     1      51.679  12.026  11.693  0.00  0.00    -0.554 OA
ATOM     39  H   UNL     1      52.076  12.908  11.688  0.00  0.00    +0.392 HD
ENDBRANCH  37  38
ENDBRANCH  29  30
ENDBRANCH  28  29
TORSDOF 12
ENDMDL
MODEL 2
REMARK VINA RESULT:      -7.6      1.129     10.356
REMARK  Name = ZINC95485930
REMARK  14 active torsions:
REMARK  status: ('A' for Active; 'I' for Inactive)
REMARK    1  A    between atoms: C1_1  and  O1_2
REMARK    2  A    between atoms: O1_2  and  C2_3
REMARK    3  A    between atoms: C3_4  and  C22_37
REMARK    4  A    between atoms: C12_15  and  O9_32
REMARK    5  A    between atoms: C13_16  and  O4_18
REMARK    6  A    between atoms: O4_18  and  C15_19
REMARK    7  A    between atoms: C16_21  and  O8_31
REMARK    8  A    between atoms: C17_23  and  O7_30
REMARK    9  A    between atoms: C18_25  and  O6_29
REMARK   10  A    between atoms: O9_32  and  C20_33
REMARK   11  A    between atoms: C22_37  and  C23_39
REMARK   12  A    between atoms: C25_41  and  O15_47
REMARK   13  A    between atoms: C26_42  and  O14_46
REMARK   14  A    between atoms: C27_43  and  O13_45
REMARK                            x       y       z     vdW  Elec       q    Type
REMARK                         _______ _______ _______ _____ _____    ______ ____
ROOT
ATOM      3  C   UNL     1      47.357  13.426  17.741  0.00  0.00    +0.172 A 
ATOM      4  C   UNL     1      48.506  13.718  16.985  0.00  0.00    -0.146 A 
ATOM     19  C   UNL     1      48.991  15.025  16.871  0.00  0.00    +0.169 A 
ATOM     20  C   UNL     1      48.323  16.050  17.520  0.00  0.00    -0.138 A 
ATOM     21  C   UNL     1      47.167  15.745  18.274  0.00  0.00    -0.041 A 
ATOM     22  C   UNL     1      46.482  16.857  18.944  0.00  0.00    -0.109 A 
ATOM     23  C   UNL     1      46.857  18.173  18.680  0.00  0.00    +0.156 A 
ATOM     24  O   UNL     1      47.832  18.423  17.769  0.00  0.00    -0.259 OA
ATOM     25  C   UNL     1      46.184  19.191  19.348  0.00  0.00    +0.106 A 
ATOM     28  C   UNL     1      45.152  18.884  20.235  0.00  0.00    +0.151 A 
ATOM     42  C   UNL     1      44.759  17.575  20.468  0.00  0.00    +0.053 A 
ATOM     43  C   UNL     1      45.430  16.541  19.829  0.00  0.00    -0.093 A 
ATOM     44  C   UNL     1      45.136  15.112  20.025  0.00  0.00    +0.538 A 
ATOM     45  O   UNL     1      44.561  14.731  21.026  0.00  0.00    -0.409 OA
ATOM     46  O   UNL     1      45.519  14.228  19.072  0.00  0.00    -0.260 OA
ATOM     47  C   UNL     1      48.747  17.460  17.496  0.00  0.00    +0.539 A 
ATOM     48  O   UNL     1      49.897  17.757  17.236  0.00  0.00    -0.404 OA
ATOM     49  C   UNL     1      46.666  14.450  18.381  0.00  0.00    +0.108 A 
ENDROOT
BRANCH   3   2
ATOM      1  C   UNL     1      45.858  11.754  16.970  0.00  0.00    +0.255 C 
ATOM      2  O   UNL     1      46.919  12.146  17.843  0.00  0.00    -0.318 OA
ENDBRANCH   3   2
BRANCH   4   5
ATOM      5  C   UNL     1      49.216  12.623  16.298  0.00  0.00    +0.458 C 
ATOM     18  O   UNL     1      49.243  11.512  16.791  0.00  0.00    -0.417 OA
BRANCH   5   6
ATOM      6  C   UNL     1      49.897  12.876  15.013  0.00  0.00    -0.140 A 
ATOM      7  C   UNL     1      51.261  13.185  14.992  0.00  0.00    +0.063 A 
ATOM      8  C   UNL     1      51.895  13.423  13.788  0.00  0.00    +0.088 A 
ATOM     11  C   UNL     1      51.178  13.356  12.596  0.00  0.00    +0.096 A 
ATOM     14  C   UNL     1      49.819  13.049  12.614  0.00  0.00    +0.087 A 
ATOM     17  C   UNL     1      49.180  12.804  13.815  0.00  0.00    +0.077 A 
BRANCH   8   9
ATOM      9  O   UNL     1      53.221  13.723  13.766  0.00  0.00    -0.479 OA
ATOM     10  H   UNL     1      53.427  14.619  14.066  0.00  0.00    +0.393 HD
ENDBRANCH   8   9
BRANCH  11  12
ATOM     12  O   UNL     1      51.804  13.591  11.413  0.00  0.00    -0.473 OA
ATOM     13  H   UNL     1      52.494  12.948  11.199  0.00  0.00    +0.392 HD
ENDBRANCH  11  12
BRANCH  14  15
ATOM     15  O   UNL     1      49.121  12.984  11.448  0.00  0.00    -0.479 OA
ATOM     16  H   UNL     1      48.185  12.770  11.561  0.00  0.00    +0.393 HD
ENDBRANCH  14  15
ENDBRANCH   5   6
ENDBRANCH   4   5
BRANCH  25  26
ATOM     26  O   UNL     1      46.531  20.487  19.135  0.00  0.00    -0.307 OA
ATOM     27  C   UNL     1      47.528  21.042  19.995  0.00  0.00    +0.245 C 
ENDBRANCH  25  26
BRANCH  28  29
ATOM     29  O   UNL     1      44.503  19.893  20.872  0.00  0.00    -0.271 OA
BRANCH  29  30
ATOM     30  C   UNL     1      43.169  20.179  20.445  0.00  0.00    +0.306 C 
ATOM     31  C   UNL     1      43.166  21.459  19.605  0.00  0.00    +0.195 C 
ATOM     34  C   UNL     1      41.744  21.724  19.101  0.00  0.00    +0.201 C 
ATOM     37  C   UNL     1      41.259  20.507  18.308  0.00  0.00    +0.122 C 
ATOM     40  C   UNL     1      41.336  19.265  19.198  0.00  0.00    +0.227 C 
ATOM     41  O   UNL     1      42.678  19.092  19.658  0.00  0.00    -0.387 OA
BRANCH  31  32
ATOM     32  O   UNL     1      43.603  22.557  20.407  0.00  0.00    -0.538 OA
ATOM     33  H   UNL     1      43.790  22.323  21.326  0.00  0.00    +0.393 HD
ENDBRANCH  31  32
BRANCH  34  35
ATOM     35  O   UNL     1      41.744  22.878  18.257  0.00  0.00    -0.544 OA
ATOM     36  H   UNL     1      41.990  22.694  17.340  0.00  0.00    +0.392 HD
ENDBRANCH  34  35
BRANCH  37  38
ATOM     38  O   UNL     1      39.907  20.715  17.893  0.00  0.00    -0.554 OA
ATOM     39  H   UNL     1      39.531  19.977  17.393  0.00  0.00    +0.392 HD
ENDBRANCH  37  38
ENDBRANCH  29  30
ENDBRANCH  28  29
TORSDOF 12
ENDMDL
MODEL 3
REMARK VINA RESULT:      -7.6      1.495      3.294
REMARK  Name = ZINC95485930
REMARK  14 active torsions:
REMARK  status: ('A' for Active; 'I' for Inactive)
REMARK    1  A    between atoms: C1_1  and  O1_2
REMARK    2  A    between atoms: O1_2  and  C2_3
REMARK    3  A    between atoms: C3_4  and  C22_37
REMARK    4  A    between atoms: C12_15  and  O9_32
REMARK    5  A    between atoms: C13_16  and  O4_18
REMARK    6  A    between atoms: O4_18  and  C15_19
REMARK    7  A    between atoms: C16_21  and  O8_31
REMARK    8  A    between atoms: C17_23  and  O7_30
REMARK    9  A    between atoms: C18_25  and  O6_29
REMARK   10  A    between atoms: O9_32  and  C20_33
REMARK   11  A    between atoms: C22_37  and  C23_39
REMARK   12  A    between atoms: C25_41  and  O15_47
REMARK   13  A    between atoms: C26_42  and  O14_46
REMARK   14  A    between atoms: C27_43  and  O13_45
REMARK                            x       y       z     vdW  Elec       q    Type
REMARK                         _______ _______ _______ _____ _____    ______ ____
ROOT
ATOM      3  C   UNL     1      45.031  17.631  20.436  0.00  0.00    +0.172 A 
ATOM      4  C   UNL     1      45.425  18.975  20.566  0.00  0.00    -0.146 A 
ATOM     19  C   UNL     1      46.680  19.412  20.130  0.00  0.00    +0.169 A 
ATOM     20  C   UNL     1      47.549  18.500  19.556  0.00  0.00    -0.138 A 
ATOM     21  C   UNL     1      47.144  17.151  19.434  0.00  0.00    -0.041 A 
ATOM     22  C   UNL     1      48.093  16.211  18.825  0.00  0.00    -0.109 A 
ATOM     23  C   UNL     1      49.403  16.608  18.563  0.00  0.00    +0.156 A 
ATOM     24  O   UNL     1      49.808  17.856  18.910  0.00  0.00    -0.259 OA
ATOM     25  C   UNL     1      50.261  15.684  17.977  0.00  0.00    +0.106 A 
ATOM     28  C   UNL     1      49.810  14.395  17.688  0.00  0.00    +0.151 A 
ATOM     42  C   UNL     1      48.517  13.994  17.984  0.00  0.00    +0.053 A 
ATOM     43  C   UNL     1      47.637  14.906  18.550  0.00  0.00    -0.093 A 
ATOM     44  C   UNL     1      46.229  14.614  18.870  0.00  0.00    +0.538 A 
ATOM     45  O   UNL     1      45.647  13.700  18.319  0.00  0.00    -0.409 OA
ATOM     46  O   UNL     1      45.594  15.383  19.787  0.00  0.00    -0.260 OA
ATOM     47  C   UNL     1      48.885  18.841  19.039  0.00  0.00    +0.539 A 
ATOM     48  O   UNL     1      49.156  19.986  18.732  0.00  0.00    -0.404 OA
ATOM     49  C   UNL     1      45.904  16.702  19.879  0.00  0.00    +0.108 A 
ENDROOT
BRANCH   3   2
ATOM      1  C   UNL     1      43.718  16.662  22.160  0.00  0.00    +0.255 C 
ATOM      2  O   UNL     1      43.802  17.241  20.857  0.00  0.00    -0.318 OA
ENDBRANCH   3   2
BRANCH   4   5
ATOM      5  C   UNL     1      44.495  19.945  21.175  0.00  0.00    +0.458 C 
ATOM     18  O   UNL     1      44.498  20.116  22.379  0.00  0.00    -0.417 OA
BRANCH   5   6
ATOM      6  C   UNL     1      43.559  20.705  20.324  0.00  0.00    -0.140 A 
ATOM      7  C   UNL     1      42.445  20.068  19.768  0.00  0.00    +0.063 A 
ATOM      8  C   UNL     1      41.570  20.782  18.971  0.00  0.00    +0.088 A 
ATOM     11  C   UNL     1      41.799  22.133  18.720  0.00  0.00    +0.096 A 
ATOM     14  C   UNL     1      42.909  22.769  19.273  0.00  0.00    +0.087 A 
ATOM     17  C   UNL     1      43.783  22.062  20.076  0.00  0.00    +0.077 A 
BRANCH   8   9
ATOM      9  O   UNL     1      40.486  20.166  18.430  0.00  0.00    -0.479 OA
ATOM     10  H   UNL     1      40.520  19.200  18.473  0.00  0.00    +0.393 HD
ENDBRANCH   8   9
BRANCH  11  12
ATOM     12  O   UNL     1      40.938  22.833  17.935  0.00  0.00    -0.473 OA
ATOM     13  H   UNL     1      40.340  22.278  17.417  0.00  0.00    +0.392 HD
ENDBRANCH  11  12
BRANCH  14  15
ATOM     15  O   UNL     1      43.128  24.089  19.026  0.00  0.00    -0.479 OA
ATOM     16  H   UNL     1      42.393  24.663  19.278  0.00  0.00    +0.393 HD
ENDBRANCH  14  15
ENDBRANCH   5   6
ENDBRANCH   4   5
BRANCH  25  26
ATOM     26  O   UNL     1      51.541  16.036  17.685  0.00  0.00    -0.307 OA
ATOM     27  C   UNL     1      52.514  15.856  18.716  0.00  0.00    +0.245 C 
ENDBRANCH  25  26
BRANCH  28  29
ATOM     29  O   UNL     1      50.667  13.505  17.121  0.00  0.00    -0.271 OA
BRANCH  29  30
ATOM     30  C   UNL     1      50.417  13.137  15.763  0.00  0.00    +0.306 C 
ATOM     31  C   UNL     1      51.549  13.659  14.876  0.00  0.00    +0.195 C 
ATOM     34  C   UNL     1      51.305  13.209  13.432  0.00  0.00    +0.201 C 
ATOM     37  C   UNL     1      51.196  11.682  13.397  0.00  0.00    +0.122 C 
ATOM     40  C   UNL     1      50.078  11.235  14.341  0.00  0.00    +0.227 C 
ATOM     41  O   UNL     1      50.351  11.713  15.660  0.00  0.00    -0.387 OA
BRANCH  31  32
ATOM     32  O   UNL     1      51.581  15.086  14.934  0.00  0.00    -0.538 OA
ATOM     33  H   UNL     1      51.104  15.461  15.688  0.00  0.00    +0.393 HD
ENDBRANCH  31  32
BRANCH  34  35
ATOM     35  O   UNL     1      52.394  13.632  12.609  0.00  0.00    -0.544 OA
ATOM     36  H   UNL     1      52.145  14.269  11.925  0.00  0.00    +0.392 HD
ENDBRANCH  34  35
BRANCH  37  38
ATOM     38  O   UNL     1      50.898  11.255  12.066  0.00  0.00    -0.554 OA
ATOM     39  H   UNL     1      51.607  11.421  11.431  0.00  0.00    +0.392 HD
ENDBRANCH  37  38
ENDBRANCH  29  30
ENDBRANCH  28  29
TORSDOF 12
ENDMDL
MODEL 4
REMARK VINA RESULT:      -7.5      1.741     10.657
REMARK  Name = ZINC95485930
REMARK  14 active torsions:
REMARK  status: ('A' for Active; 'I' for Inactive)
REMARK    1  A    between atoms: C1_1  and  O1_2
REMARK    2  A    between atoms: O1_2  and  C2_3
REMARK    3  A    between atoms: C3_4  and  C22_37
REMARK    4  A    between atoms: C12_15  and  O9_32
REMARK    5  A    between atoms: C13_16  and  O4_18
REMARK    6  A    between atoms: O4_18  and  C15_19
REMARK    7  A    between atoms: C16_21  and  O8_31
REMARK    8  A    between atoms: C17_23  and  O7_30
REMARK    9  A    between atoms: C18_25  and  O6_29
REMARK   10  A    between atoms: O9_32  and  C20_33
REMARK   11  A    between atoms: C22_37  and  C23_39
REMARK   12  A    between atoms: C25_41  and  O15_47
REMARK   13  A    between atoms: C26_42  and  O14_46
REMARK   14  A    between atoms: C27_43  and  O13_45
REMARK                            x       y       z     vdW  Elec       q    Type
REMARK                         _______ _______ _______ _____ _____    ______ ____
ROOT
ATOM      3  C   UNL     1      48.387  12.130  15.823  0.00  0.00    +0.172 A 
ATOM      4  C   UNL     1      49.743  12.361  15.528  0.00  0.00    -0.146 A 
ATOM     19  C   UNL     1      50.423  13.469  16.044  0.00  0.00    +0.169 A 
ATOM     20  C   UNL     1      49.743  14.354  16.864  0.00  0.00    -0.138 A 
ATOM     21  C   UNL     1      48.379  14.115  17.150  0.00  0.00    -0.041 A 
ATOM     22  C   UNL     1      47.690  15.077  18.018  0.00  0.00    -0.109 A 
ATOM     23  C   UNL     1      48.315  16.269  18.378  0.00  0.00    +0.156 A 
ATOM     24  O   UNL     1      49.547  16.556  17.888  0.00  0.00    -0.259 OA
ATOM     25  C   UNL     1      47.623  17.144  19.210  0.00  0.00    +0.106 A 
ATOM     28  C   UNL     1      46.335  16.827  19.643  0.00  0.00    +0.151 A 
ATOM     42  C   UNL     1      45.704  15.656  19.253  0.00  0.00    +0.053 A 
ATOM     43  C   UNL     1      46.383  14.759  18.440  0.00  0.00    -0.093 A 
ATOM     44  C   UNL     1      45.839  13.464  17.995  0.00  0.00    +0.538 A 
ATOM     45  O   UNL     1      44.935  12.931  18.608  0.00  0.00    -0.409 OA
ATOM     46  O   UNL     1      46.365  12.879  16.892  0.00  0.00    -0.260 OA
ATOM     47  C   UNL     1      50.353  15.542  17.486  0.00  0.00    +0.539 A 
ATOM     48  O   UNL     1      51.557  15.613  17.636  0.00  0.00    -0.404 OA
ATOM     49  C   UNL     1      47.689  13.024  16.629  0.00  0.00    +0.108 A 
ENDROOT
BRANCH   3   2
ATOM      1  C   UNL     1      46.954  10.279  16.219  0.00  0.00    +0.255 C 
ATOM      2  O   UNL     1      47.759  11.040  15.317  0.00  0.00    -0.318 OA
ENDBRANCH   3   2
BRANCH   4   5
ATOM      5  C   UNL     1      50.464  11.414  14.657  0.00  0.00    +0.458 C 
ATOM     18  O   UNL     1      50.876  10.363  15.111  0.00  0.00    -0.417 OA
BRANCH   5   6
ATOM      6  C   UNL     1      50.688  11.741  13.236  0.00  0.00    -0.140 A 
ATOM      7  C   UNL     1      50.190  12.937  12.707  0.00  0.00    +0.063 A 
ATOM      8  C   UNL     1      50.401  13.241  11.375  0.00  0.00    +0.088 A 
ATOM     11  C   UNL     1      51.106  12.358  10.561  0.00  0.00    +0.096 A 
ATOM     14  C   UNL     1      51.602  11.167  11.086  0.00  0.00    +0.087 A 
ATOM     17  C   UNL     1      51.401  10.860  12.418  0.00  0.00    +0.077 A 
BRANCH   8   9
ATOM      9  O   UNL     1      49.918  14.403  10.859  0.00  0.00    -0.479 OA
ATOM     10  H   UNL     1      50.533  15.147  10.923  0.00  0.00    +0.393 HD
ENDBRANCH   8   9
BRANCH  11  12
ATOM     12  O   UNL     1      51.311  12.659   9.252  0.00  0.00    -0.473 OA
ATOM     13  H   UNL     1      50.597  13.172   8.850  0.00  0.00    +0.392 HD
ENDBRANCH  11  12
BRANCH  14  15
ATOM     15  O   UNL     1      52.291  10.307  10.287  0.00  0.00    -0.479 OA
ATOM     16  H   UNL     1      51.946  10.246   9.386  0.00  0.00    +0.393 HD
ENDBRANCH  14  15
ENDBRANCH   5   6
ENDBRANCH   4   5
BRANCH  25  26
ATOM     26  O   UNL     1      48.203  18.309  19.602  0.00  0.00    -0.307 OA
ATOM     27  C   UNL     1      48.048  19.434  18.735  0.00  0.00    +0.245 C 
ENDBRANCH  25  26
BRANCH  28  29
ATOM     29  O   UNL     1      45.674  17.698  20.451  0.00  0.00    -0.271 OA
BRANCH  29  30
ATOM     30  C   UNL     1      44.396  18.157  20.003  0.00  0.00    +0.306 C 
ATOM     31  C   UNL     1      43.491  18.405  21.213  0.00  0.00    +0.195 C 
ATOM     34  C   UNL     1      42.146  18.953  20.728  0.00  0.00    +0.201 C 
ATOM     37  C   UNL     1      42.389  20.227  19.914  0.00  0.00    +0.122 C 
ATOM     40  C   UNL     1      43.337  19.909  18.755  0.00  0.00    +0.227 C 
ATOM     41  O   UNL     1      44.557  19.374  19.272  0.00  0.00    -0.387 OA
BRANCH  31  32
ATOM     32  O   UNL     1      43.284  17.177  21.913  0.00  0.00    -0.538 OA
ATOM     33  H   UNL     1      44.053  16.875  22.416  0.00  0.00    +0.393 HD
ENDBRANCH  31  32
BRANCH  34  35
ATOM     35  O   UNL     1      41.319  19.254  21.856  0.00  0.00    -0.544 OA
ATOM     36  H   UNL     1      41.745  19.819  22.515  0.00  0.00    +0.392 HD
ENDBRANCH  34  35
BRANCH  37  38
ATOM     38  O   UNL     1      41.146  20.709  19.398  0.00  0.00    -0.554 OA
ATOM     39  H   UNL     1      40.459  20.032  19.330  0.00  0.00    +0.392 HD
ENDBRANCH  37  38
ENDBRANCH  29  30
ENDBRANCH  28  29
TORSDOF 12
ENDMDL
MODEL 5
REMARK VINA RESULT:      -7.4      1.408     10.124
REMARK  Name = ZINC95485930
REMARK  14 active torsions:
REMARK  status: ('A' for Active; 'I' for Inactive)
REMARK    1  A    between atoms: C1_1  and  O1_2
REMARK    2  A    between atoms: O1_2  and  C2_3
REMARK    3  A    between atoms: C3_4  and  C22_37
REMARK    4  A    between atoms: C12_15  and  O9_32
REMARK    5  A    between atoms: C13_16  and  O4_18
REMARK    6  A    between atoms: O4_18  and  C15_19
REMARK    7  A    between atoms: C16_21  and  O8_31
REMARK    8  A    between atoms: C17_23  and  O7_30
REMARK    9  A    between atoms: C18_25  and  O6_29
REMARK   10  A    between atoms: O9_32  and  C20_33
REMARK   11  A    between atoms: C22_37  and  C23_39
REMARK   12  A    between atoms: C25_41  and  O15_47
REMARK   13  A    between atoms: C26_42  and  O14_46
REMARK   14  A    between atoms: C27_43  and  O13_45
REMARK                            x       y       z     vdW  Elec       q    Type
REMARK                         _______ _______ _______ _____ _____    ______ ____
ROOT
ATOM      3  C   UNL     1      49.654  14.148  17.952  0.00  0.00    +0.172 A 
ATOM      4  C   UNL     1      48.994  12.913  17.816  0.00  0.00    -0.146 A 
ATOM     19  C   UNL     1      47.662  12.752  18.212  0.00  0.00    +0.169 A 
ATOM     20  C   UNL     1      46.982  13.833  18.746  0.00  0.00    -0.138 A 
ATOM     21  C   UNL     1      47.657  15.068  18.882  0.00  0.00    -0.041 A 
ATOM     22  C   UNL     1      46.906  16.191  19.457  0.00  0.00    -0.109 A 
ATOM     23  C   UNL     1      45.648  15.980  20.016  0.00  0.00    +0.156 A 
ATOM     24  O   UNL     1      45.137  14.723  20.064  0.00  0.00    -0.259 OA
ATOM     25  C   UNL     1      44.973  17.078  20.539  0.00  0.00    +0.106 A 
ATOM     28  C   UNL     1      45.565  18.341  20.514  0.00  0.00    +0.151 A 
ATOM     42  C   UNL     1      46.833  18.539  19.989  0.00  0.00    +0.053 A 
ATOM     43  C   UNL     1      47.516  17.462  19.442  0.00  0.00    -0.093 A 
ATOM     44  C   UNL     1      48.846  17.552  18.816  0.00  0.00    +0.538 A 
ATOM     45  O   UNL     1      49.261  18.616  18.397  0.00  0.00    -0.409 OA
ATOM     46  O   UNL     1      49.599  16.430  18.714  0.00  0.00    -0.260 OA
ATOM     47  C   UNL     1      45.575  13.795  19.177  0.00  0.00    +0.539 A 
ATOM     48  O   UNL     1      44.817  12.948  18.746  0.00  0.00    -0.404 OA
ATOM     49  C   UNL     1      48.987  15.236  18.506  0.00  0.00    +0.108 A 
ENDROOT
BRANCH   3   2
ATOM      1  C   UNL     1      51.955  14.064  18.532  0.00  0.00    +0.255 C 
ATOM      2  O   UNL     1      50.942  14.276  17.547  0.00  0.00    -0.318 OA
ENDBRANCH   3   2
BRANCH   4   5
ATOM      5  C   UNL     1      49.721  11.765  17.244  0.00  0.00    +0.458 C 
ATOM     18  O   UNL     1      50.016  10.819  17.949  0.00  0.00    -0.417 OA
BRANCH   5   6
ATOM      6  C   UNL     1      50.092  11.763  15.816  0.00  0.00    -0.140 A 
ATOM      7  C   UNL     1      51.200  11.028  15.381  0.00  0.00    +0.063 A 
ATOM      8  C   UNL     1      51.546  11.029  14.043  0.00  0.00    +0.088 A 
ATOM     11  C   UNL     1      50.792  11.761  13.128  0.00  0.00    +0.096 A 
ATOM     14  C   UNL     1      49.689  12.494  13.559  0.00  0.00    +0.087 A 
ATOM     17  C   UNL     1      49.334  12.492  14.894  0.00  0.00    +0.077 A 
BRANCH   8   9
ATOM      9  O   UNL     1      52.622  10.315  13.619  0.00  0.00    -0.479 OA
ATOM     10  H   UNL     1      52.751   9.480  14.089  0.00  0.00    +0.393 HD
ENDBRANCH   8   9
BRANCH  11  12
ATOM     12  O   UNL     1      51.135  11.762  11.813  0.00  0.00    -0.473 OA
ATOM     13  H   UNL     1      51.994  11.358  11.631  0.00  0.00    +0.392 HD
ENDBRANCH  11  12
BRANCH  14  15
ATOM     15  O   UNL     1      48.956  13.208  12.662  0.00  0.00    -0.479 OA
ATOM     16  H   UNL     1      49.132  14.159  12.679  0.00  0.00    +0.393 HD
ENDBRANCH  14  15
ENDBRANCH   5   6
ENDBRANCH   4   5
BRANCH  25  26
ATOM     26  O   UNL     1      43.735  16.920  21.077  0.00  0.00    -0.307 OA
ATOM     27  C   UNL     1      43.666  16.637  22.475  0.00  0.00    +0.245 C 
ENDBRANCH  25  26
BRANCH  28  29
ATOM     29  O   UNL     1      44.892  19.400  21.037  0.00  0.00    -0.271 OA
BRANCH  29  30
ATOM     30  C   UNL     1      44.492  20.428  20.128  0.00  0.00    +0.306 C 
ATOM     31  C   UNL     1      42.964  20.524  20.107  0.00  0.00    +0.195 C 
ATOM     34  C   UNL     1      42.546  21.668  19.178  0.00  0.00    +0.201 C 
ATOM     37  C   UNL     1      43.203  22.965  19.655  0.00  0.00    +0.122 C 
ATOM     40  C   UNL     1      44.721  22.775  19.694  0.00  0.00    +0.227 C 
ATOM     41  O   UNL     1      45.041  21.677  20.551  0.00  0.00    -0.387 OA
BRANCH  31  32
ATOM     32  O   UNL     1      42.415  19.294  19.631  0.00  0.00    -0.538 OA
ATOM     33  H   UNL     1      42.754  19.020  18.767  0.00  0.00    +0.393 HD
ENDBRANCH  31  32
BRANCH  34  35
ATOM     35  O   UNL     1      41.124  21.811  19.207  0.00  0.00    -0.544 OA
ATOM     36  H   UNL     1      40.785  22.198  20.026  0.00  0.00    +0.392 HD
ENDBRANCH  34  35
BRANCH  37  38
ATOM     38  O   UNL     1      42.877  24.026  18.754  0.00  0.00    -0.554 OA
ATOM     39  H   UNL     1      41.937  24.079  18.532  0.00  0.00    +0.392 HD
ENDBRANCH  37  38
ENDBRANCH  29  30
ENDBRANCH  28  29
TORSDOF 12
ENDMDL
MODEL 6
REMARK VINA RESULT:      -6.6      1.167     10.512
REMARK  Name = ZINC95485930
REMARK  14 active torsions:
REMARK  status: ('A' for Active; 'I' for Inactive)
REMARK    1  A    between atoms: C1_1  and  O1_2
REMARK    2  A    between atoms: O1_2  and  C2_3
REMARK    3  A    between atoms: C3_4  and  C22_37
REMARK    4  A    between atoms: C12_15  and  O9_32
REMARK    5  A    between atoms: C13_16  and  O4_18
REMARK    6  A    between atoms: O4_18  and  C15_19
REMARK    7  A    between atoms: C16_21  and  O8_31
REMARK    8  A    between atoms: C17_23  and  O7_30
REMARK    9  A    between atoms: C18_25  and  O6_29
REMARK   10  A    between atoms: O9_32  and  C20_33
REMARK   11  A    between atoms: C22_37  and  C23_39
REMARK   12  A    between atoms: C25_41  and  O15_47
REMARK   13  A    between atoms: C26_42  and  O14_46
REMARK   14  A    between atoms: C27_43  and  O13_45
REMARK                            x       y       z     vdW  Elec       q    Type
REMARK                         _______ _______ _______ _____ _____    ______ ____
ROOT
ATOM      3  C   UNL     1      48.075  13.093  18.321  0.00  0.00    +0.172 A 
ATOM      4  C   UNL     1      49.397  13.251  17.867  0.00  0.00    -0.146 A 
ATOM     19  C   UNL     1      50.047  14.487  17.933  0.00  0.00    +0.169 A 
ATOM     20  C   UNL     1      49.373  15.577  18.458  0.00  0.00    -0.138 A 
ATOM     21  C   UNL     1      48.043  15.408  18.907  0.00  0.00    -0.041 A 
ATOM     22  C   UNL     1      47.357  16.585  19.454  0.00  0.00    -0.109 A 
ATOM     23  C   UNL     1      47.939  17.846  19.348  0.00  0.00    +0.156 A 
ATOM     24  O   UNL     1      49.123  17.987  18.701  0.00  0.00    -0.259 OA
ATOM     25  C   UNL     1      47.254  18.929  19.890  0.00  0.00    +0.106 A 
ATOM     28  C   UNL     1      46.012  18.739  20.498  0.00  0.00    +0.151 A 
ATOM     42  C   UNL     1      45.422  17.487  20.569  0.00  0.00    +0.053 A 
ATOM     43  C   UNL     1      46.096  16.389  20.053  0.00  0.00    -0.093 A 
ATOM     44  C   UNL     1      45.595  15.005  20.107  0.00  0.00    +0.538 A 
ATOM     45  O   UNL     1      44.758  14.682  20.927  0.00  0.00    -0.409 OA
ATOM     46  O   UNL     1      46.084  14.098  19.226  0.00  0.00    -0.260 OA
ATOM     47  C   UNL     1      49.956  16.921  18.601  0.00  0.00    +0.539 A 
ATOM     48  O   UNL     1      51.161  17.074  18.630  0.00  0.00    -0.404 OA
ATOM     49  C   UNL     1      47.380  14.185  18.833  0.00  0.00    +0.108 A 
ENDROOT
BRANCH   3   2
ATOM      1  C   UNL     1      46.636  11.630  17.127  0.00  0.00    +0.255 C 
ATOM      2  O   UNL     1      47.475  11.878  18.256  0.00  0.00    -0.318 OA
ENDBRANCH   3   2
BRANCH   4   5
ATOM      5  C   UNL     1      50.113  12.087  17.311  0.00  0.00    +0.458 C 
ATOM     18  O   UNL     1      50.528  11.218  18.053  0.00  0.00    -0.417 OA
BRANCH   5   6
ATOM      6  C   UNL     1      50.328  11.980  15.856  0.00  0.00    -0.140 A 
ATOM      7  C   UNL     1      49.486  12.662  14.971  0.00  0.00    +0.063 A 
ATOM      8  C   UNL     1      49.689  12.559  13.608  0.00  0.00    +0.088 A 
ATOM     11  C   UNL     1      50.730  11.776  13.115  0.00  0.00    +0.096 A 
ATOM     14  C   UNL     1      51.570  11.096  13.994  0.00  0.00    +0.087 A 
ATOM     17  C   UNL     1      51.376  11.200  15.358  0.00  0.00    +0.077 A 
BRANCH   8   9
ATOM      9  O   UNL     1      48.872  13.222  12.747  0.00  0.00    -0.479 OA
ATOM     10  H   UNL     1      48.646  12.719  11.953  0.00  0.00    +0.393 HD
ENDBRANCH   8   9
BRANCH  11  12
ATOM     12  O   UNL     1      50.928  11.676  11.775  0.00  0.00    -0.473 OA
ATOM     13  H   UNL     1      51.622  12.257  11.435  0.00  0.00    +0.392 HD
ENDBRANCH  11  12
BRANCH  14  15
ATOM     15  O   UNL     1      52.586  10.332  13.509  0.00  0.00    -0.479 OA
ATOM     16  H   UNL     1      53.348  10.841  13.201  0.00  0.00    +0.393 HD
ENDBRANCH  14  15
ENDBRANCH   5   6
ENDBRANCH   4   5
BRANCH  25  26
ATOM     26  O   UNL     1      47.794  20.174  19.826  0.00  0.00    -0.307 OA
ATOM     27  C   UNL     1      48.652  20.565  20.900  0.00  0.00    +0.245 C 
ENDBRANCH  25  26
BRANCH  28  29
ATOM     29  O   UNL     1      45.356  19.811  21.015  0.00  0.00    -0.271 OA
BRANCH  29  30
ATOM     30  C   UNL     1      44.772  20.726  20.085  0.00  0.00    +0.306 C 
ATOM     31  C   UNL     1      43.246  20.626  20.161  0.00  0.00    +0.195 C 
ATOM     34  C   UNL     1      42.628  21.652  19.206  0.00  0.00    +0.201 C 
ATOM     37  C   UNL     1      43.138  23.048  19.574  0.00  0.00    +0.122 C 
ATOM     40  C   UNL     1      44.667  23.054  19.520  0.00  0.00    +0.227 C 
ATOM     41  O   UNL     1      45.178  22.058  20.408  0.00  0.00    -0.387 OA
BRANCH  31  32
ATOM     32  O   UNL     1      42.835  19.311  19.784  0.00  0.00    -0.538 OA
ATOM     33  H   UNL     1      42.465  19.255  18.891  0.00  0.00    +0.393 HD
ENDBRANCH  31  32
BRANCH  34  35
ATOM     35  O   UNL     1      41.203  21.615  19.323  0.00  0.00    -0.544 OA
ATOM     36  H   UNL     1      40.740  21.606  18.474  0.00  0.00    +0.392 HD
ENDBRANCH  34  35
BRANCH  37  38
ATOM     38  O   UNL     1      42.623  24.005  18.645  0.00  0.00    -0.554 OA
ATOM     39  H   UNL     1      43.203  24.765  18.500  0.00  0.00    +0.392 HD
ENDBRANCH  37  38
ENDBRANCH  29  30
ENDBRANCH  28  29
TORSDOF 12
ENDMDL
MODEL 7
REMARK VINA RESULT:      -6.4      1.342      2.267
REMARK  Name = ZINC95485930
REMARK  14 active torsions:
REMARK  status: ('A' for Active; 'I' for Inactive)
REMARK    1  A    between atoms: C1_1  and  O1_2
REMARK    2  A    between atoms: O1_2  and  C2_3
REMARK    3  A    between atoms: C3_4  and  C22_37
REMARK    4  A    between atoms: C12_15  and  O9_32
REMARK    5  A    between atoms: C13_16  and  O4_18
REMARK    6  A    between atoms: O4_18  and  C15_19
REMARK    7  A    between atoms: C16_21  and  O8_31
REMARK    8  A    between atoms: C17_23  and  O7_30
REMARK    9  A    between atoms: C18_25  and  O6_29
REMARK   10  A    between atoms: O9_32  and  C20_33
REMARK   11  A    between atoms: C22_37  and  C23_39
REMARK   12  A    between atoms: C25_41  and  O15_47
REMARK   13  A    between atoms: C26_42  and  O14_46
REMARK   14  A    between atoms: C27_43  and  O13_45
REMARK                            x       y       z     vdW  Elec       q    Type
REMARK                         _______ _______ _______ _____ _____    ______ ____
ROOT
ATOM      3  C   UNL     1      48.232  19.114  19.053  0.00  0.00    +0.172 A 
ATOM      4  C   UNL     1      47.180  19.117  19.987  0.00  0.00    -0.146 A 
ATOM     19  C   UNL     1      46.538  17.933  20.365  0.00  0.00    +0.169 A 
ATOM     20  C   UNL     1      46.952  16.735  19.808  0.00  0.00    -0.138 A 
ATOM     21  C   UNL     1      48.007  16.745  18.866  0.00  0.00    -0.041 A 
ATOM     22  C   UNL     1      48.415  15.457  18.292  0.00  0.00    -0.109 A 
ATOM     23  C   UNL     1      47.657  14.312  18.530  0.00  0.00    +0.156 A 
ATOM     24  O   UNL     1      46.518  14.401  19.262  0.00  0.00    -0.259 OA
ATOM     25  C   UNL     1      48.091  13.114  17.971  0.00  0.00    +0.106 A 
ATOM     28  C   UNL     1      49.241  13.085  17.181  0.00  0.00    +0.151 A 
ATOM     42  C   UNL     1      49.971  14.234  16.919  0.00  0.00    +0.053 A 
ATOM     43  C   UNL     1      49.569  15.437  17.482  0.00  0.00    -0.093 A 
ATOM     44  C   UNL     1      50.283  16.714  17.314  0.00  0.00    +0.538 A 
ATOM     45  O   UNL     1      51.457  16.728  16.998  0.00  0.00    -0.409 OA
ATOM     46  O   UNL     1      49.610  17.872  17.520  0.00  0.00    -0.260 OA
ATOM     47  C   UNL     1      46.373  15.423  20.141  0.00  0.00    +0.539 A 
ATOM     48  O   UNL     1      45.775  15.258  21.186  0.00  0.00    -0.404 OA
ATOM     49  C   UNL     1      48.642  17.919  18.470  0.00  0.00    +0.108 A 
ENDROOT
BRANCH   3   2
ATOM      1  C   UNL     1      50.122  20.530  19.298  0.00  0.00    +0.255 C 
ATOM      2  O   UNL     1      48.842  20.277  18.715  0.00  0.00    -0.318 OA
ENDBRANCH   3   2
BRANCH   4   5
ATOM      5  C   UNL     1      46.745  20.395  20.581  0.00  0.00    +0.458 C 
ATOM     18  O   UNL     1      47.412  20.918  21.453  0.00  0.00    -0.417 OA
BRANCH   5   6
ATOM      6  C   UNL     1      45.500  21.038  20.119  0.00  0.00    -0.140 A 
ATOM      7  C   UNL     1      45.428  22.431  20.016  0.00  0.00    +0.063 A 
ATOM      8  C   UNL     1      44.260  23.030  19.584  0.00  0.00    +0.088 A 
ATOM     11  C   UNL     1      43.156  22.249  19.252  0.00  0.00    +0.096 A 
ATOM     14  C   UNL     1      43.226  20.861  19.354  0.00  0.00    +0.087 A 
ATOM     17  C   UNL     1      44.392  20.256  19.780  0.00  0.00    +0.077 A 
BRANCH   8   9
ATOM      9  O   UNL     1      44.189  24.385  19.482  0.00  0.00    -0.479 OA
ATOM     10  H   UNL     1      43.327  24.713  19.193  0.00  0.00    +0.393 HD
ENDBRANCH   8   9
BRANCH  11  12
ATOM     12  O   UNL     1      42.009  22.841  18.828  0.00  0.00    -0.473 OA
ATOM     13  H   UNL     1      41.632  22.444  18.031  0.00  0.00    +0.392 HD
ENDBRANCH  11  12
BRANCH  14  15
ATOM     15  O   UNL     1      42.144  20.102  19.029  0.00  0.00    -0.479 OA
ATOM     16  H   UNL     1      42.227  19.172  19.281  0.00  0.00    +0.393 HD
ENDBRANCH  14  15
ENDBRANCH   5   6
ENDBRANCH   4   5
BRANCH  25  26
ATOM     26  O   UNL     1      47.393  11.969  18.195  0.00  0.00    -0.307 OA
ATOM     27  C   UNL     1      46.352  11.654  17.269  0.00  0.00    +0.245 C 
ENDBRANCH  25  26
BRANCH  28  29
ATOM     29  O   UNL     1      49.644  11.906  16.639  0.00  0.00    -0.271 OA
BRANCH  29  30
ATOM     30  C   UNL     1      50.296  11.964  15.369  0.00  0.00    +0.306 C 
ATOM     31  C   UNL     1      49.361  12.611  14.344  0.00  0.00    +0.195 C 
ATOM     34  C   UNL     1      50.090  12.725  13.002  0.00  0.00    +0.201 C 
ATOM     37  C   UNL     1      51.379  13.526  13.199  0.00  0.00    +0.122 C 
ATOM     40  C   UNL     1      52.236  12.844  14.268  0.00  0.00    +0.227 C 
ATOM     41  O   UNL     1      51.489  12.742  15.482  0.00  0.00    -0.387 OA
BRANCH  31  32
ATOM     32  O   UNL     1      48.193  11.804  14.189  0.00  0.00    -0.538 OA
ATOM     33  H   UNL     1      47.860  11.765  13.281  0.00  0.00    +0.393 HD
ENDBRANCH  31  32
BRANCH  34  35
ATOM     35  O   UNL     1      49.249  13.393  12.058  0.00  0.00    -0.544 OA
ATOM     36  H   UNL     1      48.529  12.844  11.716  0.00  0.00    +0.392 HD
ENDBRANCH  34  35
BRANCH  37  38
ATOM     38  O   UNL     1      52.103  13.579  11.967  0.00  0.00    -0.554 OA
ATOM     39  H   UNL     1      53.040  13.354  12.051  0.00  0.00    +0.392 HD
ENDBRANCH  37  38
ENDBRANCH  29  30
ENDBRANCH  28  29
TORSDOF 12
ENDMDL
MODEL 8
REMARK VINA RESULT:      -6.3      1.909     10.153
REMARK  Name = ZINC95485930
REMARK  14 active torsions:
REMARK  status: ('A' for Active; 'I' for Inactive)
REMARK    1  A    between atoms: C1_1  and  O1_2
REMARK    2  A    between atoms: O1_2  and  C2_3
REMARK    3  A    between atoms: C3_4  and  C22_37
REMARK    4  A    between atoms: C12_15  and  O9_32
REMARK    5  A    between atoms: C13_16  and  O4_18
REMARK    6  A    between atoms: O4_18  and  C15_19
REMARK    7  A    between atoms: C16_21  and  O8_31
REMARK    8  A    between atoms: C17_23  and  O7_30
REMARK    9  A    between atoms: C18_25  and  O6_29
REMARK   10  A    between atoms: O9_32  and  C20_33
REMARK   11  A    between atoms: C22_37  and  C23_39
REMARK   12  A    between atoms: C25_41  and  O15_47
REMARK   13  A    between atoms: C26_42  and  O14_46
REMARK   14  A    between atoms: C27_43  and  O13_45
REMARK                            x       y       z     vdW  Elec       q    Type
REMARK                         _______ _______ _______ _____ _____    ______ ____
ROOT
ATOM      3  C   UNL     1      49.478  13.982  18.126  0.00  0.00    +0.172 A 
ATOM      4  C   UNL     1      48.749  12.783  18.026  0.00  0.00    -0.146 A 
ATOM     19  C   UNL     1      47.463  12.666  18.565  0.00  0.00    +0.169 A 
ATOM     20  C   UNL     1      46.899  13.755  19.208  0.00  0.00    -0.138 A 
ATOM     21  C   UNL     1      47.644  14.953  19.307  0.00  0.00    -0.041 A 
ATOM     22  C   UNL     1      47.017  16.085  19.999  0.00  0.00    -0.109 A 
ATOM     23  C   UNL     1      45.820  15.908  20.690  0.00  0.00    +0.156 A 
ATOM     24  O   UNL     1      45.258  14.675  20.755  0.00  0.00    -0.259 OA
ATOM     25  C   UNL     1      45.262  17.014  21.323  0.00  0.00    +0.106 A 
ATOM     28  C   UNL     1      45.907  18.250  21.272  0.00  0.00    +0.151 A 
ATOM     42  C   UNL     1      47.116  18.413  20.613  0.00  0.00    +0.053 A 
ATOM     43  C   UNL     1      47.682  17.328  19.957  0.00  0.00    -0.093 A 
ATOM     44  C   UNL     1      48.936  17.383  19.188  0.00  0.00    +0.538 A 
ATOM     45  O   UNL     1      49.352  18.442  18.760  0.00  0.00    -0.409 OA
ATOM     46  O   UNL     1      49.617  16.234  18.964  0.00  0.00    -0.260 OA
ATOM     47  C   UNL     1      45.549  13.763  19.794  0.00  0.00    +0.539 A 
ATOM     48  O   UNL     1      44.709  12.966  19.425  0.00  0.00    -0.404 OA
ATOM     49  C   UNL     1      48.930  15.076  18.788  0.00  0.00    +0.108 A 
ENDROOT
BRANCH   3   2
ATOM      1  C   UNL     1      51.826  13.853  18.458  0.00  0.00    +0.255 C 
ATOM      2  O   UNL     1      50.718  14.069  17.583  0.00  0.00    -0.318 OA
ENDBRANCH   3   2
BRANCH   4   5
ATOM      5  C   UNL     1      49.351  11.626  17.338  0.00  0.00    +0.458 C 
ATOM     18  O   UNL     1      49.483  10.570  17.926  0.00  0.00    -0.417 OA
BRANCH   5   6
ATOM      6  C   UNL     1      49.795  11.751  15.936  0.00  0.00    -0.140 A 
ATOM      7  C   UNL     1      49.000  12.431  15.008  0.00  0.00    +0.063 A 
ATOM      8  C   UNL     1      49.418  12.545  13.695  0.00  0.00    +0.088 A 
ATOM     11  C   UNL     1      50.628  11.983  13.297  0.00  0.00    +0.096 A 
ATOM     14  C   UNL     1      51.421  11.304  14.220  0.00  0.00    +0.087 A 
ATOM     17  C   UNL     1      51.012  11.192  15.534  0.00  0.00    +0.077 A 
BRANCH   8   9
ATOM      9  O   UNL     1      48.646  13.207  12.792  0.00  0.00    -0.479 OA
ATOM     10  H   UNL     1      47.700  13.023  12.872  0.00  0.00    +0.393 HD
ENDBRANCH   8   9
BRANCH  11  12
ATOM     12  O   UNL     1      51.036  12.095  12.006  0.00  0.00    -0.473 OA
ATOM     13  H   UNL     1      50.461  12.648  11.459  0.00  0.00    +0.392 HD
ENDBRANCH  11  12
BRANCH  14  15
ATOM     15  O   UNL     1      52.602  10.756  13.826  0.00  0.00    -0.479 OA
ATOM     16  H   UNL     1      52.691  10.658  12.868  0.00  0.00    +0.393 HD
ENDBRANCH  14  15
ENDBRANCH   5   6
ENDBRANCH   4   5
BRANCH  25  26
ATOM     26  O   UNL     1      44.085  16.891  21.992  0.00  0.00    -0.307 OA
ATOM     27  C   UNL     1      42.937  17.504  21.403  0.00  0.00    +0.245 C 
ENDBRANCH  25  26
BRANCH  28  29
ATOM     29  O   UNL     1      45.348  19.317  21.902  0.00  0.00    -0.271 OA
BRANCH  29  30
ATOM     30  C   UNL     1      45.593  20.607  21.338  0.00  0.00    +0.306 C 
ATOM     31  C   UNL     1      44.262  21.258  20.954  0.00  0.00    +0.195 C 
ATOM     34  C   UNL     1      44.530  22.663  20.407  0.00  0.00    +0.201 C 
ATOM     37  C   UNL     1      45.291  23.473  21.460  0.00  0.00    +0.122 C 
ATOM     40  C   UNL     1      46.582  22.737  21.825  0.00  0.00    +0.227 C 
ATOM     41  O   UNL     1      46.264  21.426  22.297  0.00  0.00    -0.387 OA
BRANCH  31  32
ATOM     32  O   UNL     1      43.616  20.469  19.954  0.00  0.00    -0.538 OA
ATOM     33  H   UNL     1      43.193  19.669  20.295  0.00  0.00    +0.393 HD
ENDBRANCH  31  32
BRANCH  34  35
ATOM     35  O   UNL     1      43.287  23.306  20.112  0.00  0.00    -0.544 OA
ATOM     36  H   UNL     1      42.626  22.719  19.720  0.00  0.00    +0.392 HD
ENDBRANCH  34  35
BRANCH  37  38
ATOM     38  O   UNL     1      45.608  24.764  20.934  0.00  0.00    -0.554 OA
ATOM     39  H   UNL     1      46.335  25.208  21.392  0.00  0.00    +0.392 HD
ENDBRANCH  37  38
ENDBRANCH  29  30
ENDBRANCH  28  29
TORSDOF 12
ENDMDL
MODEL 9
REMARK VINA RESULT:      -5.6      2.238     10.224
REMARK  Name = ZINC95485930
REMARK  14 active torsions:
REMARK  status: ('A' for Active; 'I' for Inactive)
REMARK    1  A    between atoms: C1_1  and  O1_2
REMARK    2  A    between atoms: O1_2  and  C2_3
REMARK    3  A    between atoms: C3_4  and  C22_37
REMARK    4  A    between atoms: C12_15  and  O9_32
REMARK    5  A    between atoms: C13_16  and  O4_18
REMARK    6  A    between atoms: O4_18  and  C15_19
REMARK    7  A    between atoms: C16_21  and  O8_31
REMARK    8  A    between atoms: C17_23  and  O7_30
REMARK    9  A    between atoms: C18_25  and  O6_29
REMARK   10  A    between atoms: O9_32  and  C20_33
REMARK   11  A    between atoms: C22_37  and  C23_39
REMARK   12  A    between atoms: C25_41  and  O15_47
REMARK   13  A    between atoms: C26_42  and  O14_46
REMARK   14  A    between atoms: C27_43  and  O13_45
REMARK                            x       y       z     vdW  Elec       q    Type
REMARK                         _______ _______ _______ _____ _____    ______ ____
ROOT
ATOM      3  C   UNL     1      51.245  15.920  19.024  0.00  0.00    +0.172 A 
ATOM      4  C   UNL     1      50.938  14.560  19.216  0.00  0.00    -0.146 A 
ATOM     19  C   UNL     1      49.717  14.161  19.770  0.00  0.00    +0.169 A 
ATOM     20  C   UNL     1      48.793  15.126  20.132  0.00  0.00    -0.138 A 
ATOM     21  C   UNL     1      49.114  16.489  19.939  0.00  0.00    -0.041 A 
ATOM     22  C   UNL     1      48.113  17.485  20.339  0.00  0.00    -0.109 A 
ATOM     23  C   UNL     1      46.983  17.094  21.054  0.00  0.00    +0.156 A 
ATOM     24  O   UNL     1      46.833  15.795  21.414  0.00  0.00    -0.259 OA
ATOM     25  C   UNL     1      46.059  18.075  21.402  0.00  0.00    +0.106 A 
ATOM     28  C   UNL     1      46.287  19.407  21.055  0.00  0.00    +0.151 A 
ATOM     42  C   UNL     1      47.430  19.795  20.374  0.00  0.00    +0.053 A 
ATOM     43  C   UNL     1      48.356  18.832  19.998  0.00  0.00    -0.093 A 
ATOM     44  C   UNL     1      49.585  19.112  19.236  0.00  0.00    +0.538 A 
ATOM     45  O   UNL     1      49.679  20.121  18.566  0.00  0.00    -0.409 OA
ATOM     46  O   UNL     1      50.607  18.224  19.295  0.00  0.00    -0.260 OA
ATOM     47  C   UNL     1      47.467  14.831  20.701  0.00  0.00    +0.539 A 
ATOM     48  O   UNL     1      46.950  13.744  20.535  0.00  0.00    -0.404 OA
ATOM     49  C   UNL     1      50.333  16.899  19.404  0.00  0.00    +0.108 A 
ENDROOT
BRANCH   3   2
ATOM      1  C   UNL     1      53.476  16.653  19.374  0.00  0.00    +0.255 C 
ATOM      2  O   UNL     1      52.433  16.275  18.474  0.00  0.00    -0.318 OA
ENDBRANCH   3   2
BRANCH   4   5
ATOM      5  C   UNL     1      51.923  13.535  18.826  0.00  0.00    +0.458 C 
ATOM     18  O   UNL     1      52.796  13.202  19.605  0.00  0.00    -0.417 OA
BRANCH   5   6
ATOM      6  C   UNL     1      51.852  12.913  17.490  0.00  0.00    -0.140 A 
ATOM      7  C   UNL     1      50.912  13.365  16.557  0.00  0.00    +0.063 A 
ATOM      8  C   UNL     1      50.847  12.781  15.306  0.00  0.00    +0.088 A 
ATOM     11  C   UNL     1      51.714  11.743  14.975  0.00  0.00    +0.096 A 
ATOM     14  C   UNL     1      52.650  11.291  15.903  0.00  0.00    +0.087 A 
ATOM     17  C   UNL     1      52.725  11.875  17.152  0.00  0.00    +0.077 A 
BRANCH   8   9
ATOM      9  O   UNL     1      49.934  13.220  14.398  0.00  0.00    -0.479 OA
ATOM     10  H   UNL     1      50.221  13.994  13.895  0.00  0.00    +0.393 HD
ENDBRANCH   8   9
BRANCH  11  12
ATOM     12  O   UNL     1      51.647  11.170  13.745  0.00  0.00    -0.473 OA
ATOM     13  H   UNL     1      52.347  11.452  13.141  0.00  0.00    +0.392 HD
ENDBRANCH  11  12
BRANCH  14  15
ATOM     15  O   UNL     1      53.496  10.277  15.575  0.00  0.00    -0.479 OA
ATOM     16  H   UNL     1      53.255   9.811  14.762  0.00  0.00    +0.393 HD
ENDBRANCH  14  15
ENDBRANCH   5   6
ENDBRANCH   4   5
BRANCH  25  26
ATOM     26  O   UNL     1      44.933  17.734  22.083  0.00  0.00    -0.307 OA
ATOM     27  C   UNL     1      44.116  16.710  21.514  0.00  0.00    +0.245 C 
ENDBRANCH  25  26
BRANCH  28  29
ATOM     29  O   UNL     1      45.375  20.350  21.410  0.00  0.00    -0.271 OA
BRANCH  29  30
ATOM     30  C   UNL     1      44.749  21.079  20.353  0.00  0.00    +0.306 C 
ATOM     31  C   UNL     1      43.248  20.776  20.342  0.00  0.00    +0.195 C 
ATOM     34  C   UNL     1      42.576  21.608  19.245  0.00  0.00    +0.201 C 
ATOM     37  C   UNL     1      42.867  23.090  19.493  0.00  0.00    +0.122 C 
ATOM     40  C   UNL     1      44.382  23.304  19.537  0.00  0.00    +0.227 C 
ATOM     41  O   UNL     1      44.949  22.479  20.556  0.00  0.00    -0.387 OA
BRANCH  31  32
ATOM     32  O   UNL     1      43.044  19.386  20.082  0.00  0.00    -0.538 OA
ATOM     33  H   UNL     1      42.760  18.878  20.855  0.00  0.00    +0.393 HD
ENDBRANCH  31  32
BRANCH  34  35
ATOM     35  O   UNL     1      41.164  21.384  19.275  0.00  0.00    -0.544 OA
ATOM     36  H   UNL     1      40.816  20.967  18.474  0.00  0.00    +0.392 HD
ENDBRANCH  34  35
BRANCH  37  38
ATOM     38  O   UNL     1      42.304  23.871  18.436  0.00  0.00    -0.554 OA
ATOM     39  H   UNL     1      41.452  23.544  18.116  0.00  0.00    +0.392 HD
ENDBRANCH  37  38
ENDBRANCH  29  30
ENDBRANCH  28  29
TORSDOF 12
ENDMDL
