MODEL 1
REMARK VINA RESULT:      -7.7      0.000      0.000
REMARK  Name = ZINC95485933
REMARK  6 active torsions:
REMARK  status: ('A' for Active; 'I' for Inactive)
REMARK    1  A    between atoms: C1_1  and  C2_2
REMARK    2  A    between atoms: C2_2  and  C4_4
REMARK    3  A    between atoms: C13_17  and  C30_40
REMARK    4  A    between atoms: C18_24  and  C28_38
REMARK    5  A    between atoms: C18_24  and  C29_39
REMARK    6  A    between atoms: C25_35  and  C27_37
REMARK                            x       y       z     vdW  Elec       q    Type
REMARK                         _______ _______ _______ _____ _____    ______ ____
ROOT
ATOM      3  C   UNL     1      42.956  21.443  19.950  0.00  0.00    +0.018 C 
ATOM      4  C   UNL     1      42.716  20.483  18.757  0.00  0.00    +0.053 C 
ATOM      5  C   UNL     1      43.067  19.095  19.344  0.00  0.00    -0.048 C 
ATOM      6  C   UNL     1      42.657  18.811  20.789  0.00  0.00    +0.029 C 
ATOM      7  C   UNL     1      44.062  19.352  20.481  0.00  0.00    -0.123 C 
ATOM      8  C   UNL     1      45.248  18.447  20.770  0.00  0.00    +0.065 C 
ATOM      9  C   UNL     1      46.555  19.261  20.730  0.00  0.00    -0.004 C 
ATOM     10  C   UNL     1      46.694  19.985  22.068  0.00  0.00    +0.027 C 
ATOM     11  C   UNL     1      47.714  18.253  20.559  0.00  0.00    -0.007 C 
ATOM     12  C   UNL     1      48.084  17.942  19.104  0.00  0.00    -0.004 C 
ATOM     13  C   UNL     1      49.000  18.807  19.986  0.00  0.00    -0.099 C 
ATOM     14  C   UNL     1      50.367  18.171  20.279  0.00  0.00    +0.062 C 
ATOM     15  C   UNL     1      51.105  18.124  18.946  0.00  0.00    +0.152 C 
ATOM     16  O   UNL     1      52.494  18.431  19.037  0.00  0.00    -0.371 OA
ATOM     17  C   UNL     1      52.845  19.391  18.005  0.00  0.00    +0.192 C 
ATOM     18  C   UNL     1      51.688  19.307  16.978  0.00  0.00    -0.096 C 
ATOM     19  C   UNL     1      51.838  18.048  16.103  0.00  0.00    +0.031 C 
ATOM     20  C   UNL     1      51.573  20.539  16.084  0.00  0.00    +0.045 C 
ATOM     21  C   UNL     1      52.789  20.776  18.663  0.00  0.00    -0.009 C 
ATOM     22  C   UNL     1      51.502  20.887  19.482  0.00  0.00    +0.024 C 
ATOM     23  C   UNL     1      50.265  20.480  18.687  0.00  0.00    +0.011 C 
ATOM     24  C   UNL     1      50.492  19.149  17.960  0.00  0.00    +0.004 C 
ATOM     25  C   UNL     1      49.075  20.300  19.661  0.00  0.00    -0.009 C 
ATOM     26  C   UNL     1      49.343  21.125  20.921  0.00  0.00    +0.028 C 
ATOM     27  C   UNL     1      47.790  20.778  19.019  0.00  0.00    +0.018 C 
ATOM     28  C   UNL     1      46.501  20.200  19.554  0.00  0.00    -0.014 C 
ATOM     29  C   UNL     1      45.453  21.299  19.711  0.00  0.00    +0.027 C 
ATOM     30  C   UNL     1      44.267  20.879  20.563  0.00  0.00    +0.043 C 
ENDROOT
BRANCH   3   2
ATOM      1  C   UNL     1      44.266  23.697  19.975  0.00  0.00    +0.071 C 
ATOM      2  C   UNL     1      43.096  22.872  19.506  0.00  0.00    -0.107 C 
ATOM     31  C   UNL     1      42.200  23.400  18.708  0.00  0.00    -0.009 C 
ENDBRANCH   3   2
TORSDOF 1
ENDMDL
MODEL 2
REMARK VINA RESULT:      -7.3      2.140      7.659
REMARK  Name = ZINC95485933
REMARK  6 active torsions:
REMARK  status: ('A' for Active; 'I' for Inactive)
REMARK    1  A    between atoms: C1_1  and  C2_2
REMARK    2  A    between atoms: C2_2  and  C4_4
REMARK    3  A    between atoms: C13_17  and  C30_40
REMARK    4  A    between atoms: C18_24  and  C28_38
REMARK    5  A    between atoms: C18_24  and  C29_39
REMARK    6  A    between atoms: C25_35  and  C27_37
REMARK                            x       y       z     vdW  Elec       q    Type
REMARK                         _______ _______ _______ _____ _____    ______ ____
ROOT
ATOM      3  C   UNL     1      52.300  19.132  17.939  0.00  0.00    +0.018 C 
ATOM      4  C   UNL     1      52.011  20.541  17.361  0.00  0.00    +0.053 C 
ATOM      5  C   UNL     1      51.899  21.425  18.625  0.00  0.00    -0.048 C 
ATOM      6  C   UNL     1      52.856  21.135  19.782  0.00  0.00    +0.029 C 
ATOM      7  C   UNL     1      51.460  20.493  19.760  0.00  0.00    -0.123 C 
ATOM      8  C   UNL     1      50.474  20.904  20.841  0.00  0.00    +0.065 C 
ATOM      9  C   UNL     1      49.283  19.928  20.869  0.00  0.00    -0.004 C 
ATOM     10  C   UNL     1      49.718  18.684  21.641  0.00  0.00    +0.027 C 
ATOM     11  C   UNL     1      48.132  20.635  21.621  0.00  0.00    -0.007 C 
ATOM     12  C   UNL     1      47.195  21.458  20.730  0.00  0.00    -0.004 C 
ATOM     13  C   UNL     1      46.738  20.121  21.337  0.00  0.00    -0.099 C 
ATOM     14  C   UNL     1      45.594  20.257  22.355  0.00  0.00    +0.062 C 
ATOM     15  C   UNL     1      44.376  20.717  21.562  0.00  0.00    +0.152 C 
ATOM     16  O   UNL     1      43.153  20.110  21.968  0.00  0.00    -0.371 OA
ATOM     17  C   UNL     1      42.433  19.642  20.796  0.00  0.00    +0.192 C 
ATOM     18  C   UNL     1      43.069  20.410  19.610  0.00  0.00    -0.096 C 
ATOM     19  C   UNL     1      42.547  21.859  19.569  0.00  0.00    +0.031 C 
ATOM     20  C   UNL     1      42.837  19.745  18.256  0.00  0.00    +0.045 C 
ATOM     21  C   UNL     1      42.783  18.157  20.635  0.00  0.00    -0.009 C 
ATOM     22  C   UNL     1      44.295  17.982  20.794  0.00  0.00    +0.024 C 
ATOM     23  C   UNL     1      45.091  18.949  19.923  0.00  0.00    +0.011 C 
ATOM     24  C   UNL     1      44.558  20.380  20.062  0.00  0.00    +0.004 C 
ATOM     25  C   UNL     1      46.570  18.940  20.381  0.00  0.00    -0.009 C 
ATOM     26  C   UNL     1      46.858  17.614  21.087  0.00  0.00    +0.028 C 
ATOM     27  C   UNL     1      47.493  19.077  19.188  0.00  0.00    +0.018 C 
ATOM     28  C   UNL     1      48.874  19.628  19.451  0.00  0.00    -0.014 C 
ATOM     29  C   UNL     1      49.920  18.824  18.682  0.00  0.00    +0.027 C 
ATOM     30  C   UNL     1      51.341  19.077  19.158  0.00  0.00    +0.043 C 
ENDROOT
BRANCH   3   2
ATOM      1  C   UNL     1      52.050  16.601  17.368  0.00  0.00    +0.071 C 
ATOM      2  C   UNL     1      52.024  18.045  16.939  0.00  0.00    -0.107 C 
ATOM     31  C   UNL     1      51.760  18.353  15.693  0.00  0.00    -0.009 C 
ENDBRANCH   3   2
TORSDOF 1
ENDMDL
MODEL 3
REMARK VINA RESULT:      -7.0      4.274      6.967
REMARK  Name = ZINC95485933
REMARK  6 active torsions:
REMARK  status: ('A' for Active; 'I' for Inactive)
REMARK    1  A    between atoms: C1_1  and  C2_2
REMARK    2  A    between atoms: C2_2  and  C4_4
REMARK    3  A    between atoms: C13_17  and  C30_40
REMARK    4  A    between atoms: C18_24  and  C28_38
REMARK    5  A    between atoms: C18_24  and  C29_39
REMARK    6  A    between atoms: C25_35  and  C27_37
REMARK                            x       y       z     vdW  Elec       q    Type
REMARK                         _______ _______ _______ _____ _____    ______ ____
ROOT
ATOM      3  C   UNL     1      50.469  20.539  19.123  0.00  0.00    +0.018 C 
ATOM      4  C   UNL     1      49.130  20.785  18.381  0.00  0.00    +0.053 C 
ATOM      5  C   UNL     1      48.103  20.013  19.241  0.00  0.00    -0.048 C 
ATOM      6  C   UNL     1      48.279  20.048  20.760  0.00  0.00    +0.029 C 
ATOM      7  C   UNL     1      48.885  18.897  19.942  0.00  0.00    -0.123 C 
ATOM      8  C   UNL     1      48.327  17.501  20.163  0.00  0.00    +0.065 C 
ATOM      9  C   UNL     1      49.265  16.452  19.535  0.00  0.00    -0.004 C 
ATOM     10  C   UNL     1      50.420  16.219  20.507  0.00  0.00    +0.027 C 
ATOM     11  C   UNL     1      48.448  15.150  19.373  0.00  0.00    -0.007 C 
ATOM     12  C   UNL     1      47.712  15.019  18.035  0.00  0.00    -0.004 C 
ATOM     13  C   UNL     1      48.957  14.170  18.340  0.00  0.00    -0.099 C 
ATOM     14  C   UNL     1      48.677  12.662  18.435  0.00  0.00    +0.062 C 
ATOM     15  C   UNL     1      48.284  12.215  17.032  0.00  0.00    +0.152 C 
ATOM     16  O   UNL     1      48.809  10.946  16.654  0.00  0.00    -0.371 OA
ATOM     17  C   UNL     1      49.394  11.040  15.328  0.00  0.00    +0.192 C 
ATOM     18  C   UNL     1      48.784  12.328  14.719  0.00  0.00    -0.096 C 
ATOM     19  C   UNL     1      47.338  12.070  14.255  0.00  0.00    +0.031 C 
ATOM     20  C   UNL     1      49.598  12.901  13.562  0.00  0.00    +0.045 C 
ATOM     21  C   UNL     1      50.895  11.281  15.530  0.00  0.00    -0.009 C 
ATOM     22  C   UNL     1      51.086  12.368  16.590  0.00  0.00    +0.024 C 
ATOM     23  C   UNL     1      50.247  13.611  16.312  0.00  0.00    +0.011 C 
ATOM     24  C   UNL     1      48.797  13.234  15.985  0.00  0.00    +0.004 C 
ATOM     25  C   UNL     1      50.238  14.507  17.575  0.00  0.00    -0.009 C 
ATOM     26  C   UNL     1      51.479  14.190  18.411  0.00  0.00    +0.028 C 
ATOM     27  C   UNL     1      50.263  15.971  17.185  0.00  0.00    +0.018 C 
ATOM     28  C   UNL     1      49.718  16.956  18.191  0.00  0.00    -0.014 C 
ATOM     29  C   UNL     1      50.631  18.177  18.283  0.00  0.00    +0.027 C 
ATOM     30  C   UNL     1      50.358  19.038  19.505  0.00  0.00    +0.043 C 
ENDROOT
BRANCH   3   2
ATOM      1  C   UNL     1      51.464  21.152  16.792  0.00  0.00    +0.071 C 
ATOM      2  C   UNL     1      51.659  20.825  18.250  0.00  0.00    -0.107 C 
ATOM     31  C   UNL     1      52.866  20.792  18.758  0.00  0.00    -0.009 C 
ENDBRANCH   3   2
TORSDOF 1
ENDMDL
MODEL 4
REMARK VINA RESULT:      -7.0      4.195      6.790
REMARK  Name = ZINC95485933
REMARK  6 active torsions:
REMARK  status: ('A' for Active; 'I' for Inactive)
REMARK    1  A    between atoms: C1_1  and  C2_2
REMARK    2  A    between atoms: C2_2  and  C4_4
REMARK    3  A    between atoms: C13_17  and  C30_40
REMARK    4  A    between atoms: C18_24  and  C28_38
REMARK    5  A    between atoms: C18_24  and  C29_39
REMARK    6  A    between atoms: C25_35  and  C27_37
REMARK                            x       y       z     vdW  Elec       q    Type
REMARK                         _______ _______ _______ _____ _____    ______ ____
ROOT
ATOM      3  C   UNL     1      50.125  20.412  20.063  0.00  0.00    +0.018 C 
ATOM      4  C   UNL     1      49.619  20.989  18.716  0.00  0.00    +0.053 C 
ATOM      5  C   UNL     1      48.099  20.700  18.757  0.00  0.00    -0.048 C 
ATOM      6  C   UNL     1      47.383  20.855  20.098  0.00  0.00    +0.029 C 
ATOM      7  C   UNL     1      47.921  19.481  19.670  0.00  0.00    -0.123 C 
ATOM      8  C   UNL     1      46.912  18.378  19.399  0.00  0.00    +0.065 C 
ATOM      9  C   UNL     1      47.627  17.016  19.324  0.00  0.00    -0.004 C 
ATOM     10  C   UNL     1      47.869  16.537  20.754  0.00  0.00    +0.027 C 
ATOM     11  C   UNL     1      46.671  16.039  18.602  0.00  0.00    -0.007 C 
ATOM     12  C   UNL     1      46.831  15.996  17.078  0.00  0.00    -0.004 C 
ATOM     13  C   UNL     1      47.315  14.831  17.958  0.00  0.00    -0.099 C 
ATOM     14  C   UNL     1      46.548  13.519  17.733  0.00  0.00    +0.062 C 
ATOM     15  C   UNL     1      46.900  13.061  16.323  0.00  0.00    +0.152 C 
ATOM     16  O   UNL     1      47.089  11.654  16.195  0.00  0.00    -0.371 OA
ATOM     17  C   UNL     1      48.313  11.396  15.457  0.00  0.00    +0.192 C 
ATOM     18  C   UNL     1      48.626  12.730  14.734  0.00  0.00    -0.096 C 
ATOM     19  C   UNL     1      47.714  12.901  13.505  0.00  0.00    +0.031 C 
ATOM     20  C   UNL     1      50.086  12.867  14.310  0.00  0.00    +0.045 C 
ATOM     21  C   UNL     1      49.410  11.159  16.503  0.00  0.00    -0.009 C 
ATOM     22  C   UNL     1      49.314  12.243  17.579  0.00  0.00    +0.024 C 
ATOM     23  C   UNL     1      49.251  13.649  16.989  0.00  0.00    +0.011 C 
ATOM     24  C   UNL     1      48.219  13.726  15.859  0.00  0.00    +0.004 C 
ATOM     25  C   UNL     1      48.826  14.642  18.098  0.00  0.00    -0.009 C 
ATOM     26  C   UNL     1      49.182  14.041  19.459  0.00  0.00    +0.028 C 
ATOM     27  C   UNL     1      49.552  15.961  17.933  0.00  0.00    +0.018 C 
ATOM     28  C   UNL     1      48.898  17.182  18.535  0.00  0.00    -0.014 C 
ATOM     29  C   UNL     1      49.939  18.042  19.248  0.00  0.00    +0.027 C 
ATOM     30  C   UNL     1      49.327  19.084  20.169  0.00  0.00    +0.043 C 
ENDROOT
BRANCH   3   2
ATOM      1  C   UNL     1      52.411  20.462  18.810  0.00  0.00    +0.071 C 
ATOM      2  C   UNL     1      51.612  20.191  20.058  0.00  0.00    -0.107 C 
ATOM     31  C   UNL     1      52.214  19.764  21.141  0.00  0.00    -0.009 C 
ENDBRANCH   3   2
TORSDOF 1
ENDMDL
MODEL 5
REMARK VINA RESULT:      -6.9      4.271      6.109
REMARK  Name = ZINC95485933
REMARK  6 active torsions:
REMARK  status: ('A' for Active; 'I' for Inactive)
REMARK    1  A    between atoms: C1_1  and  C2_2
REMARK    2  A    between atoms: C2_2  and  C4_4
REMARK    3  A    between atoms: C13_17  and  C30_40
REMARK    4  A    between atoms: C18_24  and  C28_38
REMARK    5  A    between atoms: C18_24  and  C29_39
REMARK    6  A    between atoms: C25_35  and  C27_37
REMARK                            x       y       z     vdW  Elec       q    Type
REMARK                         _______ _______ _______ _____ _____    ______ ____
ROOT
ATOM      3  C   UNL     1      47.211  19.579  19.865  0.00  0.00    +0.018 C 
ATOM      4  C   UNL     1      46.604  19.864  18.467  0.00  0.00    +0.053 C 
ATOM      5  C   UNL     1      45.524  18.766  18.320  0.00  0.00    -0.048 C 
ATOM      6  C   UNL     1      44.716  18.395  19.564  0.00  0.00    +0.029 C 
ATOM      7  C   UNL     1      45.981  17.598  19.203  0.00  0.00    -0.123 C 
ATOM      8  C   UNL     1      45.811  16.141  18.808  0.00  0.00    +0.065 C 
ATOM      9  C   UNL     1      47.176  15.429  18.819  0.00  0.00    -0.004 C 
ATOM     10  C   UNL     1      47.503  15.070  20.268  0.00  0.00    +0.027 C 
ATOM     11  C   UNL     1      47.023  14.137  17.984  0.00  0.00    -0.007 C 
ATOM     12  C   UNL     1      47.331  14.300  16.491  0.00  0.00    -0.004 C 
ATOM     13  C   UNL     1      48.301  13.553  17.422  0.00  0.00    -0.099 C 
ATOM     14  C   UNL     1      48.444  12.057  17.103  0.00  0.00    +0.062 C 
ATOM     15  C   UNL     1      49.132  11.978  15.745  0.00  0.00    +0.152 C 
ATOM     16  O   UNL     1      50.099  10.938  15.640  0.00  0.00    -0.371 OA
ATOM     17  C   UNL     1      51.319  11.467  15.057  0.00  0.00    +0.192 C 
ATOM     18  C   UNL     1      50.888  12.793  14.380  0.00  0.00    -0.096 C 
ATOM     19  C   UNL     1      50.169  12.507  13.049  0.00  0.00    +0.031 C 
ATOM     20  C   UNL     1      52.045  13.760  14.138  0.00  0.00    +0.045 C 
ATOM     21  C   UNL     1      52.245  11.818  16.229  0.00  0.00    -0.009 C 
ATOM     22  C   UNL     1      51.443  12.578  17.287  0.00  0.00    +0.024 C 
ATOM     23  C   UNL     1      50.651  13.741  16.696  0.00  0.00    +0.011 C 
ATOM     24  C   UNL     1      49.877  13.302  15.448  0.00  0.00    +0.004 C 
ATOM     25  C   UNL     1      49.628  14.240  17.746  0.00  0.00    -0.009 C 
ATOM     26  C   UNL     1      50.124  13.850  19.140  0.00  0.00    +0.028 C 
ATOM     27  C   UNL     1      49.487  15.746  17.674  0.00  0.00    +0.018 C 
ATOM     28  C   UNL     1      48.198  16.339  18.193  0.00  0.00    -0.014 C 
ATOM     29  C   UNL     1      48.488  17.583  19.029  0.00  0.00    +0.027 C 
ATOM     30  C   UNL     1      47.303  18.029  19.870  0.00  0.00    +0.043 C 
ENDROOT
BRANCH   3   2
ATOM      1  C   UNL     1      49.231  20.213  21.387  0.00  0.00    +0.071 C 
ATOM      2  C   UNL     1      48.551  20.237  20.042  0.00  0.00    -0.107 C 
ATOM     31  C   UNL     1      49.128  20.831  19.027  0.00  0.00    -0.009 C 
ENDBRANCH   3   2
TORSDOF 1
ENDMDL
MODEL 6
REMARK VINA RESULT:      -6.8      4.042      7.820
REMARK  Name = ZINC95485933
REMARK  6 active torsions:
REMARK  status: ('A' for Active; 'I' for Inactive)
REMARK    1  A    between atoms: C1_1  and  C2_2
REMARK    2  A    between atoms: C2_2  and  C4_4
REMARK    3  A    between atoms: C13_17  and  C30_40
REMARK    4  A    between atoms: C18_24  and  C28_38
REMARK    5  A    between atoms: C18_24  and  C29_39
REMARK    6  A    between atoms: C25_35  and  C27_37
REMARK                            x       y       z     vdW  Elec       q    Type
REMARK                         _______ _______ _______ _____ _____    ______ ____
ROOT
ATOM      3  C   UNL     1      50.220  11.941  15.152  0.00  0.00    +0.018 C 
ATOM      4  C   UNL     1      51.747  12.204  15.095  0.00  0.00    +0.053 C 
ATOM      5  C   UNL     1      52.197  11.993  16.561  0.00  0.00    -0.048 C 
ATOM      6  C   UNL     1      51.534  10.865  17.352  0.00  0.00    +0.029 C 
ATOM      7  C   UNL     1      50.970  12.293  17.431  0.00  0.00    -0.123 C 
ATOM      8  C   UNL     1      51.053  13.014  18.766  0.00  0.00    +0.065 C 
ATOM      9  C   UNL     1      50.151  14.262  18.748  0.00  0.00    -0.004 C 
ATOM     10  C   UNL     1      48.716  13.804  19.005  0.00  0.00    +0.027 C 
ATOM     11  C   UNL     1      50.621  15.180  19.900  0.00  0.00    -0.007 C 
ATOM     12  C   UNL     1      51.707  16.189  19.512  0.00  0.00    -0.004 C 
ATOM     13  C   UNL     1      50.261  16.643  19.774  0.00  0.00    -0.099 C 
ATOM     14  C   UNL     1      50.105  17.556  21.000  0.00  0.00    +0.062 C 
ATOM     15  C   UNL     1      50.823  18.855  20.654  0.00  0.00    +0.152 C 
ATOM     16  O   UNL     1      50.155  20.030  21.105  0.00  0.00    -0.371 OA
ATOM     17  C   UNL     1      50.095  20.998  20.025  0.00  0.00    +0.192 C 
ATOM     18  C   UNL     1      51.176  20.531  19.017  0.00  0.00    -0.096 C 
ATOM     19  C   UNL     1      52.580  20.917  19.520  0.00  0.00    +0.031 C 
ATOM     20  C   UNL     1      50.972  21.075  17.605  0.00  0.00    +0.045 C 
ATOM     21  C   UNL     1      48.725  20.822  19.358  0.00  0.00    -0.009 C 
ATOM     22  C   UNL     1      48.467  19.330  19.138  0.00  0.00    +0.024 C 
ATOM     23  C   UNL     1      49.634  18.629  18.450  0.00  0.00    +0.011 C 
ATOM     24  C   UNL     1      50.965  18.993  19.118  0.00  0.00    +0.004 C 
ATOM     25  C   UNL     1      49.441  17.097  18.565  0.00  0.00    -0.009 C 
ATOM     26  C   UNL     1      47.954  16.803  18.766  0.00  0.00    +0.028 C 
ATOM     27  C   UNL     1      49.916  16.408  17.302  0.00  0.00    +0.018 C 
ATOM     28  C   UNL     1      50.319  14.958  17.424  0.00  0.00    -0.014 C 
ATOM     29  C   UNL     1      49.764  14.155  16.249  0.00  0.00    +0.027 C 
ATOM     30  C   UNL     1      49.816  12.653  16.472  0.00  0.00    +0.043 C 
ENDROOT
BRANCH   3   2
ATOM      1  C   UNL     1      48.004  12.603  13.952  0.00  0.00    +0.071 C 
ATOM      2  C   UNL     1      49.507  12.500  13.954  0.00  0.00    -0.107 C 
ATOM     31  C   UNL     1      50.192  12.898  12.911  0.00  0.00    -0.009 C 
ENDBRANCH   3   2
TORSDOF 1
ENDMDL
MODEL 7
REMARK VINA RESULT:      -6.7      4.145      8.008
REMARK  Name = ZINC95485933
REMARK  6 active torsions:
REMARK  status: ('A' for Active; 'I' for Inactive)
REMARK    1  A    between atoms: C1_1  and  C2_2
REMARK    2  A    between atoms: C2_2  and  C4_4
REMARK    3  A    between atoms: C13_17  and  C30_40
REMARK    4  A    between atoms: C18_24  and  C28_38
REMARK    5  A    between atoms: C18_24  and  C29_39
REMARK    6  A    between atoms: C25_35  and  C27_37
REMARK                            x       y       z     vdW  Elec       q    Type
REMARK                         _______ _______ _______ _____ _____    ______ ____
ROOT
ATOM      3  C   UNL     1      50.344  12.036  15.659  0.00  0.00    +0.018 C 
ATOM      4  C   UNL     1      51.501  12.160  16.684  0.00  0.00    +0.053 C 
ATOM      5  C   UNL     1      50.825  11.787  18.025  0.00  0.00    -0.048 C 
ATOM      6  C   UNL     1      49.788  10.664  18.010  0.00  0.00    +0.029 C 
ATOM      7  C   UNL     1      49.338  12.126  17.862  0.00  0.00    -0.123 C 
ATOM      8  C   UNL     1      48.494  12.723  18.975  0.00  0.00    +0.065 C 
ATOM      9  C   UNL     1      47.862  14.047  18.507  0.00  0.00    -0.004 C 
ATOM     10  C   UNL     1      46.634  13.705  17.665  0.00  0.00    +0.027 C 
ATOM     11  C   UNL     1      47.428  14.819  19.774  0.00  0.00    -0.007 C 
ATOM     12  C   UNL     1      48.497  15.752  20.354  0.00  0.00    -0.004 C 
ATOM     13  C   UNL     1      47.268  16.315  19.620  0.00  0.00    -0.099 C 
ATOM     14  C   UNL     1      46.327  17.133  20.517  0.00  0.00    +0.062 C 
ATOM     15  C   UNL     1      47.102  18.384  20.914  0.00  0.00    +0.152 C 
ATOM     16  O   UNL     1      46.319  19.574  20.934  0.00  0.00    -0.371 OA
ATOM     17  C   UNL     1      47.025  20.630  20.230  0.00  0.00    +0.192 C 
ATOM     18  C   UNL     1      48.498  20.150  20.174  0.00  0.00    -0.096 C 
ATOM     19  C   UNL     1      49.183  20.361  21.538  0.00  0.00    +0.031 C 
ATOM     20  C   UNL     1      49.320  20.826  19.080  0.00  0.00    +0.045 C 
ATOM     21  C   UNL     1      46.479  20.638  18.797  0.00  0.00    -0.009 C 
ATOM     22  C   UNL     1      46.424  19.200  18.278  0.00  0.00    +0.024 C 
ATOM     23  C   UNL     1      47.738  18.453  18.482  0.00  0.00    +0.011 C 
ATOM     24  C   UNL     1      48.257  18.635  19.914  0.00  0.00    +0.004 C 
ATOM     25  C   UNL     1      47.501  16.941  18.245  0.00  0.00    -0.009 C 
ATOM     26  C   UNL     1      46.275  16.771  17.347  0.00  0.00    +0.028 C 
ATOM     27  C   UNL     1      48.704  16.318  17.565  0.00  0.00    +0.018 C 
ATOM     28  C   UNL     1      48.898  14.832  17.746  0.00  0.00    -0.014 C 
ATOM     29  C   UNL     1      49.287  14.184  16.419  0.00  0.00    +0.027 C 
ATOM     30  C   UNL     1      49.156  12.670  16.430  0.00  0.00    +0.043 C 
ENDROOT
BRANCH   3   2
ATOM      1  C   UNL     1      49.610  12.832  13.288  0.00  0.00    +0.071 C 
ATOM      2  C   UNL     1      50.649  12.756  14.375  0.00  0.00    -0.107 C 
ATOM     31  C   UNL     1      51.820  13.319  14.203  0.00  0.00    -0.009 C 
ENDBRANCH   3   2
TORSDOF 1
ENDMDL
MODEL 8
REMARK VINA RESULT:      -6.7      3.673      4.882
REMARK  Name = ZINC95485933
REMARK  6 active torsions:
REMARK  status: ('A' for Active; 'I' for Inactive)
REMARK    1  A    between atoms: C1_1  and  C2_2
REMARK    2  A    between atoms: C2_2  and  C4_4
REMARK    3  A    between atoms: C13_17  and  C30_40
REMARK    4  A    between atoms: C18_24  and  C28_38
REMARK    5  A    between atoms: C18_24  and  C29_39
REMARK    6  A    between atoms: C25_35  and  C27_37
REMARK                            x       y       z     vdW  Elec       q    Type
REMARK                         _______ _______ _______ _____ _____    ______ ____
ROOT
ATOM      3  C   UNL     1      44.431  20.607  20.623  0.00  0.00    +0.018 C 
ATOM      4  C   UNL     1      43.484  20.136  19.489  0.00  0.00    +0.053 C 
ATOM      5  C   UNL     1      42.791  18.896  20.101  0.00  0.00    -0.048 C 
ATOM      6  C   UNL     1      42.419  18.949  21.583  0.00  0.00    +0.029 C 
ATOM      7  C   UNL     1      43.761  18.337  21.149  0.00  0.00    -0.123 C 
ATOM      8  C   UNL     1      43.970  16.851  21.381  0.00  0.00    +0.065 C 
ATOM      9  C   UNL     1      45.459  16.494  21.211  0.00  0.00    -0.004 C 
ATOM     10  C   UNL     1      46.179  16.868  22.505  0.00  0.00    +0.027 C 
ATOM     11  C   UNL     1      45.539  14.966  20.992  0.00  0.00    -0.007 C 
ATOM     12  C   UNL     1      45.458  14.524  19.526  0.00  0.00    -0.004 C 
ATOM     13  C   UNL     1      46.785  14.457  20.302  0.00  0.00    -0.099 C 
ATOM     14  C   UNL     1      47.312  13.030  20.514  0.00  0.00    +0.062 C 
ATOM     15  C   UNL     1      47.688  12.508  19.132  0.00  0.00    +0.152 C 
ATOM     16  O   UNL     1      48.883  11.734  19.105  0.00  0.00    -0.371 OA
ATOM     17  C   UNL     1      49.728  12.186  18.014  0.00  0.00    +0.192 C 
ATOM     18  C   UNL     1      48.776  12.977  17.081  0.00  0.00    -0.096 C 
ATOM     19  C   UNL     1      47.916  12.009  16.247  0.00  0.00    +0.031 C 
ATOM     20  C   UNL     1      49.499  13.948  16.152  0.00  0.00    +0.045 C 
ATOM     21  C   UNL     1      50.726  13.181  18.619  0.00  0.00    -0.009 C 
ATOM     22  C   UNL     1      49.971  14.152  19.529  0.00  0.00    +0.024 C 
ATOM     23  C   UNL     1      48.753  14.767  18.846  0.00  0.00    +0.011 C 
ATOM     24  C   UNL     1      47.907  13.690  18.157  0.00  0.00    +0.004 C 
ATOM     25  C   UNL     1      47.872  15.460  19.915  0.00  0.00    -0.009 C 
ATOM     26  C   UNL     1      48.747  15.816  21.117  0.00  0.00    +0.028 C 
ATOM     27  C   UNL     1      47.261  16.728  19.354  0.00  0.00    +0.018 C 
ATOM     28  C   UNL     1      45.993  17.223  20.008  0.00  0.00    -0.014 C 
ATOM     29  C   UNL     1      46.055  18.737  20.201  0.00  0.00    +0.027 C 
ATOM     30  C   UNL     1      44.996  19.263  21.156  0.00  0.00    +0.043 C 
ENDROOT
BRANCH   3   2
ATOM      1  C   UNL     1      46.463  22.175  21.080  0.00  0.00    +0.071 C 
ATOM      2  C   UNL     1      45.508  21.524  20.114  0.00  0.00    -0.107 C 
ATOM     31  C   UNL     1      45.616  21.756  18.829  0.00  0.00    -0.009 C 
ENDBRANCH   3   2
TORSDOF 1
ENDMDL
MODEL 9
REMARK VINA RESULT:      -6.7      4.258      8.238
REMARK  Name = ZINC95485933
REMARK  6 active torsions:
REMARK  status: ('A' for Active; 'I' for Inactive)
REMARK    1  A    between atoms: C1_1  and  C2_2
REMARK    2  A    between atoms: C2_2  and  C4_4
REMARK    3  A    between atoms: C13_17  and  C30_40
REMARK    4  A    between atoms: C18_24  and  C28_38
REMARK    5  A    between atoms: C18_24  and  C29_39
REMARK    6  A    between atoms: C25_35  and  C27_37
REMARK                            x       y       z     vdW  Elec       q    Type
REMARK                         _______ _______ _______ _____ _____    ______ ____
ROOT
ATOM      3  C   UNL     1      48.924  12.137  15.935  0.00  0.00    +0.018 C 
ATOM      4  C   UNL     1      49.867  13.277  15.471  0.00  0.00    +0.053 C 
ATOM      5  C   UNL     1      50.694  13.588  16.741  0.00  0.00    -0.048 C 
ATOM      6  C   UNL     1      51.114  12.411  17.622  0.00  0.00    +0.029 C 
ATOM      7  C   UNL     1      49.819  13.179  17.932  0.00  0.00    -0.123 C 
ATOM      8  C   UNL     1      49.756  13.968  19.229  0.00  0.00    +0.065 C 
ATOM      9  C   UNL     1      48.302  14.375  19.530  0.00  0.00    -0.004 C 
ATOM     10  C   UNL     1      47.599  13.168  20.149  0.00  0.00    +0.027 C 
ATOM     11  C   UNL     1      48.355  15.531  20.555  0.00  0.00    -0.007 C 
ATOM     12  C   UNL     1      48.422  16.932  19.937  0.00  0.00    -0.004 C 
ATOM     13  C   UNL     1      47.136  16.425  20.613  0.00  0.00    -0.099 C 
ATOM     14  C   UNL     1      46.751  17.201  21.882  0.00  0.00    +0.062 C 
ATOM     15  C   UNL     1      46.375  18.604  21.422  0.00  0.00    +0.152 C 
ATOM     16  O   UNL     1      45.256  19.162  22.104  0.00  0.00    -0.371 OA
ATOM     17  C   UNL     1      44.333  19.730  21.137  0.00  0.00    +0.192 C 
ATOM     18  C   UNL     1      45.173  19.901  19.845  0.00  0.00    -0.096 C 
ATOM     19  C   UNL     1      46.087  21.135  19.960  0.00  0.00    +0.031 C 
ATOM     20  C   UNL     1      44.329  20.007  18.577  0.00  0.00    +0.045 C 
ATOM     21  C   UNL     1      43.270  18.657  20.867  0.00  0.00    -0.009 C 
ATOM     22  C   UNL     1      43.966  17.312  20.646  0.00  0.00    +0.024 C 
ATOM     23  C   UNL     1      45.096  17.398  19.625  0.00  0.00    +0.011 C 
ATOM     24  C   UNL     1      46.012  18.593  19.917  0.00  0.00    +0.004 C 
ATOM     25  C   UNL     1      45.948  16.107  19.705  0.00  0.00    -0.009 C 
ATOM     26  C   UNL     1      45.089  14.988  20.294  0.00  0.00    +0.028 C 
ATOM     27  C   UNL     1      46.418  15.698  18.324  0.00  0.00    +0.018 C 
ATOM     28  C   UNL     1      47.658  14.840  18.251  0.00  0.00    -0.014 C 
ATOM     29  C   UNL     1      47.465  13.717  17.233  0.00  0.00    +0.027 C 
ATOM     30  C   UNL     1      48.505  12.616  17.351  0.00  0.00    +0.043 C 
ENDROOT
BRANCH   3   2
ATOM      1  C   UNL     1      46.631  11.027  15.380  0.00  0.00    +0.071 C 
ATOM      2  C   UNL     1      47.749  11.968  15.013  0.00  0.00    -0.107 C 
ATOM     31  C   UNL     1      47.696  12.639  13.889  0.00  0.00    -0.009 C 
ENDBRANCH   3   2
TORSDOF 1
ENDMDL
