MODEL 1
REMARK VINA RESULT:      -7.0      0.000      0.000
REMARK  Name = ZINC95486228
REMARK  10 active torsions:
REMARK  status: ('A' for Active; 'I' for Inactive)
REMARK    1  A    between atoms: C1_1  and  C2_2
REMARK    2  A    between atoms: C4_4  and  O4_29
REMARK    3  A    between atoms: C6_7  and  C19_26
REMARK    4  A    between atoms: C18_23  and  O1_25
REMARK    5  A    between atoms: O4_29  and  C20_30
REMARK    6  A    between atoms: C21_32  and  O9_45
REMARK    7  A    between atoms: C22_34  and  O8_44
REMARK    8  A    between atoms: C23_36  and  O7_43
REMARK    9  A    between atoms: C24_38  and  C25_41
REMARK   10  A    between atoms: C25_41  and  O6_42
REMARK                            x       y       z     vdW  Elec       q    Type
REMARK                         _______ _______ _______ _____ _____    ______ ____
ROOT
ATOM      1  C   UNL     1      47.475  18.603  18.748  0.00  0.00    +0.013 C 
ATOM      2  C   UNL     1      48.405  19.510  19.574  0.00  0.00    -0.015 C 
ATOM      3  C   UNL     1      47.730  20.874  19.737  0.00  0.00    +0.037 C 
ATOM      4  C   UNL     1      46.446  20.728  20.554  0.00  0.00    +0.187 C 
ATOM     21  C   UNL     1      46.758  20.176  21.941  0.00  0.00    -0.003 C 
ATOM     22  C   UNL     1      47.494  18.842  21.870  0.00  0.00    -0.096 C 
ATOM     26  C   UNL     1      49.691  19.654  18.763  0.00  0.00    +0.011 C 
ATOM     27  C   UNL     1      49.928  21.092  18.305  0.00  0.00    +0.026 C 
ATOM     28  C   UNL     1      51.191  21.176  17.447  0.00  0.00    +0.006 C 
ATOM     29  C   UNL     1      52.373  20.464  18.113  0.00  0.00    +0.015 C 
ATOM     30  C   UNL     1      52.523  20.980  19.534  0.00  0.00    -0.140 C 
ATOM     31  C   UNL     1      51.581  20.146  20.394  0.00  0.00    +0.208 C 
ATOM     34  C   UNL     1      53.304  21.945  19.948  0.00  0.00    +0.008 C 
ATOM     35  C   UNL     1      51.985  18.978  18.319  0.00  0.00    +0.023 C 
ATOM     36  C   UNL     1      50.928  19.124  19.470  0.00  0.00    -0.035 C 
ATOM     37  C   UNL     1      50.740  17.753  20.080  0.00  0.00    +0.005 C 
ATOM     38  C   UNL     1      49.422  17.584  20.830  0.00  0.00    +0.031 C 
ATOM     39  C   UNL     1      48.689  18.912  20.937  0.00  0.00    +0.026 C 
ENDROOT
BRANCH  22  23
ATOM     23  C   UNL     1      46.551  17.715  21.582  0.00  0.00    +0.503 C 
ATOM     24  O   UNL     1      45.364  17.940  21.420  0.00  0.00    -0.699 OA
ATOM     25  O   UNL     1      46.970  16.573  21.509  0.00  0.00    -0.698 OA
ENDBRANCH  22  23
BRANCH  31  32
ATOM     32  O   UNL     1      50.663  21.031  21.031  0.00  0.00    -0.533 OA
ATOM     33  H   UNL     1      50.457  21.823  20.516  0.00  0.00    +0.366 HD
ENDBRANCH  31  32
BRANCH   4   5
ATOM      5  O   UNL     1      45.842  22.022  20.694  0.00  0.00    -0.374 OA
BRANCH   5   6
ATOM      6  C   UNL     1      44.417  22.015  20.577  0.00  0.00    +0.296 C 
ATOM      7  C   UNL     1      43.994  22.948  19.440  0.00  0.00    +0.140 C 
ATOM     10  C   UNL     1      42.471  22.890  19.283  0.00  0.00    +0.161 C 
ATOM     13  C   UNL     1      42.050  21.438  19.033  0.00  0.00    +0.169 C 
ATOM     16  C   UNL     1      42.549  20.564  20.186  0.00  0.00    +0.191 C 
ATOM     20  O   UNL     1      43.968  20.688  20.297  0.00  0.00    -0.372 OA
BRANCH   7   8
ATOM      8  O   UNL     1      44.393  24.286  19.746  0.00  0.00    -0.559 OA
ATOM      9  H   UNL     1      45.336  24.381  19.938  0.00  0.00    +0.394 HD
ENDBRANCH   7   8
BRANCH  10  11
ATOM     11  O   UNL     1      42.073  23.703  18.178  0.00  0.00    -0.560 OA
ATOM     12  H   UNL     1      41.697  23.206  17.438  0.00  0.00    +0.392 HD
ENDBRANCH  10  11
BRANCH  13  14
ATOM     14  O   UNL     1      40.624  21.361  18.956  0.00  0.00    -0.551 OA
ATOM     15  H   UNL     1      40.300  20.775  18.258  0.00  0.00    +0.389 HD
ENDBRANCH  13  14
BRANCH  16  17
ATOM     17  C   UNL     1      42.184  19.103  19.914  0.00  0.00    +0.214 C 
BRANCH  17  18
ATOM     18  O   UNL     1      40.974  18.778  20.600  0.00  0.00    -0.553 OA
ATOM     19  H   UNL     1      40.838  19.277  21.416  0.00  0.00    +0.378 HD
ENDBRANCH  17  18
ENDBRANCH  16  17
ENDBRANCH   5   6
ENDBRANCH   4   5
TORSDOF 9
ENDMDL
MODEL 2
REMARK VINA RESULT:      -6.9      1.302      2.623
REMARK  Name = ZINC95486228
REMARK  10 active torsions:
REMARK  status: ('A' for Active; 'I' for Inactive)
REMARK    1  A    between atoms: C1_1  and  C2_2
REMARK    2  A    between atoms: C4_4  and  O4_29
REMARK    3  A    between atoms: C6_7  and  C19_26
REMARK    4  A    between atoms: C18_23  and  O1_25
REMARK    5  A    between atoms: O4_29  and  C20_30
REMARK    6  A    between atoms: C21_32  and  O9_45
REMARK    7  A    between atoms: C22_34  and  O8_44
REMARK    8  A    between atoms: C23_36  and  O7_43
REMARK    9  A    between atoms: C24_38  and  C25_41
REMARK   10  A    between atoms: C25_41  and  O6_42
REMARK                            x       y       z     vdW  Elec       q    Type
REMARK                         _______ _______ _______ _____ _____    ______ ____
ROOT
ATOM      1  C   UNL     1      48.060  17.545  18.052  0.00  0.00    +0.013 C 
ATOM      2  C   UNL     1      48.800  18.343  19.141  0.00  0.00    -0.015 C 
ATOM      3  C   UNL     1      47.807  19.310  19.789  0.00  0.00    +0.037 C 
ATOM      4  C   UNL     1      46.708  18.528  20.509  0.00  0.00    +0.187 C 
ATOM     21  C   UNL     1      47.309  17.651  21.602  0.00  0.00    -0.003 C 
ATOM     22  C   UNL     1      48.363  16.696  21.050  0.00  0.00    -0.096 C 
ATOM     26  C   UNL     1      49.902  19.122  18.426  0.00  0.00    +0.011 C 
ATOM     27  C   UNL     1      49.693  20.632  18.514  0.00  0.00    +0.026 C 
ATOM     28  C   UNL     1      50.783  21.367  17.734  0.00  0.00    +0.006 C 
ATOM     29  C   UNL     1      52.180  20.845  18.089  0.00  0.00    +0.015 C 
ATOM     30  C   UNL     1      52.344  20.863  19.599  0.00  0.00    -0.140 C 
ATOM     31  C   UNL     1      51.761  19.550  20.109  0.00  0.00    +0.208 C 
ATOM     34  C   UNL     1      52.879  21.811  20.326  0.00  0.00    +0.008 C 
ATOM     35  C   UNL     1      52.229  19.333  17.749  0.00  0.00    +0.023 C 
ATOM     36  C   UNL     1      51.307  18.764  18.884  0.00  0.00    -0.035 C 
ATOM     37  C   UNL     1      51.561  17.275  18.962  0.00  0.00    +0.005 C 
ATOM     38  C   UNL     1      50.429  16.485  19.612  0.00  0.00    +0.031 C 
ATOM     39  C   UNL     1      49.383  17.424  20.196  0.00  0.00    +0.026 C 
ENDROOT
BRANCH  22  23
ATOM     23  C   UNL     1      47.729  15.514  20.384  0.00  0.00    +0.503 C 
ATOM     24  O   UNL     1      46.522  15.483  20.216  0.00  0.00    -0.699 OA
ATOM     25  O   UNL     1      48.421  14.583  20.009  0.00  0.00    -0.698 OA
ENDBRANCH  22  23
BRANCH  31  32
ATOM     32  O   UNL     1      50.716  19.857  21.029  0.00  0.00    -0.533 OA
ATOM     33  H   UNL     1      49.966  20.320  20.633  0.00  0.00    +0.366 HD
ENDBRANCH  31  32
BRANCH   4   5
ATOM      5  O   UNL     1      45.800  19.462  21.111  0.00  0.00    -0.374 OA
BRANCH   5   6
ATOM      6  C   UNL     1      44.967  20.150  20.175  0.00  0.00    +0.296 C 
ATOM      7  C   UNL     1      43.499  19.826  20.464  0.00  0.00    +0.140 C 
ATOM     10  C   UNL     1      42.611  20.614  19.495  0.00  0.00    +0.161 C 
ATOM     13  C   UNL     1      42.917  22.108  19.639  0.00  0.00    +0.169 C 
ATOM     16  C   UNL     1      44.408  22.343  19.382  0.00  0.00    +0.191 C 
ATOM     20  O   UNL     1      45.177  21.558  20.295  0.00  0.00    -0.372 OA
BRANCH   7   8
ATOM      8  O   UNL     1      43.274  18.426  20.288  0.00  0.00    -0.559 OA
ATOM      9  H   UNL     1      42.816  18.201  19.467  0.00  0.00    +0.394 HD
ENDBRANCH   7   8
BRANCH  10  11
ATOM     11  O   UNL     1      41.237  20.374  19.803  0.00  0.00    -0.560 OA
ATOM     12  H   UNL     1      40.621  20.676  19.121  0.00  0.00    +0.392 HD
ENDBRANCH  10  11
BRANCH  13  14
ATOM     14  O   UNL     1      42.146  22.847  18.689  0.00  0.00    -0.551 OA
ATOM     15  H   UNL     1      42.491  22.806  17.786  0.00  0.00    +0.389 HD
ENDBRANCH  13  14
BRANCH  16  17
ATOM     17  C   UNL     1      44.734  23.824  19.583  0.00  0.00    +0.214 C 
BRANCH  17  18
ATOM     18  O   UNL     1      44.368  24.555  18.411  0.00  0.00    -0.553 OA
ATOM     19  H   UNL     1      44.639  24.134  17.584  0.00  0.00    +0.378 HD
ENDBRANCH  17  18
ENDBRANCH  16  17
ENDBRANCH   5   6
ENDBRANCH   4   5
TORSDOF 9
ENDMDL
MODEL 3
REMARK VINA RESULT:      -6.4      2.380      7.463
REMARK  Name = ZINC95486228
REMARK  10 active torsions:
REMARK  status: ('A' for Active; 'I' for Inactive)
REMARK    1  A    between atoms: C1_1  and  C2_2
REMARK    2  A    between atoms: C4_4  and  O4_29
REMARK    3  A    between atoms: C6_7  and  C19_26
REMARK    4  A    between atoms: C18_23  and  O1_25
REMARK    5  A    between atoms: O4_29  and  C20_30
REMARK    6  A    between atoms: C21_32  and  O9_45
REMARK    7  A    between atoms: C22_34  and  O8_44
REMARK    8  A    between atoms: C23_36  and  O7_43
REMARK    9  A    between atoms: C24_38  and  C25_41
REMARK   10  A    between atoms: C25_41  and  O6_42
REMARK                            x       y       z     vdW  Elec       q    Type
REMARK                         _______ _______ _______ _____ _____    ______ ____
ROOT
ATOM      1  C   UNL     1      46.722  18.024  21.963  0.00  0.00    +0.013 C 
ATOM      2  C   UNL     1      46.233  18.904  20.800  0.00  0.00    -0.015 C 
ATOM      3  C   UNL     1      47.321  18.932  19.724  0.00  0.00    +0.037 C 
ATOM      4  C   UNL     1      47.518  17.532  19.143  0.00  0.00    +0.187 C 
ATOM     21  C   UNL     1      46.225  17.033  18.506  0.00  0.00    -0.003 C 
ATOM     22  C   UNL     1      45.065  17.036  19.497  0.00  0.00    -0.096 C 
ATOM     26  C   UNL     1      46.030  20.303  21.378  0.00  0.00    +0.011 C 
ATOM     27  C   UNL     1      46.985  21.326  20.765  0.00  0.00    +0.026 C 
ATOM     28  C   UNL     1      46.788  22.695  21.417  0.00  0.00    +0.006 C 
ATOM     29  C   UNL     1      45.307  23.085  21.474  0.00  0.00    +0.015 C 
ATOM     30  C   UNL     1      44.706  22.939  20.086  0.00  0.00    -0.140 C 
ATOM     31  C   UNL     1      44.282  21.481  19.954  0.00  0.00    +0.208 C 
ATOM     34  C   UNL     1      44.572  23.873  19.179  0.00  0.00    +0.008 C 
ATOM     35  C   UNL     1      44.556  22.007  22.296  0.00  0.00    +0.023 C 
ATOM     36  C   UNL     1      44.599  20.808  21.285  0.00  0.00    -0.035 C 
ATOM     37  C   UNL     1      43.568  19.800  21.743  0.00  0.00    +0.005 C 
ATOM     38  C   UNL     1      43.809  18.386  21.224  0.00  0.00    +0.031 C 
ATOM     39  C   UNL     1      44.943  18.370  20.210  0.00  0.00    +0.026 C 
ENDROOT
BRANCH  22  23
ATOM     23  C   UNL     1      45.129  15.851  20.411  0.00  0.00    +0.503 C 
ATOM     24  O   UNL     1      44.328  15.741  21.323  0.00  0.00    -0.699 OA
ATOM     25  O   UNL     1      45.982  14.997  20.243  0.00  0.00    -0.698 OA
ENDBRANCH  22  23
BRANCH  31  32
ATOM     32  O   UNL     1      44.964  20.920  18.836  0.00  0.00    -0.533 OA
ATOM     33  H   UNL     1      44.770  19.985  18.685  0.00  0.00    +0.366 HD
ENDBRANCH  31  32
BRANCH   4   5
ATOM      5  O   UNL     1      48.538  17.593  18.135  0.00  0.00    -0.374 OA
BRANCH   5   6
ATOM      6  C   UNL     1      49.710  18.307  18.534  0.00  0.00    +0.296 C 
ATOM      7  C   UNL     1      50.924  17.379  18.457  0.00  0.00    +0.140 C 
ATOM     10  C   UNL     1      52.184  18.168  18.828  0.00  0.00    +0.161 C 
ATOM     13  C   UNL     1      52.312  19.374  17.892  0.00  0.00    +0.169 C 
ATOM     16  C   UNL     1      51.043  20.225  17.991  0.00  0.00    +0.191 C 
ATOM     20  O   UNL     1      49.907  19.423  17.664  0.00  0.00    -0.372 OA
BRANCH   7   8
ATOM      8  O   UNL     1      50.754  16.292  19.369  0.00  0.00    -0.559 OA
ATOM      9  H   UNL     1      50.257  15.547  19.005  0.00  0.00    +0.394 HD
ENDBRANCH   7   8
BRANCH  10  11
ATOM     11  O   UNL     1      53.332  17.329  18.691  0.00  0.00    -0.560 OA
ATOM     12  H   UNL     1      53.502  16.765  19.458  0.00  0.00    +0.392 HD
ENDBRANCH  10  11
BRANCH  13  14
ATOM     14  O   UNL     1      53.445  20.158  18.276  0.00  0.00    -0.551 OA
ATOM     15  H   UNL     1      53.942  19.790  19.019  0.00  0.00    +0.389 HD
ENDBRANCH  13  14
BRANCH  16  17
ATOM     17  C   UNL     1      51.138  21.398  17.015  0.00  0.00    +0.214 C 
BRANCH  17  18
ATOM     18  O   UNL     1      52.208  21.167  16.095  0.00  0.00    -0.553 OA
ATOM     19  H   UNL     1      51.957  21.268  15.167  0.00  0.00    +0.378 HD
ENDBRANCH  17  18
ENDBRANCH  16  17
ENDBRANCH   5   6
ENDBRANCH   4   5
TORSDOF 9
ENDMDL
MODEL 4
REMARK VINA RESULT:      -6.4      4.389      7.763
REMARK  Name = ZINC95486228
REMARK  10 active torsions:
REMARK  status: ('A' for Active; 'I' for Inactive)
REMARK    1  A    between atoms: C1_1  and  C2_2
REMARK    2  A    between atoms: C4_4  and  O4_29
REMARK    3  A    between atoms: C6_7  and  C19_26
REMARK    4  A    between atoms: C18_23  and  O1_25
REMARK    5  A    between atoms: O4_29  and  C20_30
REMARK    6  A    between atoms: C21_32  and  O9_45
REMARK    7  A    between atoms: C22_34  and  O8_44
REMARK    8  A    between atoms: C23_36  and  O7_43
REMARK    9  A    between atoms: C24_38  and  C25_41
REMARK   10  A    between atoms: C25_41  and  O6_42
REMARK                            x       y       z     vdW  Elec       q    Type
REMARK                         _______ _______ _______ _____ _____    ______ ____
ROOT
ATOM      1  C   UNL     1      47.607  17.524  16.901  0.00  0.00    +0.013 C 
ATOM      2  C   UNL     1      47.263  17.759  18.382  0.00  0.00    -0.015 C 
ATOM      3  C   UNL     1      46.556  16.513  18.919  0.00  0.00    +0.037 C 
ATOM      4  C   UNL     1      47.508  15.317  18.889  0.00  0.00    +0.187 C 
ATOM     21  C   UNL     1      48.730  15.590  19.761  0.00  0.00    -0.003 C 
ATOM     22  C   UNL     1      49.461  16.859  19.335  0.00  0.00    -0.096 C 
ATOM     26  C   UNL     1      46.315  18.956  18.416  0.00  0.00    +0.011 C 
ATOM     27  C   UNL     1      44.926  18.580  18.927  0.00  0.00    +0.026 C 
ATOM     28  C   UNL     1      43.996  19.793  18.884  0.00  0.00    +0.006 C 
ATOM     29  C   UNL     1      44.649  21.027  19.516  0.00  0.00    +0.015 C 
ATOM     30  C   UNL     1      45.166  20.658  20.897  0.00  0.00    -0.140 C 
ATOM     31  C   UNL     1      46.557  20.069  20.690  0.00  0.00    +0.208 C 
ATOM     34  C   UNL     1      44.549  20.813  22.040  0.00  0.00    +0.008 C 
ATOM     35  C   UNL     1      45.947  21.341  18.729  0.00  0.00    +0.023 C 
ATOM     36  C   UNL     1      46.851  20.146  19.197  0.00  0.00    -0.035 C 
ATOM     37  C   UNL     1      48.279  20.505  18.853  0.00  0.00    +0.005 C 
ATOM     38  C   UNL     1      49.214  19.303  18.749  0.00  0.00    +0.031 C 
ATOM     39  C   UNL     1      48.509  18.033  19.200  0.00  0.00    +0.026 C 
ENDROOT
BRANCH  22  23
ATOM     23  C   UNL     1      50.315  16.615  18.129  0.00  0.00    +0.503 C 
ATOM     24  O   UNL     1      50.231  15.560  17.525  0.00  0.00    -0.699 OA
ATOM     25  O   UNL     1      51.097  17.472  17.753  0.00  0.00    -0.698 OA
ENDBRANCH  22  23
BRANCH  31  32
ATOM     32  O   UNL     1      46.562  18.747  21.222  0.00  0.00    -0.533 OA
ATOM     33  H   UNL     1      46.102  18.661  22.068  0.00  0.00    +0.366 HD
ENDBRANCH  31  32
BRANCH   4   5
ATOM      5  O   UNL     1      46.819  14.169  19.403  0.00  0.00    -0.374 OA
BRANCH   5   6
ATOM      6  C   UNL     1      46.825  13.043  18.523  0.00  0.00    +0.296 C 
ATOM      7  C   UNL     1      45.491  12.970  17.777  0.00  0.00    +0.140 C 
ATOM     10  C   UNL     1      45.529  11.797  16.792  0.00  0.00    +0.161 C 
ATOM     13  C   UNL     1      46.717  11.980  15.843  0.00  0.00    +0.169 C 
ATOM     16  C   UNL     1      48.005  12.091  16.664  0.00  0.00    +0.191 C 
ATOM     20  O   UNL     1      47.890  13.181  17.580  0.00  0.00    -0.372 OA
BRANCH   7   8
ATOM      8  O   UNL     1      44.430  12.774  18.714  0.00  0.00    -0.559 OA
ATOM      9  H   UNL     1      43.625  12.406  18.326  0.00  0.00    +0.394 HD
ENDBRANCH   7   8
BRANCH  10  11
ATOM     11  O   UNL     1      44.314  11.763  16.041  0.00  0.00    -0.560 OA
ATOM     12  H   UNL     1      43.589  12.261  16.442  0.00  0.00    +0.392 HD
ENDBRANCH  10  11
BRANCH  13  14
ATOM     14  O   UNL     1      46.805  10.854  14.966  0.00  0.00    -0.551 OA
ATOM     15  H   UNL     1      47.690  10.467  14.911  0.00  0.00    +0.389 HD
ENDBRANCH  13  14
BRANCH  16  17
ATOM     17  C   UNL     1      49.188  12.334  15.726  0.00  0.00    +0.214 C 
BRANCH  17  18
ATOM     18  O   UNL     1      48.764  13.134  14.621  0.00  0.00    -0.553 OA
ATOM     19  H   UNL     1      49.231  13.977  14.544  0.00  0.00    +0.378 HD
ENDBRANCH  17  18
ENDBRANCH  16  17
ENDBRANCH   5   6
ENDBRANCH   4   5
TORSDOF 9
ENDMDL
MODEL 5
REMARK VINA RESULT:      -6.2      4.891      8.450
REMARK  Name = ZINC95486228
REMARK  10 active torsions:
REMARK  status: ('A' for Active; 'I' for Inactive)
REMARK    1  A    between atoms: C1_1  and  C2_2
REMARK    2  A    between atoms: C4_4  and  O4_29
REMARK    3  A    between atoms: C6_7  and  C19_26
REMARK    4  A    between atoms: C18_23  and  O1_25
REMARK    5  A    between atoms: O4_29  and  C20_30
REMARK    6  A    between atoms: C21_32  and  O9_45
REMARK    7  A    between atoms: C22_34  and  O8_44
REMARK    8  A    between atoms: C23_36  and  O7_43
REMARK    9  A    between atoms: C24_38  and  C25_41
REMARK   10  A    between atoms: C25_41  and  O6_42
REMARK                            x       y       z     vdW  Elec       q    Type
REMARK                         _______ _______ _______ _____ _____    ______ ____
ROOT
ATOM      1  C   UNL     1      49.413  17.707  16.849  0.00  0.00    +0.013 C 
ATOM      2  C   UNL     1      48.687  17.509  18.191  0.00  0.00    -0.015 C 
ATOM      3  C   UNL     1      48.024  16.130  18.184  0.00  0.00    +0.037 C 
ATOM      4  C   UNL     1      49.091  15.037  18.114  0.00  0.00    +0.187 C 
ATOM     21  C   UNL     1      50.017  15.119  19.323  0.00  0.00    -0.003 C 
ATOM     22  C   UNL     1      50.672  16.491  19.445  0.00  0.00    -0.096 C 
ATOM     26  C   UNL     1      47.624  18.602  18.267  0.00  0.00    +0.011 C 
ATOM     27  C   UNL     1      46.207  18.032  18.270  0.00  0.00    +0.026 C 
ATOM     28  C   UNL     1      45.178  19.163  18.284  0.00  0.00    +0.006 C 
ATOM     29  C   UNL     1      45.501  20.206  19.359  0.00  0.00    +0.015 C 
ATOM     30  C   UNL     1      45.699  19.498  20.689  0.00  0.00    -0.140 C 
ATOM     31  C   UNL     1      47.158  19.058  20.726  0.00  0.00    +0.208 C 
ATOM     34  C   UNL     1      44.804  19.303  21.623  0.00  0.00    +0.008 C 
ATOM     35  C   UNL     1      46.906  20.788  19.058  0.00  0.00    +0.023 C 
ATOM     36  C   UNL     1      47.802  19.556  19.437  0.00  0.00    -0.035 C 
ATOM     37  C   UNL     1      49.217  20.066  19.596  0.00  0.00    +0.005 C 
ATOM     38  C   UNL     1      50.286  18.987  19.449  0.00  0.00    +0.031 C 
ATOM     39  C   UNL     1      49.650  17.608  19.358  0.00  0.00    +0.026 C 
ENDROOT
BRANCH  22  23
ATOM     23  C   UNL     1      51.822  16.630  18.495  0.00  0.00    +0.503 C 
ATOM     24  O   UNL     1      52.022  15.775  17.650  0.00  0.00    -0.699 OA
ATOM     25  O   UNL     1      52.559  17.598  18.569  0.00  0.00    -0.698 OA
ENDBRANCH  22  23
BRANCH  31  32
ATOM     32  O   UNL     1      47.190  17.643  20.888  0.00  0.00    -0.533 OA
ATOM     33  H   UNL     1      46.611  17.314  21.589  0.00  0.00    +0.366 HD
ENDBRANCH  31  32
BRANCH   4   5
ATOM      5  O   UNL     1      48.439  13.759  18.115  0.00  0.00    -0.374 OA
BRANCH   5   6
ATOM      6  C   UNL     1      48.696  12.972  16.949  0.00  0.00    +0.296 C 
ATOM      7  C   UNL     1      47.823  13.470  15.795  0.00  0.00    +0.140 C 
ATOM     10  C   UNL     1      48.147  12.663  14.535  0.00  0.00    +0.161 C 
ATOM     13  C   UNL     1      49.643  12.791  14.230  0.00  0.00    +0.169 C 
ATOM     16  C   UNL     1      50.446  12.319  15.446  0.00  0.00    +0.191 C 
ATOM     20  O   UNL     1      50.073  13.090  16.589  0.00  0.00    -0.372 OA
BRANCH   7   8
ATOM      8  O   UNL     1      46.444  13.301  16.131  0.00  0.00    -0.559 OA
ATOM      9  H   UNL     1      46.107  12.409  15.971  0.00  0.00    +0.394 HD
ENDBRANCH   7   8
BRANCH  10  11
ATOM     11  O   UNL     1      47.388  13.167  13.434  0.00  0.00    -0.560 OA
ATOM     12  H   UNL     1      46.470  12.864  13.417  0.00  0.00    +0.392 HD
ENDBRANCH  10  11
BRANCH  13  14
ATOM     14  O   UNL     1      49.971  11.982  13.098  0.00  0.00    -0.551 OA
ATOM     15  H   UNL     1      50.034  11.037  13.295  0.00  0.00    +0.389 HD
ENDBRANCH  13  14
BRANCH  16  17
ATOM     17  C   UNL     1      51.940  12.500  15.172  0.00  0.00    +0.214 C 
BRANCH  17  18
ATOM     18  O   UNL     1      52.401  11.443  14.329  0.00  0.00    -0.553 OA
ATOM     19  H   UNL     1      51.844  11.284  13.555  0.00  0.00    +0.378 HD
ENDBRANCH  17  18
ENDBRANCH  16  17
ENDBRANCH   5   6
ENDBRANCH   4   5
TORSDOF 9
ENDMDL
MODEL 6
REMARK VINA RESULT:      -6.2      2.142      3.118
REMARK  Name = ZINC95486228
REMARK  10 active torsions:
REMARK  status: ('A' for Active; 'I' for Inactive)
REMARK    1  A    between atoms: C1_1  and  C2_2
REMARK    2  A    between atoms: C4_4  and  O4_29
REMARK    3  A    between atoms: C6_7  and  C19_26
REMARK    4  A    between atoms: C18_23  and  O1_25
REMARK    5  A    between atoms: O4_29  and  C20_30
REMARK    6  A    between atoms: C21_32  and  O9_45
REMARK    7  A    between atoms: C22_34  and  O8_44
REMARK    8  A    between atoms: C23_36  and  O7_43
REMARK    9  A    between atoms: C24_38  and  C25_41
REMARK   10  A    between atoms: C25_41  and  O6_42
REMARK                            x       y       z     vdW  Elec       q    Type
REMARK                         _______ _______ _______ _____ _____    ______ ____
ROOT
ATOM      1  C   UNL     1      46.685  17.540  17.950  0.00  0.00    +0.013 C 
ATOM      2  C   UNL     1      47.921  17.416  18.859  0.00  0.00    -0.015 C 
ATOM      3  C   UNL     1      48.046  18.700  19.682  0.00  0.00    +0.037 C 
ATOM      4  C   UNL     1      46.844  18.842  20.617  0.00  0.00    +0.187 C 
ATOM     21  C   UNL     1      46.775  17.660  21.577  0.00  0.00    -0.003 C 
ATOM     22  C   UNL     1      46.715  16.328  20.837  0.00  0.00    -0.096 C 
ATOM     26  C   UNL     1      49.123  17.269  17.929  0.00  0.00    +0.011 C 
ATOM     27  C   UNL     1      50.087  18.448  18.039  0.00  0.00    +0.026 C 
ATOM     28  C   UNL     1      51.240  18.288  17.048  0.00  0.00    +0.006 C 
ATOM     29  C   UNL     1      51.857  16.887  17.121  0.00  0.00    +0.015 C 
ATOM     30  C   UNL     1      52.202  16.576  18.568  0.00  0.00    -0.140 C 
ATOM     31  C   UNL     1      50.934  16.014  19.200  0.00  0.00    +0.208 C 
ATOM     34  C   UNL     1      53.356  16.750  19.162  0.00  0.00    +0.008 C 
ATOM     35  C   UNL     1      50.747  15.855  16.797  0.00  0.00    +0.023 C 
ATOM     36  C   UNL     1      49.879  15.962  18.100  0.00  0.00    -0.035 C 
ATOM     37  C   UNL     1      48.985  14.743  18.143  0.00  0.00    +0.005 C 
ATOM     38  C   UNL     1      47.745  14.912  19.016  0.00  0.00    +0.031 C 
ATOM     39  C   UNL     1      47.805  16.223  19.786  0.00  0.00    +0.026 C 
ENDROOT
BRANCH  22  23
ATOM     23  C   UNL     1      45.335  16.054  20.324  0.00  0.00    +0.503 C 
ATOM     24  O   UNL     1      45.052  14.949  19.893  0.00  0.00    -0.699 OA
ATOM     25  O   UNL     1      44.493  16.936  20.337  0.00  0.00    -0.698 OA
ENDBRANCH  22  23
BRANCH  31  32
ATOM     32  O   UNL     1      50.586  16.842  20.307  0.00  0.00    -0.533 OA
ATOM     33  H   UNL     1      49.659  16.776  20.571  0.00  0.00    +0.366 HD
ENDBRANCH  31  32
BRANCH   4   5
ATOM      5  O   UNL     1      46.995  20.050  21.377  0.00  0.00    -0.374 OA
BRANCH   5   6
ATOM      6  C   UNL     1      45.845  20.899  21.355  0.00  0.00    +0.296 C 
ATOM      7  C   UNL     1      46.276  22.333  21.040  0.00  0.00    +0.140 C 
ATOM     10  C   UNL     1      45.033  23.225  20.960  0.00  0.00    +0.161 C 
ATOM     13  C   UNL     1      44.079  22.659  19.903  0.00  0.00    +0.169 C 
ATOM     16  C   UNL     1      43.734  21.211  20.263  0.00  0.00    +0.191 C 
ATOM     20  O   UNL     1      44.936  20.444  20.352  0.00  0.00    -0.372 OA
BRANCH   7   8
ATOM      8  O   UNL     1      47.141  22.810  22.073  0.00  0.00    -0.559 OA
ATOM      9  H   UNL     1      46.822  23.608  22.517  0.00  0.00    +0.394 HD
ENDBRANCH   7   8
BRANCH  10  11
ATOM     11  O   UNL     1      45.419  24.552  20.597  0.00  0.00    -0.560 OA
ATOM     12  H   UNL     1      45.731  25.089  21.338  0.00  0.00    +0.392 HD
ENDBRANCH  10  11
BRANCH  13  14
ATOM     14  O   UNL     1      42.884  23.442  19.871  0.00  0.00    -0.551 OA
ATOM     15  H   UNL     1      42.262  23.239  20.584  0.00  0.00    +0.389 HD
ENDBRANCH  13  14
BRANCH  16  17
ATOM     17  C   UNL     1      42.829  20.619  19.180  0.00  0.00    +0.214 C 
BRANCH  17  18
ATOM     18  O   UNL     1      41.462  20.883  19.504  0.00  0.00    -0.553 OA
ATOM     19  H   UNL     1      41.137  20.389  20.268  0.00  0.00    +0.378 HD
ENDBRANCH  17  18
ENDBRANCH  16  17
ENDBRANCH   5   6
ENDBRANCH   4   5
TORSDOF 9
ENDMDL
MODEL 7
REMARK VINA RESULT:      -6.2      5.129      8.645
REMARK  Name = ZINC95486228
REMARK  10 active torsions:
REMARK  status: ('A' for Active; 'I' for Inactive)
REMARK    1  A    between atoms: C1_1  and  C2_2
REMARK    2  A    between atoms: C4_4  and  O4_29
REMARK    3  A    between atoms: C6_7  and  C19_26
REMARK    4  A    between atoms: C18_23  and  O1_25
REMARK    5  A    between atoms: O4_29  and  C20_30
REMARK    6  A    between atoms: C21_32  and  O9_45
REMARK    7  A    between atoms: C22_34  and  O8_44
REMARK    8  A    between atoms: C23_36  and  O7_43
REMARK    9  A    between atoms: C24_38  and  C25_41
REMARK   10  A    between atoms: C25_41  and  O6_42
REMARK                            x       y       z     vdW  Elec       q    Type
REMARK                         _______ _______ _______ _____ _____    ______ ____
ROOT
ATOM      1  C   UNL     1      48.511  15.731  20.272  0.00  0.00    +0.013 C 
ATOM      2  C   UNL     1      48.873  16.301  18.888  0.00  0.00    -0.015 C 
ATOM      3  C   UNL     1      49.122  15.131  17.934  0.00  0.00    +0.037 C 
ATOM      4  C   UNL     1      47.834  14.330  17.740  0.00  0.00    +0.187 C 
ATOM     21  C   UNL     1      46.744  15.213  17.143  0.00  0.00    -0.003 C 
ATOM     22  C   UNL     1      46.476  16.445  18.002  0.00  0.00    -0.096 C 
ATOM     26  C   UNL     1      50.156  17.105  19.080  0.00  0.00    +0.011 C 
ATOM     27  C   UNL     1      51.333  16.507  18.313  0.00  0.00    +0.026 C 
ATOM     28  C   UNL     1      52.607  17.309  18.583  0.00  0.00    +0.006 C 
ATOM     29  C   UNL     1      52.373  18.814  18.417  0.00  0.00    +0.015 C 
ATOM     30  C   UNL     1      51.727  19.066  17.064  0.00  0.00    -0.140 C 
ATOM     31  C   UNL     1      50.227  18.889  17.267  0.00  0.00    +0.208 C 
ATOM     34  C   UNL     1      52.330  19.376  15.945  0.00  0.00    +0.008 C 
ATOM     35  C   UNL     1      51.269  19.242  19.417  0.00  0.00    +0.023 C 
ATOM     36  C   UNL     1      50.014  18.582  18.745  0.00  0.00    -0.035 C 
ATOM     37  C   UNL     1      48.790  19.228  19.353  0.00  0.00    +0.005 C 
ATOM     38  C   UNL     1      47.519  18.393  19.226  0.00  0.00    +0.031 C 
ATOM     39  C   UNL     1      47.760  17.176  18.346  0.00  0.00    +0.026 C 
ENDROOT
BRANCH  22  23
ATOM     23  C   UNL     1      45.622  16.107  19.184  0.00  0.00    +0.503 C 
ATOM     24  O   UNL     1      45.115  16.997  19.845  0.00  0.00    -0.699 OA
ATOM     25  O   UNL     1      45.434  14.941  19.487  0.00  0.00    -0.698 OA
ENDBRANCH  22  23
BRANCH  31  32
ATOM     32  O   UNL     1      49.779  17.863  16.384  0.00  0.00    -0.533 OA
ATOM     33  H   UNL     1      48.818  17.824  16.281  0.00  0.00    +0.366 HD
ENDBRANCH  31  32
BRANCH   4   5
ATOM      5  O   UNL     1      48.100  13.247  16.837  0.00  0.00    -0.374 OA
BRANCH   5   6
ATOM      6  C   UNL     1      49.475  13.118  16.469  0.00  0.00    +0.296 C 
ATOM      7  C   UNL     1      50.015  11.778  16.972  0.00  0.00    +0.140 C 
ATOM     10  C   UNL     1      51.471  11.622  16.522  0.00  0.00    +0.161 C 
ATOM     13  C   UNL     1      51.538  11.741  14.996  0.00  0.00    +0.169 C 
ATOM     16  C   UNL     1      50.938  13.083  14.569  0.00  0.00    +0.191 C 
ATOM     20  O   UNL     1      49.595  13.176  15.046  0.00  0.00    -0.372 OA
BRANCH   7   8
ATOM      8  O   UNL     1      49.948  11.741  18.399  0.00  0.00    -0.559 OA
ATOM      9  H   UNL     1      49.908  12.614  18.814  0.00  0.00    +0.394 HD
ENDBRANCH   7   8
BRANCH  10  11
ATOM     11  O   UNL     1      51.963  10.343  16.926  0.00  0.00    -0.560 OA
ATOM     12  H   UNL     1      51.286   9.759  17.294  0.00  0.00    +0.392 HD
ENDBRANCH  10  11
BRANCH  13  14
ATOM     14  O   UNL     1      52.901  11.669  14.571  0.00  0.00    -0.551 OA
ATOM     15  H   UNL     1      53.341  10.839  14.803  0.00  0.00    +0.389 HD
ENDBRANCH  13  14
BRANCH  16  17
ATOM     17  C   UNL     1      50.946  13.183  13.043  0.00  0.00    +0.214 C 
BRANCH  17  18
ATOM     18  O   UNL     1      52.180  13.759  12.610  0.00  0.00    -0.553 OA
ATOM     19  H   UNL     1      52.306  14.676  12.889  0.00  0.00    +0.378 HD
ENDBRANCH  17  18
ENDBRANCH  16  17
ENDBRANCH   5   6
ENDBRANCH   4   5
TORSDOF 9
ENDMDL
MODEL 8
REMARK VINA RESULT:      -6.1      2.353      5.252
REMARK  Name = ZINC95486228
REMARK  10 active torsions:
REMARK  status: ('A' for Active; 'I' for Inactive)
REMARK    1  A    between atoms: C1_1  and  C2_2
REMARK    2  A    between atoms: C4_4  and  O4_29
REMARK    3  A    between atoms: C6_7  and  C19_26
REMARK    4  A    between atoms: C18_23  and  O1_25
REMARK    5  A    between atoms: O4_29  and  C20_30
REMARK    6  A    between atoms: C21_32  and  O9_45
REMARK    7  A    between atoms: C22_34  and  O8_44
REMARK    8  A    between atoms: C23_36  and  O7_43
REMARK    9  A    between atoms: C24_38  and  C25_41
REMARK   10  A    between atoms: C25_41  and  O6_42
REMARK                            x       y       z     vdW  Elec       q    Type
REMARK                         _______ _______ _______ _____ _____    ______ ____
ROOT
ATOM      1  C   UNL     1      51.438  18.183  20.209  0.00  0.00    +0.013 C 
ATOM      2  C   UNL     1      50.109  18.022  19.449  0.00  0.00    -0.015 C 
ATOM      3  C   UNL     1      48.969  18.462  20.371  0.00  0.00    +0.037 C 
ATOM      4  C   UNL     1      49.098  19.952  20.689  0.00  0.00    +0.187 C 
ATOM     21  C   UNL     1      49.026  20.776  19.408  0.00  0.00    -0.003 C 
ATOM     22  C   UNL     1      50.092  20.356  18.401  0.00  0.00    -0.096 C 
ATOM     26  C   UNL     1      49.979  16.535  19.126  0.00  0.00    +0.011 C 
ATOM     27  C   UNL     1      48.790  15.891  19.835  0.00  0.00    +0.026 C 
ATOM     28  C   UNL     1      48.736  14.393  19.531  0.00  0.00    +0.006 C 
ATOM     29  C   UNL     1      48.873  14.117  18.030  0.00  0.00    +0.015 C 
ATOM     30  C   UNL     1      47.860  14.964  17.279  0.00  0.00    -0.140 C 
ATOM     31  C   UNL     1      48.518  16.320  17.055  0.00  0.00    +0.208 C 
ATOM     34  C   UNL     1      46.660  14.609  16.894  0.00  0.00    +0.008 C 
ATOM     35  C   UNL     1      50.232  14.693  17.556  0.00  0.00    +0.023 C 
ATOM     36  C   UNL     1      49.924  16.230  17.638  0.00  0.00    -0.035 C 
ATOM     37  C   UNL     1      50.987  16.942  16.831  0.00  0.00    +0.005 C 
ATOM     38  C   UNL     1      51.168  18.411  17.202  0.00  0.00    +0.031 C 
ATOM     39  C   UNL     1      50.094  18.855  18.183  0.00  0.00    +0.026 C 
ENDROOT
BRANCH  22  23
ATOM     23  C   UNL     1      51.429  20.931  18.754  0.00  0.00    +0.503 C 
ATOM     24  O   UNL     1      52.369  20.803  17.988  0.00  0.00    -0.699 OA
ATOM     25  O   UNL     1      51.578  21.526  19.807  0.00  0.00    -0.698 OA
ENDBRANCH  22  23
BRANCH  31  32
ATOM     32  O   UNL     1      47.696  17.317  17.657  0.00  0.00    -0.533 OA
ATOM     33  H   UNL     1      47.283  17.921  17.025  0.00  0.00    +0.366 HD
ENDBRANCH  31  32
BRANCH   4   5
ATOM      5  O   UNL     1      48.014  20.333  21.548  0.00  0.00    -0.374 OA
BRANCH   5   6
ATOM      6  C   UNL     1      46.911  20.931  20.863  0.00  0.00    +0.296 C 
ATOM      7  C   UNL     1      45.616  20.216  21.258  0.00  0.00    +0.140 C 
ATOM     10  C   UNL     1      44.433  20.901  20.567  0.00  0.00    +0.161 C 
ATOM     13  C   UNL     1      44.420  22.384  20.952  0.00  0.00    +0.169 C 
ATOM     16  C   UNL     1      45.761  23.015  20.569  0.00  0.00    +0.191 C 
ATOM     20  O   UNL     1      46.820  22.311  21.221  0.00  0.00    -0.372 OA
BRANCH   7   8
ATOM      8  O   UNL     1      45.683  18.848  20.850  0.00  0.00    -0.559 OA
ATOM      9  H   UNL     1      45.091  18.262  21.341  0.00  0.00    +0.394 HD
ENDBRANCH   7   8
BRANCH  10  11
ATOM     11  O   UNL     1      43.213  20.285  20.984  0.00  0.00    -0.560 OA
ATOM     12  H   UNL     1      42.658  20.848  21.541  0.00  0.00    +0.392 HD
ENDBRANCH  10  11
BRANCH  13  14
ATOM     14  O   UNL     1      43.362  23.048  20.256  0.00  0.00    -0.551 OA
ATOM     15  H   UNL     1      42.890  23.702  20.791  0.00  0.00    +0.389 HD
ENDBRANCH  13  14
BRANCH  16  17
ATOM     17  C   UNL     1      45.778  24.481  21.006  0.00  0.00    +0.214 C 
BRANCH  17  18
ATOM     18  O   UNL     1      45.089  25.274  20.037  0.00  0.00    -0.553 OA
ATOM     19  H   UNL     1      44.374  24.808  19.584  0.00  0.00    +0.378 HD
ENDBRANCH  17  18
ENDBRANCH  16  17
ENDBRANCH   5   6
ENDBRANCH   4   5
TORSDOF 9
ENDMDL
MODEL 9
REMARK VINA RESULT:      -6.1      4.204      7.883
REMARK  Name = ZINC95486228
REMARK  10 active torsions:
REMARK  status: ('A' for Active; 'I' for Inactive)
REMARK    1  A    between atoms: C1_1  and  C2_2
REMARK    2  A    between atoms: C4_4  and  O4_29
REMARK    3  A    between atoms: C6_7  and  C19_26
REMARK    4  A    between atoms: C18_23  and  O1_25
REMARK    5  A    between atoms: O4_29  and  C20_30
REMARK    6  A    between atoms: C21_32  and  O9_45
REMARK    7  A    between atoms: C22_34  and  O8_44
REMARK    8  A    between atoms: C23_36  and  O7_43
REMARK    9  A    between atoms: C24_38  and  C25_41
REMARK   10  A    between atoms: C25_41  and  O6_42
REMARK                            x       y       z     vdW  Elec       q    Type
REMARK                         _______ _______ _______ _____ _____    ______ ____
ROOT
ATOM      1  C   UNL     1      46.094  16.681  18.150  0.00  0.00    +0.013 C 
ATOM      2  C   UNL     1      47.019  15.529  18.581  0.00  0.00    -0.015 C 
ATOM      3  C   UNL     1      48.462  16.037  18.568  0.00  0.00    +0.037 C 
ATOM      4  C   UNL     1      48.640  17.138  19.614  0.00  0.00    +0.187 C 
ATOM     21  C   UNL     1      48.332  16.601  21.008  0.00  0.00    -0.003 C 
ATOM     22  C   UNL     1      46.928  16.012  21.093  0.00  0.00    -0.096 C 
ATOM     26  C   UNL     1      46.840  14.426  17.541  0.00  0.00    +0.011 C 
ATOM     27  C   UNL     1      48.120  14.163  16.751  0.00  0.00    +0.026 C 
ATOM     28  C   UNL     1      47.877  13.097  15.682  0.00  0.00    +0.006 C 
ATOM     29  C   UNL     1      47.163  11.870  16.261  0.00  0.00    +0.015 C 
ATOM     30  C   UNL     1      47.922  11.392  17.488  0.00  0.00    -0.140 C 
ATOM     31  C   UNL     1      47.395  12.211  18.661  0.00  0.00    +0.208 C 
ATOM     34  C   UNL     1      48.842  10.463  17.538  0.00  0.00    +0.008 C 
ATOM     35  C   UNL     1      45.806  12.336  16.847  0.00  0.00    +0.023 C 
ATOM     36  C   UNL     1      46.305  13.122  18.110  0.00  0.00    -0.035 C 
ATOM     37  C   UNL     1      45.112  13.301  19.024  0.00  0.00    +0.005 C 
ATOM     38  C   UNL     1      45.259  14.450  20.017  0.00  0.00    +0.031 C 
ATOM     39  C   UNL     1      46.665  15.029  19.967  0.00  0.00    +0.026 C 
ENDROOT
BRANCH  22  23
ATOM     23  C   UNL     1      45.895  17.088  21.227  0.00  0.00    +0.503 C 
ATOM     24  O   UNL     1      46.214  18.258  21.111  0.00  0.00    -0.699 OA
ATOM     25  O   UNL     1      44.733  16.793  21.453  0.00  0.00    -0.698 OA
ENDBRANCH  22  23
BRANCH  31  32
ATOM     32  O   UNL     1      48.495  12.901  19.249  0.00  0.00    -0.533 OA
ATOM     33  H   UNL     1      48.592  12.751  20.199  0.00  0.00    +0.366 HD
ENDBRANCH  31  32
BRANCH   4   5
ATOM      5  O   UNL     1      50.002  17.587  19.580  0.00  0.00    -0.374 OA
BRANCH   5   6
ATOM      6  C   UNL     1      50.235  18.677  18.685  0.00  0.00    +0.296 C 
ATOM      7  C   UNL     1      51.041  19.762  19.402  0.00  0.00    +0.140 C 
ATOM     10  C   UNL     1      51.337  20.900  18.419  0.00  0.00    +0.161 C 
ATOM     13  C   UNL     1      52.077  20.331  17.204  0.00  0.00    +0.169 C 
ATOM     16  C   UNL     1      51.230  19.223  16.573  0.00  0.00    +0.191 C 
ATOM     20  O   UNL     1      50.965  18.213  17.549  0.00  0.00    -0.372 OA
BRANCH   7   8
ATOM      8  O   UNL     1      50.288  20.267  20.506  0.00  0.00    -0.559 OA
ATOM      9  H   UNL     1      50.710  21.005  20.966  0.00  0.00    +0.394 HD
ENDBRANCH   7   8
BRANCH  10  11
ATOM     11  O   UNL     1      52.150  21.885  19.059  0.00  0.00    -0.560 OA
ATOM     12  H   UNL     1      52.944  21.529  19.479  0.00  0.00    +0.392 HD
ENDBRANCH  10  11
BRANCH  13  14
ATOM     14  O   UNL     1      52.295  21.370  16.248  0.00  0.00    -0.551 OA
ATOM     15  H   UNL     1      51.921  22.225  16.505  0.00  0.00    +0.389 HD
ENDBRANCH  13  14
BRANCH  16  17
ATOM     17  C   UNL     1      51.989  18.609  15.395  0.00  0.00    +0.214 C 
BRANCH  17  18
ATOM     18  O   UNL     1      52.355  17.264  15.713  0.00  0.00    -0.553 OA
ATOM     19  H   UNL     1      51.605  16.661  15.793  0.00  0.00    +0.378 HD
ENDBRANCH  17  18
ENDBRANCH  16  17
ENDBRANCH   5   6
ENDBRANCH   4   5
TORSDOF 9
ENDMDL
