MODEL 1
REMARK VINA RESULT:      -5.8      0.000      0.000
REMARK  Name = ZINC95486361
REMARK  4 active torsions:
REMARK  status: ('A' for Active; 'I' for Inactive)
REMARK    1  A    between atoms: C1_1  and  C2_2
REMARK    2  A    between atoms: C6_7  and  C18_24
REMARK    3  A    between atoms: C6_7  and  C19_25
REMARK    4  A    between atoms: C19_25  and  O2_26
REMARK                            x       y       z     vdW  Elec       q    Type
REMARK                         _______ _______ _______ _____ _____    ______ ____
ROOT
ATOM      1  C   UNL     1      50.979  19.488  20.091  0.00  0.00    +0.031 C 
ATOM      2  C   UNL     1      49.843  19.671  19.082  0.00  0.00    -0.049 C 
ATOM      3  C   UNL     1      49.987  21.032  18.391  0.00  0.00    +0.048 C 
ATOM      4  C   UNL     1      51.342  21.122  17.686  0.00  0.00    +0.011 C 
ATOM      5  C   UNL     1      51.451  19.949  16.735  0.00  0.00    +0.369 C 
ATOM      6  C   UNL     1      51.217  18.566  17.296  0.00  0.00    -0.100 C 
ATOM     10  C   UNL     1      52.355  18.204  18.251  0.00  0.00    +0.058 C 
ATOM     11  O   UNL     1      51.717  20.114  15.569  0.00  0.00    -0.435 OA
ATOM     12  C   UNL     1      48.494  19.670  19.822  0.00  0.00    +0.025 C 
ATOM     13  C   UNL     1      47.718  20.891  19.306  0.00  0.00    +0.047 C 
ATOM     14  C   UNL     1      46.207  20.671  19.375  0.00  0.00    -0.026 C 
ATOM     15  C   UNL     1      45.796  19.477  18.462  0.00  0.00    -0.076 C 
ATOM     16  C   UNL     1      46.982  18.507  18.159  0.00  0.00    +0.059 C 
ATOM     17  C   UNL     1      45.587  19.429  19.996  0.00  0.00    -0.032 C 
ATOM     18  C   UNL     1      46.538  18.333  20.529  0.00  0.00    +0.050 C 
ATOM     19  C   UNL     1      47.711  18.399  19.509  0.00  0.00    -0.056 C 
ATOM     20  C   UNL     1      48.532  17.137  19.627  0.00  0.00    +0.026 C 
ATOM     21  C   UNL     1      49.791  17.193  18.772  0.00  0.00    +0.020 C 
ATOM     22  C   UNL     1      49.887  18.544  18.055  0.00  0.00    +0.024 C 
ENDROOT
BRANCH   6   7
ATOM      7  C   UNL     1      51.169  17.553  16.151  0.00  0.00    +0.189 C 
BRANCH   7   8
ATOM      8  O   UNL     1      52.440  17.511  15.499  0.00  0.00    -0.560 OA
ATOM      9  H   UNL     1      52.395  17.264  14.565  0.00  0.00    +0.379 HD
ENDBRANCH   7   8
ENDBRANCH   6   7
TORSDOF 2
ENDMDL
MODEL 2
REMARK VINA RESULT:      -5.8      2.479      5.314
REMARK  Name = ZINC95486361
REMARK  4 active torsions:
REMARK  status: ('A' for Active; 'I' for Inactive)
REMARK    1  A    between atoms: C1_1  and  C2_2
REMARK    2  A    between atoms: C6_7  and  C18_24
REMARK    3  A    between atoms: C6_7  and  C19_25
REMARK    4  A    between atoms: C19_25  and  O2_26
REMARK                            x       y       z     vdW  Elec       q    Type
REMARK                         _______ _______ _______ _____ _____    ______ ____
ROOT
ATOM      1  C   UNL     1      48.784  17.662  20.460  0.00  0.00    +0.031 C 
ATOM      2  C   UNL     1      48.896  18.560  19.226  0.00  0.00    -0.049 C 
ATOM      3  C   UNL     1      48.309  17.834  18.010  0.00  0.00    +0.048 C 
ATOM      4  C   UNL     1      46.845  17.473  18.271  0.00  0.00    +0.011 C 
ATOM      5  C   UNL     1      46.108  18.746  18.626  0.00  0.00    +0.369 C 
ATOM      6  C   UNL     1      46.669  19.595  19.742  0.00  0.00    -0.100 C 
ATOM     10  C   UNL     1      46.518  18.854  21.072  0.00  0.00    +0.058 C 
ATOM     11  O   UNL     1      45.105  19.072  18.038  0.00  0.00    -0.435 OA
ATOM     12  C   UNL     1      50.380  18.836  18.925  0.00  0.00    +0.025 C 
ATOM     13  C   UNL     1      50.575  18.561  17.427  0.00  0.00    +0.047 C 
ATOM     14  C   UNL     1      51.709  19.403  16.841  0.00  0.00    -0.026 C 
ATOM     15  C   UNL     1      51.371  20.919  16.965  0.00  0.00    -0.076 C 
ATOM     16  C   UNL     1      50.311  21.218  18.072  0.00  0.00    +0.059 C 
ATOM     17  C   UNL     1      52.589  20.301  17.696  0.00  0.00    -0.032 C 
ATOM     18  C   UNL     1      52.280  20.393  19.207  0.00  0.00    +0.050 C 
ATOM     19  C   UNL     1      50.727  20.290  19.227  0.00  0.00    -0.056 C 
ATOM     20  C   UNL     1      50.223  20.769  20.568  0.00  0.00    +0.026 C 
ATOM     21  C   UNL     1      48.724  20.552  20.724  0.00  0.00    +0.020 C 
ATOM     22  C   UNL     1      48.153  19.868  19.477  0.00  0.00    +0.024 C 
ENDROOT
BRANCH   6   7
ATOM      7  C   UNL     1      45.909  20.921  19.807  0.00  0.00    +0.189 C 
BRANCH   7   8
ATOM      8  O   UNL     1      45.988  21.578  18.540  0.00  0.00    -0.560 OA
ATOM      9  H   UNL     1      46.265  21.002  17.815  0.00  0.00    +0.379 HD
ENDBRANCH   7   8
ENDBRANCH   6   7
TORSDOF 2
ENDMDL
MODEL 3
REMARK VINA RESULT:      -5.5      1.446      2.254
REMARK  Name = ZINC95486361
REMARK  4 active torsions:
REMARK  status: ('A' for Active; 'I' for Inactive)
REMARK    1  A    between atoms: C1_1  and  C2_2
REMARK    2  A    between atoms: C6_7  and  C18_24
REMARK    3  A    between atoms: C6_7  and  C19_25
REMARK    4  A    between atoms: C19_25  and  O2_26
REMARK                            x       y       z     vdW  Elec       q    Type
REMARK                         _______ _______ _______ _____ _____    ______ ____
ROOT
ATOM      1  C   UNL     1      50.870  18.113  19.966  0.00  0.00    +0.031 C 
ATOM      2  C   UNL     1      49.692  18.427  19.042  0.00  0.00    -0.049 C 
ATOM      3  C   UNL     1      49.156  19.828  19.354  0.00  0.00    +0.048 C 
ATOM      4  C   UNL     1      50.265  20.868  19.172  0.00  0.00    +0.011 C 
ATOM      5  C   UNL     1      50.806  20.729  17.765  0.00  0.00    +0.369 C 
ATOM      6  C   UNL     1      51.260  19.360  17.318  0.00  0.00    -0.100 C 
ATOM     10  C   UNL     1      52.516  18.960  18.095  0.00  0.00    +0.058 C 
ATOM     11  O   UNL     1      50.872  21.681  17.025  0.00  0.00    -0.435 OA
ATOM     12  C   UNL     1      48.552  17.429  19.305  0.00  0.00    +0.025 C 
ATOM     13  C   UNL     1      47.273  18.265  19.461  0.00  0.00    +0.047 C 
ATOM     14  C   UNL     1      46.030  17.481  19.041  0.00  0.00    -0.026 C 
ATOM     15  C   UNL     1      46.119  17.100  17.532  0.00  0.00    -0.076 C 
ATOM     16  C   UNL     1      47.583  17.111  16.988  0.00  0.00    +0.059 C 
ATOM     17  C   UNL     1      46.082  16.015  18.637  0.00  0.00    -0.032 C 
ATOM     18  C   UNL     1      47.463  15.320  18.609  0.00  0.00    +0.050 C 
ATOM     19  C   UNL     1      48.394  16.471  18.129  0.00  0.00    -0.056 C 
ATOM     20  C   UNL     1      49.698  15.876  17.652  0.00  0.00    +0.026 C 
ATOM     21  C   UNL     1      50.724  16.948  17.312  0.00  0.00    +0.020 C 
ATOM     22  C   UNL     1      50.148  18.342  17.589  0.00  0.00    +0.024 C 
ENDROOT
BRANCH   6   7
ATOM      7  C   UNL     1      51.574  19.389  15.821  0.00  0.00    +0.189 C 
BRANCH   7   8
ATOM      8  O   UNL     1      52.669  20.275  15.581  0.00  0.00    -0.560 OA
ATOM      9  H   UNL     1      53.351  20.252  16.267  0.00  0.00    +0.379 HD
ENDBRANCH   7   8
ENDBRANCH   6   7
TORSDOF 2
ENDMDL
MODEL 4
REMARK VINA RESULT:      -5.5      2.372      4.780
REMARK  Name = ZINC95486361
REMARK  4 active torsions:
REMARK  status: ('A' for Active; 'I' for Inactive)
REMARK    1  A    between atoms: C1_1  and  C2_2
REMARK    2  A    between atoms: C6_7  and  C18_24
REMARK    3  A    between atoms: C6_7  and  C19_25
REMARK    4  A    between atoms: C19_25  and  O2_26
REMARK                            x       y       z     vdW  Elec       q    Type
REMARK                         _______ _______ _______ _____ _____    ______ ____
ROOT
ATOM      1  C   UNL     1      49.632  16.361  19.893  0.00  0.00    +0.031 C 
ATOM      2  C   UNL     1      49.508  17.513  18.893  0.00  0.00    -0.049 C 
ATOM      3  C   UNL     1      49.740  16.986  17.473  0.00  0.00    +0.048 C 
ATOM      4  C   UNL     1      48.722  15.889  17.148  0.00  0.00    +0.011 C 
ATOM      5  C   UNL     1      47.338  16.463  17.359  0.00  0.00    +0.369 C 
ATOM      6  C   UNL     1      47.040  17.108  18.692  0.00  0.00    -0.100 C 
ATOM     10  C   UNL     1      47.022  16.037  19.784  0.00  0.00    +0.058 C 
ATOM     11  O   UNL     1      46.499  16.406  16.491  0.00  0.00    -0.435 OA
ATOM     12  C   UNL     1      50.598  18.561  19.179  0.00  0.00    +0.025 C 
ATOM     13  C   UNL     1      51.263  18.871  17.830  0.00  0.00    +0.047 C 
ATOM     14  C   UNL     1      51.825  20.293  17.791  0.00  0.00    -0.026 C 
ATOM     15  C   UNL     1      50.675  21.330  17.958  0.00  0.00    -0.076 C 
ATOM     16  C   UNL     1      49.405  20.726  18.638  0.00  0.00    +0.059 C 
ATOM     17  C   UNL     1      51.814  21.212  19.002  0.00  0.00    -0.032 C 
ATOM     18  C   UNL     1      51.159  20.691  20.302  0.00  0.00    +0.050 C 
ATOM     19  C   UNL     1      49.984  19.834  19.750  0.00  0.00    -0.056 C 
ATOM     20  C   UNL     1      48.997  19.583  20.866  0.00  0.00    +0.026 C 
ATOM     21  C   UNL     1      47.895  18.619  20.448  0.00  0.00    +0.020 C 
ATOM     22  C   UNL     1      48.124  18.143  19.009  0.00  0.00    +0.024 C 
ENDROOT
BRANCH   6   7
ATOM      7  C   UNL     1      45.676  17.799  18.631  0.00  0.00    +0.189 C 
BRANCH   7   8
ATOM      8  O   UNL     1      45.702  18.818  17.630  0.00  0.00    -0.560 OA
ATOM      9  H   UNL     1      45.332  19.663  17.920  0.00  0.00    +0.379 HD
ENDBRANCH   7   8
ENDBRANCH   6   7
TORSDOF 2
ENDMDL
MODEL 5
REMARK VINA RESULT:      -5.3     18.970     20.996
REMARK  Name = ZINC95486361
REMARK  4 active torsions:
REMARK  status: ('A' for Active; 'I' for Inactive)
REMARK    1  A    between atoms: C1_1  and  C2_2
REMARK    2  A    between atoms: C6_7  and  C18_24
REMARK    3  A    between atoms: C6_7  and  C19_25
REMARK    4  A    between atoms: C19_25  and  O2_26
REMARK                            x       y       z     vdW  Elec       q    Type
REMARK                         _______ _______ _______ _____ _____    ______ ____
ROOT
ATOM      1  C   UNL     1      55.745  35.382   3.426  0.00  0.00    +0.031 C 
ATOM      2  C   UNL     1      54.801  34.185   3.564  0.00  0.00    -0.049 C 
ATOM      3  C   UNL     1      54.108  33.923   2.222  0.00  0.00    +0.048 C 
ATOM      4  C   UNL     1      55.152  33.652   1.136  0.00  0.00    +0.011 C 
ATOM      5  C   UNL     1      56.019  32.502   1.601  0.00  0.00    +0.369 C 
ATOM      6  C   UNL     1      56.662  32.613   2.963  0.00  0.00    -0.100 C 
ATOM     10  C   UNL     1      57.723  33.715   2.938  0.00  0.00    +0.058 C 
ATOM     11  O   UNL     1      56.192  31.530   0.906  0.00  0.00    -0.435 OA
ATOM     12  C   UNL     1      53.704  34.512   4.592  0.00  0.00    +0.025 C 
ATOM     13  C   UNL     1      52.369  34.133   3.935  0.00  0.00    +0.047 C 
ATOM     14  C   UNL     1      51.320  33.738   4.974  0.00  0.00    -0.026 C 
ATOM     15  C   UNL     1      51.791  32.478   5.761  0.00  0.00    -0.076 C 
ATOM     16  C   UNL     1      53.337  32.269   5.704  0.00  0.00    +0.059 C 
ATOM     17  C   UNL     1      51.570  33.837   6.471  0.00  0.00    -0.032 C 
ATOM     18  C   UNL     1      52.963  34.312   6.942  0.00  0.00    +0.050 C 
ATOM     19  C   UNL     1      53.898  33.693   5.863  0.00  0.00    -0.056 C 
ATOM     20  C   UNL     1      55.317  33.705   6.382  0.00  0.00    +0.026 C 
ATOM     21  C   UNL     1      56.315  33.260   5.322  0.00  0.00    +0.020 C 
ATOM     22  C   UNL     1      55.593  32.959   4.004  0.00  0.00    +0.024 C 
ENDROOT
BRANCH   6   7
ATOM      7  C   UNL     1      57.319  31.280   3.328  0.00  0.00    +0.189 C 
BRANCH   7   8
ATOM      8  O   UNL     1      58.588  31.181   2.679  0.00  0.00    -0.560 OA
ATOM      9  H   UNL     1      59.338  31.419   3.241  0.00  0.00    +0.379 HD
ENDBRANCH   7   8
ENDBRANCH   6   7
TORSDOF 2
ENDMDL
MODEL 6
REMARK VINA RESULT:      -5.1      2.682      5.003
REMARK  Name = ZINC95486361
REMARK  4 active torsions:
REMARK  status: ('A' for Active; 'I' for Inactive)
REMARK    1  A    between atoms: C1_1  and  C2_2
REMARK    2  A    between atoms: C6_7  and  C18_24
REMARK    3  A    between atoms: C6_7  and  C19_25
REMARK    4  A    between atoms: C19_25  and  O2_26
REMARK                            x       y       z     vdW  Elec       q    Type
REMARK                         _______ _______ _______ _____ _____    ______ ____
ROOT
ATOM      1  C   UNL     1      48.596  16.709  17.301  0.00  0.00    +0.031 C 
ATOM      2  C   UNL     1      49.622  17.459  18.153  0.00  0.00    -0.049 C 
ATOM      3  C   UNL     1      48.983  17.863  19.486  0.00  0.00    +0.048 C 
ATOM      4  C   UNL     1      48.485  16.620  20.228  0.00  0.00    +0.011 C 
ATOM      5  C   UNL     1      49.655  15.671  20.383  0.00  0.00    +0.369 C 
ATOM      6  C   UNL     1      50.425  15.295  19.139  0.00  0.00    -0.100 C 
ATOM     10  C   UNL     1      49.541  14.436  18.233  0.00  0.00    +0.058 C 
ATOM     11  O   UNL     1      49.962  15.230  21.464  0.00  0.00    -0.435 OA
ATOM     12  C   UNL     1      50.041  18.752  17.432  0.00  0.00    +0.025 C 
ATOM     13  C   UNL     1      49.938  19.878  18.472  0.00  0.00    +0.047 C 
ATOM     14  C   UNL     1      50.920  21.012  18.176  0.00  0.00    -0.026 C 
ATOM     15  C   UNL     1      52.385  20.486  18.248  0.00  0.00    -0.076 C 
ATOM     16  C   UNL     1      52.485  18.938  18.060  0.00  0.00    +0.059 C 
ATOM     17  C   UNL     1      51.790  21.038  16.929  0.00  0.00    -0.032 C 
ATOM     18  C   UNL     1      51.701  19.839  15.957  0.00  0.00    +0.050 C 
ATOM     19  C   UNL     1      51.478  18.648  16.933  0.00  0.00    -0.056 C 
ATOM     20  C   UNL     1      51.775  17.358  16.205  0.00  0.00    +0.026 C 
ATOM     21  C   UNL     1      51.429  16.137  17.045  0.00  0.00    +0.020 C 
ATOM     22  C   UNL     1      50.836  16.567  18.391  0.00  0.00    +0.024 C 
ENDROOT
BRANCH   6   7
ATOM      7  C   UNL     1      51.675  14.505  19.531  0.00  0.00    +0.189 C 
BRANCH   7   8
ATOM      8  O   UNL     1      52.550  15.343  20.289  0.00  0.00    -0.560 OA
ATOM      9  H   UNL     1      52.634  15.086  21.217  0.00  0.00    +0.379 HD
ENDBRANCH   7   8
ENDBRANCH   6   7
TORSDOF 2
ENDMDL
MODEL 7
REMARK VINA RESULT:      -5.0     19.569     21.258
REMARK  Name = ZINC95486361
REMARK  4 active torsions:
REMARK  status: ('A' for Active; 'I' for Inactive)
REMARK    1  A    between atoms: C1_1  and  C2_2
REMARK    2  A    between atoms: C6_7  and  C18_24
REMARK    3  A    between atoms: C6_7  and  C19_25
REMARK    4  A    between atoms: C19_25  and  O2_26
REMARK                            x       y       z     vdW  Elec       q    Type
REMARK                         _______ _______ _______ _____ _____    ______ ____
ROOT
ATOM      1  C   UNL     1      54.416  31.130   3.441  0.00  0.00    +0.031 C 
ATOM      2  C   UNL     1      54.383  32.594   3.882  0.00  0.00    -0.049 C 
ATOM      3  C   UNL     1      55.793  33.040   4.284  0.00  0.00    +0.048 C 
ATOM      4  C   UNL     1      56.755  32.863   3.106  0.00  0.00    +0.011 C 
ATOM      5  C   UNL     1      56.193  33.630   1.928  0.00  0.00    +0.369 C 
ATOM      6  C   UNL     1      54.768  33.344   1.518  0.00  0.00    -0.100 C 
ATOM     10  C   UNL     1      54.676  31.928   0.946  0.00  0.00    +0.058 C 
ATOM     11  O   UNL     1      56.862  34.442   1.336  0.00  0.00    -0.435 OA
ATOM     12  C   UNL     1      53.484  32.736   5.123  0.00  0.00    +0.025 C 
ATOM     13  C   UNL     1      54.285  33.555   6.145  0.00  0.00    +0.047 C 
ATOM     14  C   UNL     1      53.369  34.351   7.076  0.00  0.00    -0.026 C 
ATOM     15  C   UNL     1      52.532  35.378   6.256  0.00  0.00    -0.076 C 
ATOM     16  C   UNL     1      52.415  34.999   4.745  0.00  0.00    +0.059 C 
ATOM     17  C   UNL     1      51.854  34.225   7.038  0.00  0.00    -0.032 C 
ATOM     18  C   UNL     1      51.230  33.289   5.977  0.00  0.00    +0.050 C 
ATOM     19  C   UNL     1      52.197  33.476   4.773  0.00  0.00    -0.056 C 
ATOM     20  C   UNL     1      51.524  32.962   3.522  0.00  0.00    +0.026 C 
ATOM     21  C   UNL     1      52.464  32.965   2.325  0.00  0.00    +0.020 C 
ATOM     22  C   UNL     1      53.854  33.459   2.742  0.00  0.00    +0.024 C 
ENDROOT
BRANCH   6   7
ATOM      7  C   UNL     1      54.329  34.354   0.456  0.00  0.00    +0.189 C 
BRANCH   7   8
ATOM      8  O   UNL     1      54.842  33.957  -0.818  0.00  0.00    -0.560 OA
ATOM      9  H   UNL     1      54.955  33.002  -0.916  0.00  0.00    +0.379 HD
ENDBRANCH   7   8
ENDBRANCH   6   7
TORSDOF 2
ENDMDL
MODEL 8
REMARK VINA RESULT:      -5.0      2.284      3.677
REMARK  Name = ZINC95486361
REMARK  4 active torsions:
REMARK  status: ('A' for Active; 'I' for Inactive)
REMARK    1  A    between atoms: C1_1  and  C2_2
REMARK    2  A    between atoms: C6_7  and  C18_24
REMARK    3  A    between atoms: C6_7  and  C19_25
REMARK    4  A    between atoms: C19_25  and  O2_26
REMARK                            x       y       z     vdW  Elec       q    Type
REMARK                         _______ _______ _______ _____ _____    ______ ____
ROOT
ATOM      1  C   UNL     1      47.601  17.252  21.202  0.00  0.00    +0.031 C 
ATOM      2  C   UNL     1      47.270  18.281  20.119  0.00  0.00    -0.049 C 
ATOM      3  C   UNL     1      48.558  18.975  19.662  0.00  0.00    +0.048 C 
ATOM      4  C   UNL     1      49.550  17.941  19.126  0.00  0.00    +0.011 C 
ATOM      5  C   UNL     1      48.862  17.164  18.024  0.00  0.00    +0.369 C 
ATOM      6  C   UNL     1      47.528  16.530  18.339  0.00  0.00    -0.100 C 
ATOM     10  C   UNL     1      47.728  15.392  19.342  0.00  0.00    +0.058 C 
ATOM     11  O   UNL     1      49.363  17.054  16.931  0.00  0.00    -0.435 OA
ATOM     12  C   UNL     1      46.345  19.362  20.703  0.00  0.00    +0.025 C 
ATOM     13  C   UNL     1      46.955  20.714  20.301  0.00  0.00    +0.047 C 
ATOM     14  C   UNL     1      45.886  21.801  20.177  0.00  0.00    -0.026 C 
ATOM     15  C   UNL     1      44.871  21.430  19.054  0.00  0.00    -0.076 C 
ATOM     16  C   UNL     1      44.852  19.902  18.733  0.00  0.00    +0.059 C 
ATOM     17  C   UNL     1      44.427  21.561  20.533  0.00  0.00    -0.032 C 
ATOM     18  C   UNL     1      44.016  20.142  20.989  0.00  0.00    +0.050 C 
ATOM     19  C   UNL     1      44.942  19.242  20.120  0.00  0.00    -0.056 C 
ATOM     20  C   UNL     1      44.400  17.832  20.130  0.00  0.00    +0.026 C 
ATOM     21  C   UNL     1      45.336  16.856  19.430  0.00  0.00    +0.020 C 
ATOM     22  C   UNL     1      46.594  17.584  18.942  0.00  0.00    +0.024 C 
ENDROOT
BRANCH   6   7
ATOM      7  C   UNL     1      46.910  15.975  17.054  0.00  0.00    +0.189 C 
BRANCH   7   8
ATOM      8  O   UNL     1      46.735  17.036  16.112  0.00  0.00    -0.560 OA
ATOM      9  H   UNL     1      46.791  16.755  15.189  0.00  0.00    +0.379 HD
ENDBRANCH   7   8
ENDBRANCH   6   7
TORSDOF 2
ENDMDL
MODEL 9
REMARK VINA RESULT:      -4.9      4.628      6.257
REMARK  Name = ZINC95486361
REMARK  4 active torsions:
REMARK  status: ('A' for Active; 'I' for Inactive)
REMARK    1  A    between atoms: C1_1  and  C2_2
REMARK    2  A    between atoms: C6_7  and  C18_24
REMARK    3  A    between atoms: C6_7  and  C19_25
REMARK    4  A    between atoms: C19_25  and  O2_26
REMARK                            x       y       z     vdW  Elec       q    Type
REMARK                         _______ _______ _______ _____ _____    ______ ____
ROOT
ATOM      1  C   UNL     1      47.304  20.382  19.592  0.00  0.00    +0.031 C 
ATOM      2  C   UNL     1      46.226  19.861  20.544  0.00  0.00    -0.049 C 
ATOM      3  C   UNL     1      46.475  20.416  21.951  0.00  0.00    +0.048 C 
ATOM      4  C   UNL     1      46.461  21.947  21.921  0.00  0.00    +0.011 C 
ATOM      5  C   UNL     1      45.143  22.388  21.323  0.00  0.00    +0.369 C 
ATOM      6  C   UNL     1      44.750  21.811  19.983  0.00  0.00    -0.100 C 
ATOM     10  C   UNL     1      45.692  22.345  18.902  0.00  0.00    +0.058 C 
ATOM     11  O   UNL     1      44.429  23.176  21.897  0.00  0.00    -0.435 OA
ATOM     12  C   UNL     1      46.316  18.328  20.632  0.00  0.00    +0.025 C 
ATOM     13  C   UNL     1      46.300  17.979  22.128  0.00  0.00    +0.047 C 
ATOM     14  C   UNL     1      45.701  16.595  22.380  0.00  0.00    -0.026 C 
ATOM     15  C   UNL     1      44.216  16.559  21.908  0.00  0.00    -0.076 C 
ATOM     16  C   UNL     1      43.884  17.668  20.860  0.00  0.00    +0.059 C 
ATOM     17  C   UNL     1      45.294  15.661  21.252  0.00  0.00    -0.032 C 
ATOM     18  C   UNL     1      45.453  16.166  19.799  0.00  0.00    +0.050 C 
ATOM     19  C   UNL     1      45.120  17.679  19.945  0.00  0.00    -0.056 C 
ATOM     20  C   UNL     1      44.826  18.247  18.576  0.00  0.00    +0.026 C 
ATOM     21  C   UNL     1      44.644  19.758  18.614  0.00  0.00    +0.020 C 
ATOM     22  C   UNL     1      44.851  20.284  20.039  0.00  0.00    +0.024 C 
ENDROOT
BRANCH   6   7
ATOM      7  C   UNL     1      43.312  22.217  19.654  0.00  0.00    +0.189 C 
BRANCH   7   8
ATOM      8  O   UNL     1      43.285  23.587  19.248  0.00  0.00    -0.560 OA
ATOM      9  H   UNL     1      42.395  23.938  19.107  0.00  0.00    +0.379 HD
ENDBRANCH   7   8
ENDBRANCH   6   7
TORSDOF 2
ENDMDL
