MODEL 1
REMARK VINA RESULT:      -5.4      0.000      0.000
REMARK  Name = ZINC95486104
REMARK  9 active torsions:
REMARK  status: ('A' for Active; 'I' for Inactive)
REMARK    1  A    between atoms: C1_1  and  C2_2
REMARK    2  A    between atoms: C2_2  and  C3_3
REMARK    3  A    between atoms: C4_5  and  C17_31
REMARK    4  A    between atoms: C12_20  and  O6_25
REMARK    5  A    between atoms: C13_22  and  O5_24
REMARK    6  A    between atoms: O6_25  and  C14_26
REMARK    7  A    between atoms: C14_26  and  C15_28
REMARK    8  A    between atoms: C15_28  and  C16_29
REMARK    9  A    between atoms: C16_29  and  O8_30
REMARK                            x       y       z     vdW  Elec       q    Type
REMARK                         _______ _______ _______ _____ _____    ______ ____
ROOT
ATOM      3  C   UNL     1      46.682  19.121  18.786  0.00  0.00    +0.188 C 
ATOM      4  C   UNL     1      46.355  18.993  20.278  0.00  0.00    -0.042 C 
ATOM      7  C   UNL     1      46.958  20.193  21.031  0.00  0.00    +0.059 C 
ATOM      8  C   UNL     1      46.303  21.439  20.485  0.00  0.00    +0.157 C 
ATOM      9  C   UNL     1      44.793  21.376  20.865  0.00  0.00    +0.011 C 
ATOM     10  C   UNL     1      44.187  20.263  20.027  0.00  0.00    +0.166 C 
ATOM     18  C   UNL     1      44.410  22.808  20.457  0.00  0.00    +0.061 C 
ATOM     19  C   UNL     1      45.674  23.577  20.846  0.00  0.00    +0.484 C 
ATOM     20  O   UNL     1      45.743  24.771  21.018  0.00  0.00    -0.435 OA
ATOM     21  O   UNL     1      46.690  22.702  20.983  0.00  0.00    -0.318 OA
ATOM     22  C   UNL     1      48.472  20.216  20.811  0.00  0.00    +0.076 C 
ATOM     23  C   UNL     1      48.748  20.130  19.326  0.00  0.00    +0.481 C 
ATOM     24  O   UNL     1      49.510  20.897  18.787  0.00  0.00    -0.439 OA
ATOM     25  C   UNL     1      44.837  18.949  20.453  0.00  0.00    +0.183 C 
ATOM     28  O   UNL     1      48.100  19.182  18.611  0.00  0.00    -0.355 OA
ENDROOT
BRANCH   3   2
ATOM      1  C   UNL     1      47.136  17.456  16.981  0.00  0.00    +0.029 C 
ATOM      2  C   UNL     1      46.127  17.908  18.038  0.00  0.00    +0.050 C 
ENDBRANCH   3   2
BRANCH   4   5
ATOM      5  C   UNL     1      46.958  17.720  20.814  0.00  0.00    -0.034 C 
ATOM      6  C   UNL     1      47.316  17.645  22.071  0.00  0.00    +0.057 C 
ENDBRANCH   4   5
BRANCH  25  26
ATOM     26  O   UNL     1      44.531  18.707  21.828  0.00  0.00    -0.541 OA
ATOM     27  H   UNL     1      43.813  18.074  21.966  0.00  0.00    +0.385 HD
ENDBRANCH  25  26
BRANCH  10  11
ATOM     11  O   UNL     1      42.776  20.204  20.243  0.00  0.00    -0.336 OA
BRANCH  11  12
ATOM     12  C   UNL     1      41.992  20.208  19.155  0.00  0.00    +0.466 C 
ATOM     17  O   UNL     1      42.464  19.968  18.068  0.00  0.00    -0.497 OA
BRANCH  12  13
ATOM     13  C   UNL     1      40.522  20.516  19.285  0.00  0.00    +0.120 C 
BRANCH  13  14
ATOM     14  C   UNL     1      40.192  21.777  18.485  0.00  0.00    +0.203 C 
BRANCH  14  15
ATOM     15  O   UNL     1      41.357  22.598  18.386  0.00  0.00    -0.573 OA
ATOM     16  H   UNL     1      41.946  22.538  19.151  0.00  0.00    +0.391 HD
ENDBRANCH  14  15
ENDBRANCH  13  14
ENDBRANCH  12  13
ENDBRANCH  11  12
ENDBRANCH  10  11
TORSDOF 8
ENDMDL
MODEL 2
REMARK VINA RESULT:      -5.2      4.517      7.508
REMARK  Name = ZINC95486104
REMARK  9 active torsions:
REMARK  status: ('A' for Active; 'I' for Inactive)
REMARK    1  A    between atoms: C1_1  and  C2_2
REMARK    2  A    between atoms: C2_2  and  C3_3
REMARK    3  A    between atoms: C4_5  and  C17_31
REMARK    4  A    between atoms: C12_20  and  O6_25
REMARK    5  A    between atoms: C13_22  and  O5_24
REMARK    6  A    between atoms: O6_25  and  C14_26
REMARK    7  A    between atoms: C14_26  and  C15_28
REMARK    8  A    between atoms: C15_28  and  C16_29
REMARK    9  A    between atoms: C16_29  and  O8_30
REMARK                            x       y       z     vdW  Elec       q    Type
REMARK                         _______ _______ _______ _____ _____    ______ ____
ROOT
ATOM      3  C   UNL     1      50.226  19.860  19.350  0.00  0.00    +0.188 C 
ATOM      4  C   UNL     1      50.956  19.736  18.009  0.00  0.00    -0.042 C 
ATOM      7  C   UNL     1      52.424  19.349  18.268  0.00  0.00    +0.059 C 
ATOM      8  C   UNL     1      52.417  18.004  18.954  0.00  0.00    +0.157 C 
ATOM      9  C   UNL     1      51.845  16.968  17.942  0.00  0.00    +0.011 C 
ATOM     10  C   UNL     1      50.369  17.291  17.787  0.00  0.00    +0.166 C 
ATOM     18  C   UNL     1      52.173  15.691  18.736  0.00  0.00    +0.061 C 
ATOM     19  C   UNL     1      53.509  16.074  19.377  0.00  0.00    +0.484 C 
ATOM     20  O   UNL     1      54.317  15.298  19.827  0.00  0.00    -0.435 OA
ATOM     21  O   UNL     1      53.642  17.414  19.337  0.00  0.00    -0.318 OA
ATOM     22  C   UNL     1      53.081  20.420  19.142  0.00  0.00    +0.076 C 
ATOM     23  C   UNL     1      52.209  20.656  20.356  0.00  0.00    +0.481 C 
ATOM     24  O   UNL     1      52.679  20.664  21.469  0.00  0.00    -0.439 OA
ATOM     25  C   UNL     1      50.257  18.677  17.157  0.00  0.00    +0.183 C 
ATOM     28  O   UNL     1      50.883  20.836  20.164  0.00  0.00    -0.355 OA
ENDROOT
BRANCH   3   2
ATOM      1  C   UNL     1      48.237  20.992  20.351  0.00  0.00    +0.029 C 
ATOM      2  C   UNL     1      48.779  20.291  19.104  0.00  0.00    +0.050 C 
ENDBRANCH   3   2
BRANCH   4   5
ATOM      5  C   UNL     1      50.914  21.062  17.293  0.00  0.00    -0.034 C 
ATOM      6  C   UNL     1      51.668  21.262  16.241  0.00  0.00    +0.057 C 
ENDBRANCH   4   5
BRANCH  25  26
ATOM     26  O   UNL     1      50.859  18.646  15.862  0.00  0.00    -0.541 OA
ATOM     27  H   UNL     1      50.890  19.507  15.421  0.00  0.00    +0.385 HD
ENDBRANCH  25  26
BRANCH  10  11
ATOM     11  O   UNL     1      49.744  16.320  16.946  0.00  0.00    -0.336 OA
BRANCH  11  12
ATOM     12  C   UNL     1      48.598  15.779  17.387  0.00  0.00    +0.466 C 
ATOM     17  O   UNL     1      48.287  14.661  17.048  0.00  0.00    -0.497 OA
BRANCH  12  13
ATOM     13  C   UNL     1      47.696  16.565  18.304  0.00  0.00    +0.120 C 
BRANCH  13  14
ATOM     14  C   UNL     1      46.636  17.294  17.475  0.00  0.00    +0.203 C 
BRANCH  14  15
ATOM     15  O   UNL     1      46.921  17.127  16.085  0.00  0.00    -0.573 OA
ATOM     16  H   UNL     1      47.140  16.219  15.835  0.00  0.00    +0.391 HD
ENDBRANCH  14  15
ENDBRANCH  13  14
ENDBRANCH  12  13
ENDBRANCH  11  12
ENDBRANCH  10  11
TORSDOF 8
ENDMDL
MODEL 3
REMARK VINA RESULT:      -4.8      3.039      6.016
REMARK  Name = ZINC95486104
REMARK  9 active torsions:
REMARK  status: ('A' for Active; 'I' for Inactive)
REMARK    1  A    between atoms: C1_1  and  C2_2
REMARK    2  A    between atoms: C2_2  and  C3_3
REMARK    3  A    between atoms: C4_5  and  C17_31
REMARK    4  A    between atoms: C12_20  and  O6_25
REMARK    5  A    between atoms: C13_22  and  O5_24
REMARK    6  A    between atoms: O6_25  and  C14_26
REMARK    7  A    between atoms: C14_26  and  C15_28
REMARK    8  A    between atoms: C15_28  and  C16_29
REMARK    9  A    between atoms: C16_29  and  O8_30
REMARK                            x       y       z     vdW  Elec       q    Type
REMARK                         _______ _______ _______ _____ _____    ______ ____
ROOT
ATOM      3  C   UNL     1      47.294  18.710  20.924  0.00  0.00    +0.188 C 
ATOM      4  C   UNL     1      46.816  19.233  19.566  0.00  0.00    -0.042 C 
ATOM      7  C   UNL     1      48.035  19.692  18.744  0.00  0.00    +0.059 C 
ATOM      8  C   UNL     1      48.910  18.480  18.528  0.00  0.00    +0.157 C 
ATOM      9  C   UNL     1      48.111  17.481  17.639  0.00  0.00    +0.011 C 
ATOM     10  C   UNL     1      46.980  16.950  18.503  0.00  0.00    +0.166 C 
ATOM     18  C   UNL     1      49.254  16.494  17.347  0.00  0.00    +0.061 C 
ATOM     19  C   UNL     1      50.449  17.445  17.242  0.00  0.00    +0.484 C 
ATOM     20  O   UNL     1      51.503  17.188  16.711  0.00  0.00    -0.435 OA
ATOM     21  O   UNL     1      50.124  18.618  17.819  0.00  0.00    -0.318 OA
ATOM     22  C   UNL     1      48.777  20.787  19.512  0.00  0.00    +0.076 C 
ATOM     23  C   UNL     1      49.043  20.298  20.919  0.00  0.00    +0.481 C 
ATOM     24  O   UNL     1      50.142  20.385  21.412  0.00  0.00    -0.439 OA
ATOM     25  C   UNL     1      46.060  18.120  18.841  0.00  0.00    +0.183 C 
ATOM     28  O   UNL     1      48.020  19.739  21.604  0.00  0.00    -0.355 OA
ENDROOT
BRANCH   3   2
ATOM      1  C   UNL     1      46.339  16.920  22.381  0.00  0.00    +0.029 C 
ATOM      2  C   UNL     1      46.085  18.297  21.765  0.00  0.00    +0.050 C 
ENDBRANCH   3   2
BRANCH   4   5
ATOM      5  C   UNL     1      45.895  20.407  19.779  0.00  0.00    -0.034 C 
ATOM      6  C   UNL     1      45.762  21.313  18.843  0.00  0.00    +0.057 C 
ENDBRANCH   4   5
BRANCH  25  26
ATOM     26  O   UNL     1      45.508  18.640  17.630  0.00  0.00    -0.541 OA
ATOM     27  H   UNL     1      45.090  19.506  17.729  0.00  0.00    +0.385 HD
ENDBRANCH  25  26
BRANCH  10  11
ATOM     11  O   UNL     1      46.254  15.947  17.790  0.00  0.00    -0.336 OA
BRANCH  11  12
ATOM     12  C   UNL     1      46.113  14.754  18.388  0.00  0.00    +0.466 C 
ATOM     17  O   UNL     1      45.989  14.692  19.589  0.00  0.00    -0.497 OA
BRANCH  12  13
ATOM     13  C   UNL     1      46.111  13.492  17.565  0.00  0.00    +0.120 C 
BRANCH  13  14
ATOM     14  C   UNL     1      47.179  13.593  16.474  0.00  0.00    +0.203 C 
BRANCH  14  15
ATOM     15  O   UNL     1      46.740  14.499  15.460  0.00  0.00    -0.573 OA
ATOM     16  H   UNL     1      47.455  14.854  14.913  0.00  0.00    +0.391 HD
ENDBRANCH  14  15
ENDBRANCH  13  14
ENDBRANCH  12  13
ENDBRANCH  11  12
ENDBRANCH  10  11
TORSDOF 8
ENDMDL
MODEL 4
REMARK VINA RESULT:      -4.8      2.196      4.612
REMARK  Name = ZINC95486104
REMARK  9 active torsions:
REMARK  status: ('A' for Active; 'I' for Inactive)
REMARK    1  A    between atoms: C1_1  and  C2_2
REMARK    2  A    between atoms: C2_2  and  C3_3
REMARK    3  A    between atoms: C4_5  and  C17_31
REMARK    4  A    between atoms: C12_20  and  O6_25
REMARK    5  A    between atoms: C13_22  and  O5_24
REMARK    6  A    between atoms: O6_25  and  C14_26
REMARK    7  A    between atoms: C14_26  and  C15_28
REMARK    8  A    between atoms: C15_28  and  C16_29
REMARK    9  A    between atoms: C16_29  and  O8_30
REMARK                            x       y       z     vdW  Elec       q    Type
REMARK                         _______ _______ _______ _____ _____    ______ ____
ROOT
ATOM      3  C   UNL     1      48.265  18.942  19.871  0.00  0.00    +0.188 C 
ATOM      4  C   UNL     1      47.749  17.979  18.797  0.00  0.00    -0.042 C 
ATOM      7  C   UNL     1      47.505  16.598  19.433  0.00  0.00    +0.059 C 
ATOM      8  C   UNL     1      46.442  16.775  20.490  0.00  0.00    +0.157 C 
ATOM      9  C   UNL     1      45.125  17.182  19.764  0.00  0.00    +0.011 C 
ATOM     10  C   UNL     1      45.341  18.592  19.243  0.00  0.00    +0.166 C 
ATOM     18  C   UNL     1      44.170  17.048  20.963  0.00  0.00    +0.061 C 
ATOM     19  C   UNL     1      44.772  15.844  21.690  0.00  0.00    +0.484 C 
ATOM     20  O   UNL     1      44.198  15.158  22.503  0.00  0.00    -0.435 OA
ATOM     21  O   UNL     1      46.036  15.663  21.260  0.00  0.00    -0.318 OA
ATOM     22  C   UNL     1      48.813  16.082  20.036  0.00  0.00    +0.076 C 
ATOM     23  C   UNL     1      49.391  17.157  20.931  0.00  0.00    +0.481 C 
ATOM     24  O   UNL     1      49.759  16.903  22.053  0.00  0.00    -0.439 OA
ATOM     25  C   UNL     1      46.458  18.540  18.203  0.00  0.00    +0.183 C 
ATOM     28  O   UNL     1      49.464  18.418  20.448  0.00  0.00    -0.355 OA
ENDROOT
BRANCH   3   2
ATOM      1  C   UNL     1      49.895  20.831  19.755  0.00  0.00    +0.029 C 
ATOM      2  C   UNL     1      48.556  20.304  19.237  0.00  0.00    +0.050 C 
ENDBRANCH   3   2
BRANCH   4   5
ATOM      5  C   UNL     1      48.783  17.845  17.709  0.00  0.00    -0.034 C 
ATOM      6  C   UNL     1      49.032  16.671  17.183  0.00  0.00    +0.057 C 
ENDBRANCH   4   5
BRANCH  25  26
ATOM     26  O   UNL     1      46.041  17.709  17.118  0.00  0.00    -0.541 OA
ATOM     27  H   UNL     1      46.634  16.966  16.942  0.00  0.00    +0.385 HD
ENDBRANCH  25  26
BRANCH  10  11
ATOM     11  O   UNL     1      44.139  19.080  18.646  0.00  0.00    -0.336 OA
BRANCH  11  12
ATOM     12  C   UNL     1      43.605  20.193  19.172  0.00  0.00    +0.466 C 
ATOM     17  O   UNL     1      42.608  20.673  18.685  0.00  0.00    -0.497 OA
BRANCH  12  13
ATOM     13  C   UNL     1      44.249  20.846  20.367  0.00  0.00    +0.120 C 
BRANCH  13  14
ATOM     14  C   UNL     1      44.915  22.155  19.937  0.00  0.00    +0.203 C 
BRANCH  14  15
ATOM     15  O   UNL     1      45.350  22.044  18.581  0.00  0.00    -0.573 OA
ATOM     16  H   UNL     1      44.632  21.900  17.948  0.00  0.00    +0.391 HD
ENDBRANCH  14  15
ENDBRANCH  13  14
ENDBRANCH  12  13
ENDBRANCH  11  12
ENDBRANCH  10  11
TORSDOF 8
ENDMDL
MODEL 5
REMARK VINA RESULT:      -4.6      2.065      6.379
REMARK  Name = ZINC95486104
REMARK  9 active torsions:
REMARK  status: ('A' for Active; 'I' for Inactive)
REMARK    1  A    between atoms: C1_1  and  C2_2
REMARK    2  A    between atoms: C2_2  and  C3_3
REMARK    3  A    between atoms: C4_5  and  C17_31
REMARK    4  A    between atoms: C12_20  and  O6_25
REMARK    5  A    between atoms: C13_22  and  O5_24
REMARK    6  A    between atoms: O6_25  and  C14_26
REMARK    7  A    between atoms: C14_26  and  C15_28
REMARK    8  A    between atoms: C15_28  and  C16_29
REMARK    9  A    between atoms: C16_29  and  O8_30
REMARK                            x       y       z     vdW  Elec       q    Type
REMARK                         _______ _______ _______ _____ _____    ______ ____
ROOT
ATOM      3  C   UNL     1      44.834  20.784  19.706  0.00  0.00    +0.188 C 
ATOM      4  C   UNL     1      45.350  20.231  21.037  0.00  0.00    -0.042 C 
ATOM      7  C   UNL     1      44.748  18.833  21.270  0.00  0.00    +0.059 C 
ATOM      8  C   UNL     1      45.228  17.946  20.146  0.00  0.00    +0.157 C 
ATOM      9  C   UNL     1      46.773  17.806  20.291  0.00  0.00    +0.011 C 
ATOM     10  C   UNL     1      47.360  19.164  19.944  0.00  0.00    +0.166 C 
ATOM     18  C   UNL     1      46.985  16.696  19.247  0.00  0.00    +0.061 C 
ATOM     19  C   UNL     1      45.719  15.859  19.440  0.00  0.00    +0.484 C 
ATOM     20  O   UNL     1      45.575  14.714  19.082  0.00  0.00    -0.435 OA
ATOM     21  O   UNL     1      44.802  16.601  20.093  0.00  0.00    -0.318 OA
ATOM     22  C   UNL     1      43.221  18.938  21.285  0.00  0.00    +0.076 C 
ATOM     23  C   UNL     1      42.774  19.680  20.045  0.00  0.00    +0.481 C 
ATOM     24  O   UNL     1      41.892  19.247  19.343  0.00  0.00    -0.439 OA
ATOM     25  C   UNL     1      46.876  20.164  20.991  0.00  0.00    +0.183 C 
ATOM     28  O   UNL     1      43.405  20.834  19.730  0.00  0.00    -0.355 OA
ENDROOT
BRANCH   3   2
ATOM      1  C   UNL     1      44.232  23.185  19.367  0.00  0.00    +0.029 C 
ATOM      2  C   UNL     1      45.390  22.193  19.490  0.00  0.00    +0.050 C 
ENDBRANCH   3   2
BRANCH   4   5
ATOM      5  C   UNL     1      44.923  21.144  22.158  0.00  0.00    -0.034 C 
ATOM      6  C   UNL     1      45.679  22.158  22.500  0.00  0.00    +0.057 C 
ENDBRANCH   4   5
BRANCH  25  26
ATOM     26  O   UNL     1      47.367  19.765  22.273  0.00  0.00    -0.541 OA
ATOM     27  H   UNL     1      47.780  20.479  22.776  0.00  0.00    +0.385 HD
ENDBRANCH  25  26
BRANCH  10  11
ATOM     11  O   UNL     1      48.787  19.094  19.957  0.00  0.00    -0.336 OA
BRANCH  11  12
ATOM     12  C   UNL     1      49.455  20.248  19.804  0.00  0.00    +0.466 C 
ATOM     17  O   UNL     1      49.975  20.775  20.759  0.00  0.00    -0.497 OA
BRANCH  12  13
ATOM     13  C   UNL     1      49.555  20.887  18.444  0.00  0.00    +0.120 C 
BRANCH  13  14
ATOM     14  C   UNL     1      51.003  20.824  17.955  0.00  0.00    +0.203 C 
BRANCH  14  15
ATOM     15  O   UNL     1      51.815  21.681  18.760  0.00  0.00    -0.573 OA
ATOM     16  H   UNL     1      51.499  21.783  19.668  0.00  0.00    +0.391 HD
ENDBRANCH  14  15
ENDBRANCH  13  14
ENDBRANCH  12  13
ENDBRANCH  11  12
ENDBRANCH  10  11
TORSDOF 8
ENDMDL
MODEL 6
REMARK VINA RESULT:      -4.5      4.050      7.380
REMARK  Name = ZINC95486104
REMARK  9 active torsions:
REMARK  status: ('A' for Active; 'I' for Inactive)
REMARK    1  A    between atoms: C1_1  and  C2_2
REMARK    2  A    between atoms: C2_2  and  C3_3
REMARK    3  A    between atoms: C4_5  and  C17_31
REMARK    4  A    between atoms: C12_20  and  O6_25
REMARK    5  A    between atoms: C13_22  and  O5_24
REMARK    6  A    between atoms: O6_25  and  C14_26
REMARK    7  A    between atoms: C14_26  and  C15_28
REMARK    8  A    between atoms: C15_28  and  C16_29
REMARK    9  A    between atoms: C16_29  and  O8_30
REMARK                            x       y       z     vdW  Elec       q    Type
REMARK                         _______ _______ _______ _____ _____    ______ ____
ROOT
ATOM      3  C   UNL     1      46.594  16.205  19.901  0.00  0.00    +0.188 C 
ATOM      4  C   UNL     1      46.676  17.008  18.599  0.00  0.00    -0.042 C 
ATOM      7  C   UNL     1      48.025  17.748  18.546  0.00  0.00    +0.059 C 
ATOM      8  C   UNL     1      49.111  16.699  18.549  0.00  0.00    +0.157 C 
ATOM      9  C   UNL     1      48.982  15.892  17.223  0.00  0.00    +0.011 C 
ATOM     10  C   UNL     1      47.705  15.078  17.340  0.00  0.00    +0.166 C 
ATOM     18  C   UNL     1      50.296  15.099  17.328  0.00  0.00    +0.061 C 
ATOM     19  C   UNL     1      51.219  16.135  17.972  0.00  0.00    +0.484 C 
ATOM     20  O   UNL     1      52.427  16.100  17.963  0.00  0.00    -0.435 OA
ATOM     21  O   UNL     1      50.465  17.101  18.533  0.00  0.00    -0.318 OA
ATOM     22  C   UNL     1      48.140  18.675  19.759  0.00  0.00    +0.076 C 
ATOM     23  C   UNL     1      47.844  17.875  21.009  0.00  0.00    +0.481 C 
ATOM     24  O   UNL     1      48.578  17.922  21.968  0.00  0.00    -0.439 OA
ATOM     25  C   UNL     1      46.533  16.053  17.415  0.00  0.00    +0.183 C 
ATOM     28  O   UNL     1      46.746  17.087  21.017  0.00  0.00    -0.355 OA
ENDROOT
BRANCH   3   2
ATOM      1  C   UNL     1      45.440  14.045  20.393  0.00  0.00    +0.029 C 
ATOM      2  C   UNL     1      45.237  15.505  19.984  0.00  0.00    +0.050 C 
ENDBRANCH   3   2
BRANCH   4   5
ATOM      5  C   UNL     1      45.557  18.018  18.565  0.00  0.00    -0.034 C 
ATOM      6  C   UNL     1      45.781  19.228  18.115  0.00  0.00    +0.057 C 
ENDBRANCH   4   5
BRANCH  25  26
ATOM     26  O   UNL     1      46.485  16.812  16.205  0.00  0.00    -0.541 OA
ATOM     27  H   UNL     1      46.761  16.319  15.420  0.00  0.00    +0.385 HD
ENDBRANCH  25  26
BRANCH  10  11
ATOM     11  O   UNL     1      47.563  14.229  16.200  0.00  0.00    -0.336 OA
BRANCH  11  12
ATOM     12  C   UNL     1      47.349  12.925  16.433  0.00  0.00    +0.466 C 
ATOM     17  O   UNL     1      46.810  12.574  17.456  0.00  0.00    -0.497 OA
BRANCH  12  13
ATOM     13  C   UNL     1      47.784  11.897  15.421  0.00  0.00    +0.120 C 
BRANCH  13  14
ATOM     14  C   UNL     1      48.429  12.599  14.224  0.00  0.00    +0.203 C 
BRANCH  14  15
ATOM     15  O   UNL     1      47.426  13.296  13.484  0.00  0.00    -0.573 OA
ATOM     16  H   UNL     1      47.700  13.549  12.591  0.00  0.00    +0.391 HD
ENDBRANCH  14  15
ENDBRANCH  13  14
ENDBRANCH  12  13
ENDBRANCH  11  12
ENDBRANCH  10  11
TORSDOF 8
ENDMDL
MODEL 7
REMARK VINA RESULT:      -4.4      3.230      6.361
REMARK  Name = ZINC95486104
REMARK  9 active torsions:
REMARK  status: ('A' for Active; 'I' for Inactive)
REMARK    1  A    between atoms: C1_1  and  C2_2
REMARK    2  A    between atoms: C2_2  and  C3_3
REMARK    3  A    between atoms: C4_5  and  C17_31
REMARK    4  A    between atoms: C12_20  and  O6_25
REMARK    5  A    between atoms: C13_22  and  O5_24
REMARK    6  A    between atoms: O6_25  and  C14_26
REMARK    7  A    between atoms: C14_26  and  C15_28
REMARK    8  A    between atoms: C15_28  and  C16_29
REMARK    9  A    between atoms: C16_29  and  O8_30
REMARK                            x       y       z     vdW  Elec       q    Type
REMARK                         _______ _______ _______ _____ _____    ______ ____
ROOT
ATOM      3  C   UNL     1      47.365  17.918  20.633  0.00  0.00    +0.188 C 
ATOM      4  C   UNL     1      46.905  18.266  19.214  0.00  0.00    -0.042 C 
ATOM      7  C   UNL     1      47.757  19.432  18.680  0.00  0.00    +0.059 C 
ATOM      8  C   UNL     1      49.189  18.955  18.633  0.00  0.00    +0.157 C 
ATOM      9  C   UNL     1      49.265  17.813  17.576  0.00  0.00    +0.011 C 
ATOM     10  C   UNL     1      48.518  16.631  18.169  0.00  0.00    +0.166 C 
ATOM     18  C   UNL     1      50.796  17.679  17.517  0.00  0.00    +0.061 C 
ATOM     19  C   UNL     1      51.230  19.137  17.686  0.00  0.00    +0.484 C 
ATOM     20  O   UNL     1      52.311  19.585  17.388  0.00  0.00    -0.435 OA
ATOM     21  O   UNL     1      50.202  19.839  18.202  0.00  0.00    -0.318 OA
ATOM     22  C   UNL     1      47.600  20.638  19.609  0.00  0.00    +0.076 C 
ATOM     23  C   UNL     1      47.862  20.192  21.030  0.00  0.00    +0.481 C 
ATOM     24  O   UNL     1      48.614  20.807  21.749  0.00  0.00    -0.439 OA
ATOM     25  C   UNL     1      47.054  17.032  18.325  0.00  0.00    +0.183 C 
ATOM     28  O   UNL     1      47.247  19.071  21.471  0.00  0.00    -0.355 OA
ENDROOT
BRANCH   3   2
ATOM      1  C   UNL     1      47.383  15.661  21.703  0.00  0.00    +0.029 C 
ATOM      2  C   UNL     1      46.491  16.792  21.190  0.00  0.00    +0.050 C 
ENDBRANCH   3   2
BRANCH   4   5
ATOM      5  C   UNL     1      45.458  18.688  19.247  0.00  0.00    -0.034 C 
ATOM      6  C   UNL     1      44.995  19.509  18.338  0.00  0.00    +0.057 C 
ENDBRANCH   4   5
BRANCH  25  26
ATOM     26  O   UNL     1      46.512  17.317  17.034  0.00  0.00    -0.541 OA
ATOM     27  H   UNL     1      46.044  18.162  16.981  0.00  0.00    +0.385 HD
ENDBRANCH  25  26
BRANCH  10  11
ATOM     11  O   UNL     1      48.626  15.502  17.299  0.00  0.00    -0.336 OA
BRANCH  11  12
ATOM     12  C   UNL     1      48.536  14.287  17.862  0.00  0.00    +0.466 C 
ATOM     17  O   UNL     1      49.228  14.010  18.813  0.00  0.00    -0.497 OA
BRANCH  12  13
ATOM     13  C   UNL     1      47.574  13.268  17.307  0.00  0.00    +0.120 C 
BRANCH  13  14
ATOM     14  C   UNL     1      47.444  13.459  15.795  0.00  0.00    +0.203 C 
BRANCH  14  15
ATOM     15  O   UNL     1      46.706  14.654  15.528  0.00  0.00    -0.573 OA
ATOM     16  H   UNL     1      47.082  15.447  15.935  0.00  0.00    +0.391 HD
ENDBRANCH  14  15
ENDBRANCH  13  14
ENDBRANCH  12  13
ENDBRANCH  11  12
ENDBRANCH  10  11
TORSDOF 8
ENDMDL
MODEL 8
REMARK VINA RESULT:      -4.4      3.131      5.457
REMARK  Name = ZINC95486104
REMARK  9 active torsions:
REMARK  status: ('A' for Active; 'I' for Inactive)
REMARK    1  A    between atoms: C1_1  and  C2_2
REMARK    2  A    between atoms: C2_2  and  C3_3
REMARK    3  A    between atoms: C4_5  and  C17_31
REMARK    4  A    between atoms: C12_20  and  O6_25
REMARK    5  A    between atoms: C13_22  and  O5_24
REMARK    6  A    between atoms: O6_25  and  C14_26
REMARK    7  A    between atoms: C14_26  and  C15_28
REMARK    8  A    between atoms: C15_28  and  C16_29
REMARK    9  A    between atoms: C16_29  and  O8_30
REMARK                            x       y       z     vdW  Elec       q    Type
REMARK                         _______ _______ _______ _____ _____    ______ ____
ROOT
ATOM      3  C   UNL     1      50.462  18.373  17.591  0.00  0.00    +0.188 C 
ATOM      4  C   UNL     1      50.037  18.056  19.028  0.00  0.00    -0.042 C 
ATOM      7  C   UNL     1      49.422  19.317  19.662  0.00  0.00    +0.059 C 
ATOM      8  C   UNL     1      48.198  19.674  18.851  0.00  0.00    +0.157 C 
ATOM      9  C   UNL     1      47.166  18.522  19.035  0.00  0.00    +0.011 C 
ATOM     10  C   UNL     1      47.734  17.317  18.305  0.00  0.00    +0.166 C 
ATOM     18  C   UNL     1      45.962  19.206  18.367  0.00  0.00    +0.061 C 
ATOM     19  C   UNL     1      46.169  20.660  18.796  0.00  0.00    +0.484 C 
ATOM     20  O   UNL     1      45.320  21.519  18.791  0.00  0.00    -0.435 OA
ATOM     21  O   UNL     1      47.445  20.817  19.197  0.00  0.00    -0.318 OA
ATOM     22  C   UNL     1      50.454  20.447  19.641  0.00  0.00    +0.076 C 
ATOM     23  C   UNL     1      50.998  20.580  18.236  0.00  0.00    +0.481 C 
ATOM     24  O   UNL     1      51.059  21.657  17.691  0.00  0.00    -0.439 OA
ATOM     25  C   UNL     1      49.026  16.910  19.009  0.00  0.00    +0.183 C 
ATOM     28  O   UNL     1      51.394  19.457  17.596  0.00  0.00    -0.355 OA
ENDROOT
BRANCH   3   2
ATOM      1  C   UNL     1      52.015  17.568  15.807  0.00  0.00    +0.029 C 
ATOM      2  C   UNL     1      51.118  17.138  16.970  0.00  0.00    +0.050 C 
ENDBRANCH   3   2
BRANCH   4   5
ATOM      5  C   UNL     1      51.247  17.643  19.827  0.00  0.00    -0.034 C 
ATOM      6  C   UNL     1      51.593  16.381  19.885  0.00  0.00    +0.057 C 
ENDBRANCH   4   5
BRANCH  25  26
ATOM     26  O   UNL     1      48.722  16.531  20.352  0.00  0.00    -0.541 OA
ATOM     27  H   UNL     1      49.415  16.012  20.781  0.00  0.00    +0.385 HD
ENDBRANCH  25  26
BRANCH  10  11
ATOM     11  O   UNL     1      46.797  16.239  18.342  0.00  0.00    -0.336 OA
BRANCH  11  12
ATOM     12  C   UNL     1      46.598  15.565  17.198  0.00  0.00    +0.466 C 
ATOM     17  O   UNL     1      46.357  16.165  16.177  0.00  0.00    -0.497 OA
BRANCH  12  13
ATOM     13  C   UNL     1      46.673  14.060  17.187  0.00  0.00    +0.120 C 
BRANCH  13  14
ATOM     14  C   UNL     1      47.760  13.610  16.210  0.00  0.00    +0.203 C 
BRANCH  14  15
ATOM     15  O   UNL     1      47.264  13.697  14.873  0.00  0.00    -0.573 OA
ATOM     16  H   UNL     1      47.039  12.842  14.481  0.00  0.00    +0.391 HD
ENDBRANCH  14  15
ENDBRANCH  13  14
ENDBRANCH  12  13
ENDBRANCH  11  12
ENDBRANCH  10  11
TORSDOF 8
ENDMDL
MODEL 9
REMARK VINA RESULT:      -4.4      2.638      5.387
REMARK  Name = ZINC95486104
REMARK  9 active torsions:
REMARK  status: ('A' for Active; 'I' for Inactive)
REMARK    1  A    between atoms: C1_1  and  C2_2
REMARK    2  A    between atoms: C2_2  and  C3_3
REMARK    3  A    between atoms: C4_5  and  C17_31
REMARK    4  A    between atoms: C12_20  and  O6_25
REMARK    5  A    between atoms: C13_22  and  O5_24
REMARK    6  A    between atoms: O6_25  and  C14_26
REMARK    7  A    between atoms: C14_26  and  C15_28
REMARK    8  A    between atoms: C15_28  and  C16_29
REMARK    9  A    between atoms: C16_29  and  O8_30
REMARK                            x       y       z     vdW  Elec       q    Type
REMARK                         _______ _______ _______ _____ _____    ______ ____
ROOT
ATOM      3  C   UNL     1      50.013  18.412  20.337  0.00  0.00    +0.188 C 
ATOM      4  C   UNL     1      49.493  19.388  19.276  0.00  0.00    -0.042 C 
ATOM      7  C   UNL     1      49.440  18.672  17.914  0.00  0.00    +0.059 C 
ATOM      8  C   UNL     1      48.468  17.524  18.050  0.00  0.00    +0.157 C 
ATOM      9  C   UNL     1      47.057  18.136  18.298  0.00  0.00    +0.011 C 
ATOM     10  C   UNL     1      47.090  18.737  19.692  0.00  0.00    +0.166 C 
ATOM     18  C   UNL     1      46.234  16.846  18.142  0.00  0.00    +0.061 C 
ATOM     19  C   UNL     1      47.011  16.129  17.036  0.00  0.00    +0.484 C 
ATOM     20  O   UNL     1      46.583  15.234  16.346  0.00  0.00    -0.435 OA
ATOM     21  O   UNL     1      48.242  16.671  16.947  0.00  0.00    -0.318 OA
ATOM     22  C   UNL     1      50.841  18.176  17.550  0.00  0.00    +0.076 C 
ATOM     23  C   UNL     1      51.396  17.390  18.718  0.00  0.00    +0.481 C 
ATOM     24  O   UNL     1      51.889  16.299  18.557  0.00  0.00    -0.439 OA
ATOM     25  C   UNL     1      48.105  19.878  19.687  0.00  0.00    +0.183 C 
ATOM     28  O   UNL     1      51.305  17.933  19.953  0.00  0.00    -0.355 OA
ENDROOT
BRANCH   3   2
ATOM      1  C   UNL     1      51.489  18.866  22.300  0.00  0.00    +0.029 C 
ATOM      2  C   UNL     1      50.114  19.131  21.683  0.00  0.00    +0.050 C 
ENDBRANCH   3   2
BRANCH   4   5
ATOM      5  C   UNL     1      50.430  20.565  19.178  0.00  0.00    -0.034 C 
ATOM      6  C   UNL     1      50.647  21.134  18.018  0.00  0.00    +0.057 C 
ENDBRANCH   4   5
BRANCH  25  26
ATOM     26  O   UNL     1      47.670  20.879  18.765  0.00  0.00    -0.541 OA
ATOM     27  H   UNL     1      48.233  21.665  18.743  0.00  0.00    +0.385 HD
ENDBRANCH  25  26
BRANCH  10  11
ATOM     11  O   UNL     1      45.796  19.236  20.038  0.00  0.00    -0.336 OA
BRANCH  11  12
ATOM     12  C   UNL     1      45.205  18.701  21.118  0.00  0.00    +0.466 C 
ATOM     17  O   UNL     1      45.708  18.832  22.209  0.00  0.00    -0.497 OA
BRANCH  12  13
ATOM     13  C   UNL     1      43.916  17.935  20.970  0.00  0.00    +0.120 C 
BRANCH  13  14
ATOM     14  C   UNL     1      42.751  18.917  20.840  0.00  0.00    +0.203 C 
BRANCH  14  15
ATOM     15  O   UNL     1      43.203  20.236  21.151  0.00  0.00    -0.573 OA
ATOM     16  H   UNL     1      42.902  20.913  20.528  0.00  0.00    +0.391 HD
ENDBRANCH  14  15
ENDBRANCH  13  14
ENDBRANCH  12  13
ENDBRANCH  11  12
ENDBRANCH  10  11
TORSDOF 8
ENDMDL
