MODEL 1
REMARK VINA RESULT:      -5.5      0.000      0.000
REMARK  Name = ZINC06523722
REMARK  1 active torsions:
REMARK  status: ('A' for Active; 'I' for Inactive)
REMARK    1  A    between atoms: C1_1  and  N1_2
REMARK                            x       y       z     vdW  Elec       q    Type
REMARK                         _______ _______ _______ _____ _____    ______ ____
ROOT
ATOM      1  C   UNL     1      53.901  31.722   2.892  0.00  0.00    +0.291 C 
ATOM      2  N   UNL     1      54.257  32.467   4.102  0.00  0.00    -0.534 N 
ATOM      3  C   UNL     1      55.588  32.700   4.382  0.00  0.00    +0.224 A 
ATOM      4  C   UNL     1      56.582  31.992   3.712  0.00  0.00    -0.071 A 
ATOM      5  C   UNL     1      57.909  32.234   3.992  0.00  0.00    +0.054 A 
ATOM      6  C   UNL     1      58.272  33.182   4.939  0.00  0.00    -0.062 A 
ATOM      7  C   UNL     1      57.306  33.893   5.615  0.00  0.00    +0.099 A 
ATOM      8  C   UNL     1      55.958  33.655   5.344  0.00  0.00    -0.200 A 
ATOM      9  C   UNL     1      54.897  34.392   6.058  0.00  0.00    +0.431 A 
ATOM     10  O   UNL     1      55.146  35.376   6.731  0.00  0.00    -0.466 OA
ATOM     11  C   UNL     1      53.523  33.881   5.922  0.00  0.00    -0.344 A 
ATOM     12  C   UNL     1      52.496  34.339   6.758  0.00  0.00    +0.329 A 
ATOM     13  C   UNL     1      51.217  33.831   6.607  0.00  0.00    -0.190 A 
ATOM     14  C   UNL     1      50.956  32.879   5.635  0.00  0.00    +0.077 A 
ATOM     15  C   UNL     1      51.958  32.423   4.804  0.00  0.00    -0.213 A 
ATOM     16  O   UNL     1      52.753  35.272   7.709  0.00  0.00    -0.673 OA
ATOM     17  C   UNL     1      53.252  32.922   4.931  0.00  0.00    +0.248 A 
ENDROOT
TORSDOF 0
ENDMDL
MODEL 2
REMARK VINA RESULT:      -5.4     20.444     22.451
REMARK  Name = ZINC06523722
REMARK  1 active torsions:
REMARK  status: ('A' for Active; 'I' for Inactive)
REMARK    1  A    between atoms: C1_1  and  N1_2
REMARK                            x       y       z     vdW  Elec       q    Type
REMARK                         _______ _______ _______ _____ _____    ______ ____
ROOT
ATOM      1  C   UNL     1      44.176  23.923  19.158  0.00  0.00    +0.291 C 
ATOM      2  N   UNL     1      44.043  22.577  19.722  0.00  0.00    -0.534 N 
ATOM      3  C   UNL     1      42.924  21.829  19.418  0.00  0.00    +0.224 A 
ATOM      4  C   UNL     1      41.806  22.433  18.850  0.00  0.00    -0.071 A 
ATOM      5  C   UNL     1      40.695  21.679  18.544  0.00  0.00    +0.054 A 
ATOM      6  C   UNL     1      40.675  20.313  18.796  0.00  0.00    -0.062 A 
ATOM      7  C   UNL     1      41.769  19.694  19.359  0.00  0.00    +0.099 A 
ATOM      8  C   UNL     1      42.899  20.447  19.677  0.00  0.00    -0.200 A 
ATOM      9  C   UNL     1      44.084  19.818  20.292  0.00  0.00    +0.431 A 
ATOM     10  O   UNL     1      44.212  18.608  20.335  0.00  0.00    -0.466 OA
ATOM     11  C   UNL     1      45.104  20.720  20.852  0.00  0.00    -0.344 A 
ATOM     12  C   UNL     1      46.123  20.233  21.681  0.00  0.00    +0.329 A 
ATOM     13  C   UNL     1      47.060  21.112  22.197  0.00  0.00    -0.190 A 
ATOM     14  C   UNL     1      46.991  22.461  21.893  0.00  0.00    +0.077 A 
ATOM     15  C   UNL     1      45.994  22.952  21.076  0.00  0.00    -0.213 A 
ATOM     16  O   UNL     1      46.189  18.910  21.977  0.00  0.00    -0.673 OA
ATOM     17  C   UNL     1      45.043  22.089  20.539  0.00  0.00    +0.248 A 
ENDROOT
TORSDOF 0
ENDMDL
MODEL 3
REMARK VINA RESULT:      -5.3     21.050     22.112
REMARK  Name = ZINC06523722
REMARK  1 active torsions:
REMARK  status: ('A' for Active; 'I' for Inactive)
REMARK    1  A    between atoms: C1_1  and  N1_2
REMARK                            x       y       z     vdW  Elec       q    Type
REMARK                         _______ _______ _______ _____ _____    ______ ____
ROOT
ATOM      1  C   UNL     1      43.664  18.189  20.427  0.00  0.00    +0.291 C 
ATOM      2  N   UNL     1      43.821  19.645  20.430  0.00  0.00    -0.534 N 
ATOM      3  C   UNL     1      44.925  20.201  21.043  0.00  0.00    +0.224 A 
ATOM      4  C   UNL     1      45.712  19.438  21.902  0.00  0.00    -0.071 A 
ATOM      5  C   UNL     1      46.816  19.998  22.505  0.00  0.00    +0.054 A 
ATOM      6  C   UNL     1      47.159  21.323  22.267  0.00  0.00    -0.062 A 
ATOM      7  C   UNL     1      46.394  22.097  21.423  0.00  0.00    +0.099 A 
ATOM      8  C   UNL     1      45.271  21.543  20.808  0.00  0.00    -0.200 A 
ATOM      9  C   UNL     1      44.423  22.348  19.906  0.00  0.00    +0.431 A 
ATOM     10  O   UNL     1      44.787  23.433  19.489  0.00  0.00    -0.466 OA
ATOM     11  C   UNL     1      43.117  21.779  19.535  0.00  0.00    -0.344 A 
ATOM     12  C   UNL     1      42.139  22.563  18.910  0.00  0.00    +0.329 A 
ATOM     13  C   UNL     1      40.919  21.998  18.582  0.00  0.00    -0.190 A 
ATOM     14  C   UNL     1      40.669  20.666  18.869  0.00  0.00    +0.077 A 
ATOM     15  C   UNL     1      41.624  19.883  19.481  0.00  0.00    -0.213 A 
ATOM     16  O   UNL     1      42.385  23.868  18.629  0.00  0.00    -0.673 OA
ATOM     17  C   UNL     1      42.862  20.426  19.816  0.00  0.00    +0.248 A 
ENDROOT
TORSDOF 0
ENDMDL
MODEL 4
REMARK VINA RESULT:      -5.0     19.926     20.887
REMARK  Name = ZINC06523722
REMARK  1 active torsions:
REMARK  status: ('A' for Active; 'I' for Inactive)
REMARK    1  A    between atoms: C1_1  and  N1_2
REMARK                            x       y       z     vdW  Elec       q    Type
REMARK                         _______ _______ _______ _____ _____    ______ ____
ROOT
ATOM      1  C   UNL     1      48.955  19.037  20.061  0.00  0.00    +0.291 C 
ATOM      2  N   UNL     1      49.511  18.412  18.857  0.00  0.00    -0.534 N 
ATOM      3  C   UNL     1      50.339  19.152  18.037  0.00  0.00    +0.224 A 
ATOM      4  C   UNL     1      50.404  20.537  18.168  0.00  0.00    -0.071 A 
ATOM      5  C   UNL     1      51.236  21.268  17.349  0.00  0.00    +0.054 A 
ATOM      6  C   UNL     1      52.018  20.639  16.390  0.00  0.00    -0.062 A 
ATOM      7  C   UNL     1      51.970  19.270  16.242  0.00  0.00    +0.099 A 
ATOM      8  C   UNL     1      51.128  18.518  17.062  0.00  0.00    -0.200 A 
ATOM      9  C   UNL     1      51.043  17.051  16.923  0.00  0.00    +0.431 A 
ATOM     10  O   UNL     1      51.852  16.426  16.261  0.00  0.00    -0.466 OA
ATOM     11  C   UNL     1      49.934  16.378  17.619  0.00  0.00    -0.344 A 
ATOM     12  C   UNL     1      49.610  15.044  17.341  0.00  0.00    +0.329 A 
ATOM     13  C   UNL     1      48.555  14.445  18.008  0.00  0.00    -0.190 A 
ATOM     14  C   UNL     1      47.828  15.161  18.945  0.00  0.00    +0.077 A 
ATOM     15  C   UNL     1      48.139  16.473  19.229  0.00  0.00    -0.213 A 
ATOM     16  O   UNL     1      50.324  14.344  16.423  0.00  0.00    -0.673 OA
ATOM     17  C   UNL     1      49.199  17.098  18.577  0.00  0.00    +0.248 A 
ENDROOT
TORSDOF 0
ENDMDL
MODEL 5
REMARK VINA RESULT:      -4.9     19.587     20.628
REMARK  Name = ZINC06523722
REMARK  1 active torsions:
REMARK  status: ('A' for Active; 'I' for Inactive)
REMARK    1  A    between atoms: C1_1  and  N1_2
REMARK                            x       y       z     vdW  Elec       q    Type
REMARK                         _______ _______ _______ _____ _____    ______ ____
ROOT
ATOM      1  C   UNL     1      48.712  20.602  19.856  0.00  0.00    +0.291 C 
ATOM      2  N   UNL     1      48.880  19.559  18.841  0.00  0.00    -0.534 N 
ATOM      3  C   UNL     1      49.983  19.600  18.012  0.00  0.00    +0.224 A 
ATOM      4  C   UNL     1      50.755  20.755  17.924  0.00  0.00    -0.071 A 
ATOM      5  C   UNL     1      51.857  20.786  17.099  0.00  0.00    +0.054 A 
ATOM      6  C   UNL     1      52.213  19.673  16.349  0.00  0.00    -0.062 A 
ATOM      7  C   UNL     1      51.464  18.519  16.419  0.00  0.00    +0.099 A 
ATOM      8  C   UNL     1      50.342  18.476  17.248  0.00  0.00    -0.200 A 
ATOM      9  C   UNL     1      49.510  17.260  17.339  0.00  0.00    +0.431 A 
ATOM     10  O   UNL     1      49.887  16.195  16.884  0.00  0.00    -0.466 OA
ATOM     11  C   UNL     1      48.204  17.394  18.003  0.00  0.00    -0.344 A 
ATOM     12  C   UNL     1      47.238  16.383  17.909  0.00  0.00    +0.329 A 
ATOM     13  C   UNL     1      46.017  16.546  18.539  0.00  0.00    -0.190 A 
ATOM     14  C   UNL     1      45.753  17.699  19.259  0.00  0.00    +0.077 A 
ATOM     15  C   UNL     1      46.696  18.700  19.362  0.00  0.00    -0.213 A 
ATOM     16  O   UNL     1      47.498  15.253  17.204  0.00  0.00    -0.673 OA
ATOM     17  C   UNL     1      47.935  18.559  18.742  0.00  0.00    +0.248 A 
ENDROOT
TORSDOF 0
ENDMDL
MODEL 6
REMARK VINA RESULT:      -4.9      2.721      3.590
REMARK  Name = ZINC06523722
REMARK  1 active torsions:
REMARK  status: ('A' for Active; 'I' for Inactive)
REMARK    1  A    between atoms: C1_1  and  N1_2
REMARK                            x       y       z     vdW  Elec       q    Type
REMARK                         _______ _______ _______ _____ _____    ______ ____
ROOT
ATOM      1  C   UNL     1      53.100  34.125   6.750  0.00  0.00    +0.291 C 
ATOM      2  N   UNL     1      53.426  33.642   5.407  0.00  0.00    -0.534 N 
ATOM      3  C   UNL     1      54.735  33.325   5.106  0.00  0.00    +0.224 A 
ATOM      4  C   UNL     1      55.769  33.740   5.941  0.00  0.00    -0.071 A 
ATOM      5  C   UNL     1      57.073  33.416   5.637  0.00  0.00    +0.054 A 
ATOM      6  C   UNL     1      57.373  32.674   4.502  0.00  0.00    -0.062 A 
ATOM      7  C   UNL     1      56.367  32.255   3.660  0.00  0.00    +0.099 A 
ATOM      8  C   UNL     1      55.042  32.580   3.954  0.00  0.00    -0.200 A 
ATOM      9  C   UNL     1      53.940  32.155   3.068  0.00  0.00    +0.431 A 
ATOM     10  O   UNL     1      54.111  31.329   2.190  0.00  0.00    -0.466 OA
ATOM     11  C   UNL     1      52.625  32.777   3.294  0.00  0.00    -0.344 A 
ATOM     12  C   UNL     1      51.593  32.647   2.356  0.00  0.00    +0.329 A 
ATOM     13  C   UNL     1      50.372  33.252   2.597  0.00  0.00    -0.190 A 
ATOM     14  C   UNL     1      50.172  33.979   3.759  0.00  0.00    +0.077 A 
ATOM     15  C   UNL     1      51.179  34.113   4.691  0.00  0.00    -0.213 A 
ATOM     16  O   UNL     1      51.790  31.933   1.218  0.00  0.00    -0.673 OA
ATOM     17  C   UNL     1      52.415  33.509   4.476  0.00  0.00    +0.248 A 
ENDROOT
TORSDOF 0
ENDMDL
MODEL 7
REMARK VINA RESULT:      -4.9     21.068     22.279
REMARK  Name = ZINC06523722
REMARK  1 active torsions:
REMARK  status: ('A' for Active; 'I' for Inactive)
REMARK    1  A    between atoms: C1_1  and  N1_2
REMARK                            x       y       z     vdW  Elec       q    Type
REMARK                         _______ _______ _______ _____ _____    ______ ____
ROOT
ATOM      1  C   UNL     1      45.169  23.468  20.391  0.00  0.00    +0.291 C 
ATOM      2  N   UNL     1      44.815  22.053  20.246  0.00  0.00    -0.534 N 
ATOM      3  C   UNL     1      45.749  21.090  20.570  0.00  0.00    +0.224 A 
ATOM      4  C   UNL     1      47.088  21.435  20.734  0.00  0.00    -0.071 A 
ATOM      5  C   UNL     1      48.013  20.469  21.062  0.00  0.00    +0.054 A 
ATOM      6  C   UNL     1      47.626  19.147  21.235  0.00  0.00    -0.062 A 
ATOM      7  C   UNL     1      46.308  18.782  21.076  0.00  0.00    +0.099 A 
ATOM      8  C   UNL     1      45.361  19.750  20.740  0.00  0.00    -0.200 A 
ATOM      9  C   UNL     1      43.941  19.392  20.551  0.00  0.00    +0.431 A 
ATOM     10  O   UNL     1      43.506  18.308  20.897  0.00  0.00    -0.466 OA
ATOM     11  C   UNL     1      43.076  20.404  19.924  0.00  0.00    -0.344 A 
ATOM     12  C   UNL     1      41.795  20.073  19.463  0.00  0.00    +0.329 A 
ATOM     13  C   UNL     1      41.011  21.048  18.870  0.00  0.00    -0.190 A 
ATOM     14  C   UNL     1      41.490  22.341  18.737  0.00  0.00    +0.077 A 
ATOM     15  C   UNL     1      42.748  22.679  19.189  0.00  0.00    -0.213 A 
ATOM     16  O   UNL     1      41.326  18.806  19.595  0.00  0.00    -0.673 OA
ATOM     17  C   UNL     1      43.555  21.719  19.794  0.00  0.00    +0.248 A 
ENDROOT
TORSDOF 0
ENDMDL
MODEL 8
REMARK VINA RESULT:      -4.8      2.986      4.979
REMARK  Name = ZINC06523722
REMARK  1 active torsions:
REMARK  status: ('A' for Active; 'I' for Inactive)
REMARK    1  A    between atoms: C1_1  and  N1_2
REMARK                            x       y       z     vdW  Elec       q    Type
REMARK                         _______ _______ _______ _____ _____    ______ ____
ROOT
ATOM      1  C   UNL     1      50.354  32.846   3.631  0.00  0.00    +0.291 C 
ATOM      2  N   UNL     1      51.794  32.747   3.380  0.00  0.00    -0.534 N 
ATOM      3  C   UNL     1      52.674  32.979   4.417  0.00  0.00    +0.224 A 
ATOM      4  C   UNL     1      52.236  33.590   5.589  0.00  0.00    -0.071 A 
ATOM      5  C   UNL     1      53.119  33.813   6.622  0.00  0.00    +0.054 A 
ATOM      6  C   UNL     1      54.450  33.433   6.511  0.00  0.00    -0.062 A 
ATOM      7  C   UNL     1      54.906  32.828   5.361  0.00  0.00    +0.099 A 
ATOM      8  C   UNL     1      54.023  32.600   4.305  0.00  0.00    -0.200 A 
ATOM      9  C   UNL     1      54.481  31.964   3.054  0.00  0.00    +0.431 A 
ATOM     10  O   UNL     1      55.567  31.417   2.978  0.00  0.00    -0.466 OA
ATOM     11  C   UNL     1      53.567  32.024   1.902  0.00  0.00    -0.344 A 
ATOM     12  C   UNL     1      54.005  31.692   0.614  0.00  0.00    +0.329 A 
ATOM     13  C   UNL     1      53.121  31.767  -0.448  0.00  0.00    -0.190 A 
ATOM     14  C   UNL     1      51.811  32.166  -0.236  0.00  0.00    +0.077 A 
ATOM     15  C   UNL     1      51.367  32.492   1.028  0.00  0.00    -0.213 A 
ATOM     16  O   UNL     1      55.289  31.301   0.408  0.00  0.00    -0.673 OA
ATOM     17  C   UNL     1      52.235  32.419   2.114  0.00  0.00    +0.248 A 
ENDROOT
TORSDOF 0
ENDMDL
MODEL 9
REMARK VINA RESULT:      -4.7     22.448     23.940
REMARK  Name = ZINC06523722
REMARK  1 active torsions:
REMARK  status: ('A' for Active; 'I' for Inactive)
REMARK    1  A    between atoms: C1_1  and  N1_2
REMARK                            x       y       z     vdW  Elec       q    Type
REMARK                         _______ _______ _______ _____ _____    ______ ____
ROOT
ATOM      1  C   UNL     1      46.569  18.445  17.622  0.00  0.00    +0.291 C 
ATOM      2  N   UNL     1      45.789  17.627  18.555  0.00  0.00    -0.534 N 
ATOM      3  C   UNL     1      45.926  16.254  18.521  0.00  0.00    +0.224 A 
ATOM      4  C   UNL     1      46.544  15.635  17.438  0.00  0.00    -0.071 A 
ATOM      5  C   UNL     1      46.683  14.265  17.415  0.00  0.00    +0.054 A 
ATOM      6  C   UNL     1      46.212  13.487  18.464  0.00  0.00    -0.062 A 
ATOM      7  C   UNL     1      45.595  14.077  19.545  0.00  0.00    +0.099 A 
ATOM      8  C   UNL     1      45.446  15.464  19.580  0.00  0.00    -0.200 A 
ATOM      9  C   UNL     1      44.780  16.129  20.718  0.00  0.00    +0.431 A 
ATOM     10  O   UNL     1      44.545  15.534  21.754  0.00  0.00    -0.466 OA
ATOM     11  C   UNL     1      44.412  17.543  20.541  0.00  0.00    -0.344 A 
ATOM     12  C   UNL     1      43.553  18.184  21.443  0.00  0.00    +0.329 A 
ATOM     13  C   UNL     1      43.221  19.513  21.242  0.00  0.00    -0.190 A 
ATOM     14  C   UNL     1      43.737  20.203  20.158  0.00  0.00    +0.077 A 
ATOM     15  C   UNL     1      44.587  19.584  19.265  0.00  0.00    -0.213 A 
ATOM     16  O   UNL     1      43.048  17.506  22.505  0.00  0.00    -0.673 OA
ATOM     17  C   UNL     1      44.941  18.250  19.448  0.00  0.00    +0.248 A 
ENDROOT
TORSDOF 0
ENDMDL
