MODEL 1
REMARK VINA RESULT:      -7.4      0.000      0.000
REMARK  Name = ZINC04654685
REMARK  8 active torsions:
REMARK  status: ('A' for Active; 'I' for Inactive)
REMARK    1  A    between atoms: C1_1  and  C2_2
REMARK    2  A    between atoms: C4_4  and  O3_27
REMARK    3  A    between atoms: C7_7  and  C8_8
REMARK    4  A    between atoms: C11_11  and  O1_21
REMARK    5  A    between atoms: C15_15  and  C18_20
REMARK    6  A    between atoms: C16_17  and  C17_19
REMARK    7  A    between atoms: C22_25  and  O2_26
REMARK    8  A    between atoms: O3_27  and  C23_28
REMARK                            x       y       z     vdW  Elec       q    Type
REMARK                         _______ _______ _______ _____ _____    ______ ____
ROOT
ATOM     16  C   UNL     1      48.681  20.151  20.123  0.00  0.00    -0.013 A 
ATOM     17  C   UNL     1      49.338  20.662  21.241  0.00  0.00    +0.075 A 
ATOM     18  C   UNL     1      48.713  21.599  22.033  0.00  0.00    +0.012 A 
ATOM     19  C   UNL     1      47.431  22.028  21.719  0.00  0.00    +0.137 A 
ATOM     22  C   UNL     1      46.769  21.521  20.603  0.00  0.00    -0.150 A 
ATOM     23  C   UNL     1      45.378  22.016  20.310  0.00  0.00    +0.236 C 
ATOM     24  N   UNL     1      45.004  21.718  18.921  0.00  0.00    -0.512 N 
ATOM     25  H   UNL     1      45.583  22.278  18.285  0.00  0.00    +0.432 HD
ATOM     26  H   UNL     1      44.013  21.951  18.777  0.00  0.00    +0.436 HD
ATOM     27  C   UNL     1      45.214  20.286  18.641  0.00  0.00    +0.181 C 
ATOM     28  C   UNL     1      44.584  19.444  19.753  0.00  0.00    +0.088 C 
ATOM     29  C   UNL     1      46.718  20.017  18.584  0.00  0.00    +0.127 C 
ATOM     30  C   UNL     1      45.325  23.530  20.529  0.00  0.00    +0.093 C 
ATOM     31  C   UNL     1      47.392  20.592  19.803  0.00  0.00    -0.060 A 
ENDROOT
BRANCH  16  15
ATOM      1  C   UNL     1      48.197  17.356  20.580  0.00  0.00    +0.095 C 
ATOM      2  C   UNL     1      49.125  17.795  19.477  0.00  0.00    -0.002 A 
ATOM      3  C   UNL     1      49.745  16.840  18.681  0.00  0.00    -0.103 A 
ATOM      4  C   UNL     1      50.599  17.211  17.665  0.00  0.00    +0.181 A 
ATOM      7  C   UNL     1      50.850  18.577  17.424  0.00  0.00    -0.108 A 
ATOM      8  C   UNL     1      50.222  19.555  18.230  0.00  0.00    +0.023 A 
ATOM      9  C   UNL     1      50.471  20.914  17.991  0.00  0.00    -0.016 A 
ATOM     10  C   UNL     1      51.314  21.284  16.986  0.00  0.00    +0.060 A 
ATOM     11  C   UNL     1      51.938  20.331  16.187  0.00  0.00    -0.029 A 
ATOM     12  C   UNL     1      51.718  18.986  16.392  0.00  0.00    +0.156 A 
ATOM     15  C   UNL     1      49.350  19.143  19.268  0.00  0.00    -0.122 A 
BRANCH   4   5
ATOM      5  O   UNL     1      51.197  16.264  16.897  0.00  0.00    -0.291 OA
ATOM      6  C   UNL     1      50.586  14.972  16.869  0.00  0.00    +0.249 C 
ENDBRANCH   4   5
BRANCH  12  13
ATOM     13  O   UNL     1      52.327  18.064  15.603  0.00  0.00    -0.478 OA
ATOM     14  H   UNL     1      51.828  17.242  15.502  0.00  0.00    +0.395 HD
ENDBRANCH  12  13
ENDBRANCH  16  15
BRANCH  19  20
ATOM     20  O   UNL     1      46.818  22.952  22.504  0.00  0.00    -0.493 OA
ATOM     21  H   UNL     1      47.356  23.735  22.685  0.00  0.00    +0.399 HD
ENDBRANCH  19  20
TORSDOF 4
ENDMDL
MODEL 2
REMARK VINA RESULT:      -7.3      4.304      7.933
REMARK  Name = ZINC04654685
REMARK  8 active torsions:
REMARK  status: ('A' for Active; 'I' for Inactive)
REMARK    1  A    between atoms: C1_1  and  C2_2
REMARK    2  A    between atoms: C4_4  and  O3_27
REMARK    3  A    between atoms: C7_7  and  C8_8
REMARK    4  A    between atoms: C11_11  and  O1_21
REMARK    5  A    between atoms: C15_15  and  C18_20
REMARK    6  A    between atoms: C16_17  and  C17_19
REMARK    7  A    between atoms: C22_25  and  O2_26
REMARK    8  A    between atoms: O3_27  and  C23_28
REMARK                            x       y       z     vdW  Elec       q    Type
REMARK                         _______ _______ _______ _____ _____    ______ ____
ROOT
ATOM     16  C   UNL     1      44.206  18.192  20.921  0.00  0.00    -0.013 A 
ATOM     17  C   UNL     1      43.667  17.741  22.125  0.00  0.00    +0.075 A 
ATOM     18  C   UNL     1      43.844  16.429  22.505  0.00  0.00    +0.012 A 
ATOM     19  C   UNL     1      44.562  15.563  21.692  0.00  0.00    +0.137 A 
ATOM     22  C   UNL     1      45.103  16.008  20.489  0.00  0.00    -0.150 A 
ATOM     23  C   UNL     1      45.877  15.029  19.647  0.00  0.00    +0.236 C 
ATOM     24  N   UNL     1      46.009  15.521  18.268  0.00  0.00    -0.512 N 
ATOM     25  H   UNL     1      45.084  15.526  17.820  0.00  0.00    +0.432 HD
ATOM     26  H   UNL     1      46.640  14.903  17.745  0.00  0.00    +0.436 HD
ATOM     27  C   UNL     1      46.557  16.889  18.274  0.00  0.00    +0.181 C 
ATOM     28  C   UNL     1      47.790  16.948  19.180  0.00  0.00    +0.088 C 
ATOM     29  C   UNL     1      45.484  17.841  18.805  0.00  0.00    +0.127 C 
ATOM     30  C   UNL     1      45.143  13.686  19.631  0.00  0.00    +0.093 C 
ATOM     31  C   UNL     1      44.921  17.315  20.100  0.00  0.00    -0.060 A 
ENDROOT
BRANCH  16  15
ATOM      1  C   UNL     1      46.206  20.146  21.584  0.00  0.00    +0.095 C 
ATOM      2  C   UNL     1      44.972  20.552  20.820  0.00  0.00    -0.002 A 
ATOM      3  C   UNL     1      44.807  21.877  20.438  0.00  0.00    -0.103 A 
ATOM      4  C   UNL     1      43.689  22.278  19.738  0.00  0.00    +0.181 A 
ATOM      7  C   UNL     1      42.696  21.336  19.403  0.00  0.00    -0.108 A 
ATOM      8  C   UNL     1      42.858  19.985  19.790  0.00  0.00    +0.023 A 
ATOM      9  C   UNL     1      41.869  19.047  19.457  0.00  0.00    -0.016 A 
ATOM     10  C   UNL     1      40.764  19.441  18.765  0.00  0.00    +0.060 A 
ATOM     11  C   UNL     1      40.593  20.767  18.380  0.00  0.00    -0.029 A 
ATOM     12  C   UNL     1      41.543  21.717  18.689  0.00  0.00    +0.156 A 
ATOM     15  C   UNL     1      44.017  19.602  20.508  0.00  0.00    -0.122 A 
BRANCH   4   5
ATOM      5  O   UNL     1      43.545  23.578  19.372  0.00  0.00    -0.291 OA
ATOM      6  C   UNL     1      44.740  24.311  19.098  0.00  0.00    +0.249 C 
ENDBRANCH   4   5
BRANCH  12  13
ATOM     13  O   UNL     1      41.371  23.008  18.304  0.00  0.00    -0.478 OA
ATOM     14  H   UNL     1      40.908  23.108  17.460  0.00  0.00    +0.395 HD
ENDBRANCH  12  13
ENDBRANCH  16  15
BRANCH  19  20
ATOM     20  O   UNL     1      44.735  14.271  22.073  0.00  0.00    -0.493 OA
ATOM     21  H   UNL     1      45.660  14.020  22.205  0.00  0.00    +0.399 HD
ENDBRANCH  19  20
TORSDOF 4
ENDMDL
MODEL 3
REMARK VINA RESULT:      -6.5      1.331      1.485
REMARK  Name = ZINC04654685
REMARK  8 active torsions:
REMARK  status: ('A' for Active; 'I' for Inactive)
REMARK    1  A    between atoms: C1_1  and  C2_2
REMARK    2  A    between atoms: C4_4  and  O3_27
REMARK    3  A    between atoms: C7_7  and  C8_8
REMARK    4  A    between atoms: C11_11  and  O1_21
REMARK    5  A    between atoms: C15_15  and  C18_20
REMARK    6  A    between atoms: C16_17  and  C17_19
REMARK    7  A    between atoms: C22_25  and  O2_26
REMARK    8  A    between atoms: O3_27  and  C23_28
REMARK                            x       y       z     vdW  Elec       q    Type
REMARK                         _______ _______ _______ _____ _____    ______ ____
ROOT
ATOM     16  C   UNL     1      47.869  20.434  20.791  0.00  0.00    -0.013 A 
ATOM     17  C   UNL     1      48.208  21.329  21.804  0.00  0.00    +0.075 A 
ATOM     18  C   UNL     1      47.298  22.281  22.208  0.00  0.00    +0.012 A 
ATOM     19  C   UNL     1      46.048  22.344  21.609  0.00  0.00    +0.137 A 
ATOM     22  C   UNL     1      45.704  21.451  20.596  0.00  0.00    -0.150 A 
ATOM     23  C   UNL     1      44.333  21.559  19.983  0.00  0.00    +0.236 C 
ATOM     24  N   UNL     1      44.286  20.857  18.693  0.00  0.00    -0.512 N 
ATOM     25  H   UNL     1      44.877  21.352  18.015  0.00  0.00    +0.432 HD
ATOM     26  H   UNL     1      43.317  20.837  18.352  0.00  0.00    +0.436 HD
ATOM     27  C   UNL     1      44.776  19.476  18.855  0.00  0.00    +0.181 C 
ATOM     28  C   UNL     1      44.089  18.822  20.057  0.00  0.00    +0.088 C 
ATOM     29  C   UNL     1      46.287  19.521  19.088  0.00  0.00    +0.127 C 
ATOM     30  C   UNL     1      43.994  23.035  19.763  0.00  0.00    +0.093 C 
ATOM     31  C   UNL     1      46.612  20.505  20.182  0.00  0.00    -0.060 A 
ENDROOT
BRANCH  16  15
ATOM      1  C   UNL     1      47.866  17.847  22.041  0.00  0.00    +0.095 C 
ATOM      2  C   UNL     1      48.854  18.159  20.946  0.00  0.00    -0.002 A 
ATOM      3  C   UNL     1      49.762  17.188  20.544  0.00  0.00    -0.103 A 
ATOM      4  C   UNL     1      50.676  17.445  19.545  0.00  0.00    +0.181 A 
ATOM      7  C   UNL     1      50.695  18.708  18.919  0.00  0.00    -0.108 A 
ATOM      8  C   UNL     1      49.772  19.701  19.324  0.00  0.00    +0.023 A 
ATOM      9  C   UNL     1      49.791  20.957  18.701  0.00  0.00    -0.016 A 
ATOM     10  C   UNL     1      50.693  21.214  17.713  0.00  0.00    +0.060 A 
ATOM     11  C   UNL     1      51.606  20.245  17.307  0.00  0.00    -0.029 A 
ATOM     12  C   UNL     1      51.618  18.999  17.895  0.00  0.00    +0.156 A 
ATOM     15  C   UNL     1      48.845  19.408  20.353  0.00  0.00    -0.122 A 
BRANCH   4   5
ATOM      5  O   UNL     1      51.558  16.484  19.165  0.00  0.00    -0.291 OA
ATOM      6  C   UNL     1      51.237  15.136  19.513  0.00  0.00    +0.249 C 
ENDBRANCH   4   5
BRANCH  12  13
ATOM     13  O   UNL     1      52.509  18.058  17.488  0.00  0.00    -0.478 OA
ATOM     14  H   UNL     1      53.192  17.854  18.142  0.00  0.00    +0.395 HD
ENDBRANCH  12  13
ENDBRANCH  16  15
BRANCH  19  20
ATOM     20  O   UNL     1      45.154  23.284  22.012  0.00  0.00    -0.493 OA
ATOM     21  H   UNL     1      44.598  23.007  22.752  0.00  0.00    +0.399 HD
ENDBRANCH  19  20
TORSDOF 4
ENDMDL
MODEL 4
REMARK VINA RESULT:      -6.2      3.707      4.936
REMARK  Name = ZINC04654685
REMARK  8 active torsions:
REMARK  status: ('A' for Active; 'I' for Inactive)
REMARK    1  A    between atoms: C1_1  and  C2_2
REMARK    2  A    between atoms: C4_4  and  O3_27
REMARK    3  A    between atoms: C7_7  and  C8_8
REMARK    4  A    between atoms: C11_11  and  O1_21
REMARK    5  A    between atoms: C15_15  and  C18_20
REMARK    6  A    between atoms: C16_17  and  C17_19
REMARK    7  A    between atoms: C22_25  and  O2_26
REMARK    8  A    between atoms: O3_27  and  C23_28
REMARK                            x       y       z     vdW  Elec       q    Type
REMARK                         _______ _______ _______ _____ _____    ______ ____
ROOT
ATOM     16  C   UNL     1      44.750  19.580  20.523  0.00  0.00    -0.013 A 
ATOM     17  C   UNL     1      45.679  20.309  21.263  0.00  0.00    +0.075 A 
ATOM     18  C   UNL     1      45.538  21.675  21.384  0.00  0.00    +0.012 A 
ATOM     19  C   UNL     1      44.471  22.317  20.773  0.00  0.00    +0.137 A 
ATOM     22  C   UNL     1      43.539  21.593  20.033  0.00  0.00    -0.150 A 
ATOM     23  C   UNL     1      42.397  22.340  19.395  0.00  0.00    +0.236 C 
ATOM     24  N   UNL     1      41.773  21.528  18.341  0.00  0.00    -0.512 N 
ATOM     25  H   UNL     1      42.434  21.415  17.562  0.00  0.00    +0.432 HD
ATOM     26  H   UNL     1      40.925  22.001  18.004  0.00  0.00    +0.436 HD
ATOM     27  C   UNL     1      41.414  20.202  18.875  0.00  0.00    +0.181 C 
ATOM     28  C   UNL     1      40.663  20.363  20.198  0.00  0.00    +0.088 C 
ATOM     29  C   UNL     1      42.700  19.407  19.107  0.00  0.00    +0.127 C 
ATOM     30  C   UNL     1      42.923  23.639  18.782  0.00  0.00    +0.093 C 
ATOM     31  C   UNL     1      43.680  20.232  19.901  0.00  0.00    -0.060 A 
ENDROOT
BRANCH  16  15
ATOM      1  C   UNL     1      43.593  17.851  22.505  0.00  0.00    +0.095 C 
ATOM      2  C   UNL     1      44.346  17.269  21.337  0.00  0.00    -0.002 A 
ATOM      3  C   UNL     1      44.477  15.891  21.223  0.00  0.00    -0.103 A 
ATOM      4  C   UNL     1      45.160  15.330  20.166  0.00  0.00    +0.181 A 
ATOM      7  C   UNL     1      45.735  16.160  19.183  0.00  0.00    -0.108 A 
ATOM      8  C   UNL     1      45.606  17.564  19.292  0.00  0.00    +0.023 A 
ATOM      9  C   UNL     1      46.178  18.390  18.315  0.00  0.00    -0.016 A 
ATOM     10  C   UNL     1      46.854  17.838  17.268  0.00  0.00    +0.060 A 
ATOM     11  C   UNL     1      46.988  16.458  17.149  0.00  0.00    -0.029 A 
ATOM     12  C   UNL     1      46.439  15.614  18.091  0.00  0.00    +0.156 A 
ATOM     15  C   UNL     1      44.898  18.112  20.390  0.00  0.00    -0.122 A 
BRANCH   4   5
ATOM      5  O   UNL     1      45.278  13.980  20.070  0.00  0.00    -0.291 OA
ATOM      6  C   UNL     1      45.817  13.295  21.203  0.00  0.00    +0.249 C 
ENDBRANCH   4   5
BRANCH  12  13
ATOM     13  O   UNL     1      46.571  14.269  17.964  0.00  0.00    -0.478 OA
ATOM     14  H   UNL     1      47.419  13.990  17.592  0.00  0.00    +0.395 HD
ENDBRANCH  12  13
ENDBRANCH  16  15
BRANCH  19  20
ATOM     20  O   UNL     1      44.335  23.663  20.896  0.00  0.00    -0.493 OA
ATOM     21  H   UNL     1      45.141  24.160  20.699  0.00  0.00    +0.399 HD
ENDBRANCH  19  20
TORSDOF 4
ENDMDL
MODEL 5
REMARK VINA RESULT:      -5.9      1.947      6.857
REMARK  Name = ZINC04654685
REMARK  8 active torsions:
REMARK  status: ('A' for Active; 'I' for Inactive)
REMARK    1  A    between atoms: C1_1  and  C2_2
REMARK    2  A    between atoms: C4_4  and  O3_27
REMARK    3  A    between atoms: C7_7  and  C8_8
REMARK    4  A    between atoms: C11_11  and  O1_21
REMARK    5  A    between atoms: C15_15  and  C18_20
REMARK    6  A    between atoms: C16_17  and  C17_19
REMARK    7  A    between atoms: C22_25  and  O2_26
REMARK    8  A    between atoms: O3_27  and  C23_28
REMARK                            x       y       z     vdW  Elec       q    Type
REMARK                         _______ _______ _______ _____ _____    ______ ____
ROOT
ATOM     16  C   UNL     1      48.798  19.133  19.973  0.00  0.00    -0.013 A 
ATOM     17  C   UNL     1      48.699  17.883  20.582  0.00  0.00    +0.075 A 
ATOM     18  C   UNL     1      49.559  16.872  20.212  0.00  0.00    +0.012 A 
ATOM     19  C   UNL     1      50.521  17.103  19.239  0.00  0.00    +0.137 A 
ATOM     22  C   UNL     1      50.625  18.350  18.628  0.00  0.00    -0.150 A 
ATOM     23  C   UNL     1      51.689  18.549  17.582  0.00  0.00    +0.236 C 
ATOM     24  N   UNL     1      51.399  19.735  16.765  0.00  0.00    -0.512 N 
ATOM     25  H   UNL     1      50.556  19.563  16.202  0.00  0.00    +0.432 HD
ATOM     26  H   UNL     1      52.194  19.923  16.142  0.00  0.00    +0.436 HD
ATOM     27  C   UNL     1      51.174  20.902  17.637  0.00  0.00    +0.181 C 
ATOM     28  C   UNL     1      52.298  20.998  18.672  0.00  0.00    +0.088 C 
ATOM     29  C   UNL     1      49.833  20.725  18.351  0.00  0.00    +0.127 C 
ATOM     30  C   UNL     1      51.741  17.317  16.675  0.00  0.00    +0.093 C 
ATOM     31  C   UNL     1      49.763  19.360  18.987  0.00  0.00    -0.060 A 
ENDROOT
BRANCH  16  15
ATOM      1  C   UNL     1      49.678  21.133  21.839  0.00  0.00    +0.095 C 
ATOM      2  C   UNL     1      48.286  21.192  21.264  0.00  0.00    -0.002 A 
ATOM      3  C   UNL     1      47.431  22.220  21.642  0.00  0.00    -0.103 A 
ATOM      4  C   UNL     1      46.152  22.299  21.133  0.00  0.00    +0.181 A 
ATOM      7  C   UNL     1      45.700  21.327  20.217  0.00  0.00    -0.108 A 
ATOM      8  C   UNL     1      46.566  20.279  19.828  0.00  0.00    +0.023 A 
ATOM      9  C   UNL     1      46.117  19.312  18.917  0.00  0.00    -0.016 A 
ATOM     10  C   UNL     1      44.854  19.389  18.413  0.00  0.00    +0.060 A 
ATOM     11  C   UNL     1      43.993  20.415  18.788  0.00  0.00    -0.029 A 
ATOM     12  C   UNL     1      44.399  21.383  19.681  0.00  0.00    +0.156 A 
ATOM     15  C   UNL     1      47.875  20.222  20.368  0.00  0.00    -0.122 A 
BRANCH   4   5
ATOM      5  O   UNL     1      45.330  23.310  21.513  0.00  0.00    -0.291 OA
ATOM      6  C   UNL     1      45.677  24.626  21.078  0.00  0.00    +0.249 C 
ENDBRANCH   4   5
BRANCH  12  13
ATOM     13  O   UNL     1      43.553  22.385  20.036  0.00  0.00    -0.478 OA
ATOM     14  H   UNL     1      43.013  22.186  20.814  0.00  0.00    +0.395 HD
ENDBRANCH  12  13
ENDBRANCH  16  15
BRANCH  19  20
ATOM     20  O   UNL     1      51.368  16.104  18.878  0.00  0.00    -0.493 OA
ATOM     21  H   UNL     1      51.699  16.175  17.973  0.00  0.00    +0.399 HD
ENDBRANCH  19  20
TORSDOF 4
ENDMDL
MODEL 6
REMARK VINA RESULT:      -5.9      4.016      6.511
REMARK  Name = ZINC04654685
REMARK  8 active torsions:
REMARK  status: ('A' for Active; 'I' for Inactive)
REMARK    1  A    between atoms: C1_1  and  C2_2
REMARK    2  A    between atoms: C4_4  and  O3_27
REMARK    3  A    between atoms: C7_7  and  C8_8
REMARK    4  A    between atoms: C11_11  and  O1_21
REMARK    5  A    between atoms: C15_15  and  C18_20
REMARK    6  A    between atoms: C16_17  and  C17_19
REMARK    7  A    between atoms: C22_25  and  O2_26
REMARK    8  A    between atoms: O3_27  and  C23_28
REMARK                            x       y       z     vdW  Elec       q    Type
REMARK                         _______ _______ _______ _____ _____    ______ ____
ROOT
ATOM     16  C   UNL     1      48.919  16.653  17.886  0.00  0.00    -0.013 A 
ATOM     17  C   UNL     1      47.603  16.970  17.557  0.00  0.00    +0.075 A 
ATOM     18  C   UNL     1      46.832  16.061  16.866  0.00  0.00    +0.012 A 
ATOM     19  C   UNL     1      47.367  14.832  16.505  0.00  0.00    +0.137 A 
ATOM     22  C   UNL     1      48.681  14.509  16.833  0.00  0.00    -0.150 A 
ATOM     23  C   UNL     1      49.211  13.161  16.422  0.00  0.00    +0.236 C 
ATOM     24  N   UNL     1      50.679  13.146  16.463  0.00  0.00    -0.512 N 
ATOM     25  H   UNL     1      51.046  13.767  15.731  0.00  0.00    +0.432 HD
ATOM     26  H   UNL     1      51.015  12.189  16.300  0.00  0.00    +0.436 HD
ATOM     27  C   UNL     1      51.150  13.612  17.780  0.00  0.00    +0.181 C 
ATOM     28  C   UNL     1      50.392  12.878  18.889  0.00  0.00    +0.088 C 
ATOM     29  C   UNL     1      50.887  15.115  17.887  0.00  0.00    +0.127 C 
ATOM     30  C   UNL     1      48.746  12.849  14.998  0.00  0.00    +0.093 C 
ATOM     31  C   UNL     1      49.458  15.417  17.514  0.00  0.00    -0.060 A 
ENDROOT
BRANCH  16  15
ATOM      1  C   UNL     1      48.825  16.706  20.758  0.00  0.00    +0.095 C 
ATOM      2  C   UNL     1      49.716  17.664  20.010  0.00  0.00    -0.002 A 
ATOM      3  C   UNL     1      50.492  18.573  20.718  0.00  0.00    -0.103 A 
ATOM      4  C   UNL     1      51.317  19.461  20.061  0.00  0.00    +0.181 A 
ATOM      7  C   UNL     1      51.378  19.452  18.653  0.00  0.00    -0.108 A 
ATOM      8  C   UNL     1      50.590  18.529  17.927  0.00  0.00    +0.023 A 
ATOM      9  C   UNL     1      50.650  18.520  16.525  0.00  0.00    -0.016 A 
ATOM     10  C   UNL     1      51.465  19.397  15.874  0.00  0.00    +0.060 A 
ATOM     11  C   UNL     1      52.244  20.310  16.578  0.00  0.00    -0.029 A 
ATOM     12  C   UNL     1      52.212  20.348  17.955  0.00  0.00    +0.156 A 
ATOM     15  C   UNL     1      49.751  17.628  18.628  0.00  0.00    -0.122 A 
BRANCH   4   5
ATOM      5  O   UNL     1      52.069  20.343  20.769  0.00  0.00    -0.291 OA
ATOM      6  C   UNL     1      52.589  19.892  22.022  0.00  0.00    +0.249 C 
ENDBRANCH   4   5
BRANCH  12  13
ATOM     13  O   UNL     1      52.980  21.239  18.634  0.00  0.00    -0.478 OA
ATOM     14  H   UNL     1      53.909  20.981  18.707  0.00  0.00    +0.395 HD
ENDBRANCH  12  13
ENDBRANCH  16  15
BRANCH  19  20
ATOM     20  O   UNL     1      46.602  13.938  15.826  0.00  0.00    -0.493 OA
ATOM     21  H   UNL     1      46.076  14.329  15.115  0.00  0.00    +0.399 HD
ENDBRANCH  19  20
TORSDOF 4
ENDMDL
MODEL 7
REMARK VINA RESULT:      -5.8      3.525      7.035
REMARK  Name = ZINC04654685
REMARK  8 active torsions:
REMARK  status: ('A' for Active; 'I' for Inactive)
REMARK    1  A    between atoms: C1_1  and  C2_2
REMARK    2  A    between atoms: C4_4  and  O3_27
REMARK    3  A    between atoms: C7_7  and  C8_8
REMARK    4  A    between atoms: C11_11  and  O1_21
REMARK    5  A    between atoms: C15_15  and  C18_20
REMARK    6  A    between atoms: C16_17  and  C17_19
REMARK    7  A    between atoms: C22_25  and  O2_26
REMARK    8  A    between atoms: O3_27  and  C23_28
REMARK                            x       y       z     vdW  Elec       q    Type
REMARK                         _______ _______ _______ _____ _____    ______ ____
ROOT
ATOM     16  C   UNL     1      44.938  18.361  20.362  0.00  0.00    -0.013 A 
ATOM     17  C   UNL     1      44.251  17.663  21.354  0.00  0.00    +0.075 A 
ATOM     18  C   UNL     1      44.333  16.288  21.405  0.00  0.00    +0.012 A 
ATOM     19  C   UNL     1      45.100  15.605  20.472  0.00  0.00    +0.137 A 
ATOM     22  C   UNL     1      45.790  16.297  19.480  0.00  0.00    -0.150 A 
ATOM     23  C   UNL     1      46.612  15.508  18.496  0.00  0.00    +0.236 C 
ATOM     24  N   UNL     1      46.915  16.316  17.307  0.00  0.00    -0.512 N 
ATOM     25  H   UNL     1      46.048  16.494  16.787  0.00  0.00    +0.432 HD
ATOM     26  H   UNL     1      47.576  15.807  16.708  0.00  0.00    +0.436 HD
ATOM     27  C   UNL     1      47.515  17.600  17.713  0.00  0.00    +0.181 C 
ATOM     28  C   UNL     1      48.640  17.351  18.719  0.00  0.00    +0.088 C 
ATOM     29  C   UNL     1      46.428  18.461  18.360  0.00  0.00    +0.127 C 
ATOM     30  C   UNL     1      45.831  14.263  18.069  0.00  0.00    +0.093 C 
ATOM     31  C   UNL     1      45.704  17.669  19.418  0.00  0.00    -0.060 A 
ENDROOT
BRANCH  16  15
ATOM      1  C   UNL     1      42.810  19.602  18.883  0.00  0.00    +0.095 C 
ATOM      2  C   UNL     1      43.833  20.449  19.596  0.00  0.00    -0.002 A 
ATOM      3  C   UNL     1      43.741  21.834  19.534  0.00  0.00    -0.103 A 
ATOM      4  C   UNL     1      44.663  22.633  20.176  0.00  0.00    +0.181 A 
ATOM      7  C   UNL     1      45.715  22.044  20.907  0.00  0.00    -0.108 A 
ATOM      8  C   UNL     1      45.814  20.635  20.974  0.00  0.00    +0.023 A 
ATOM      9  C   UNL     1      46.860  20.049  21.701  0.00  0.00    -0.016 A 
ATOM     10  C   UNL     1      47.771  20.837  22.336  0.00  0.00    +0.060 A 
ATOM     11  C   UNL     1      47.685  22.224  22.277  0.00  0.00    -0.029 A 
ATOM     12  C   UNL     1      46.670  22.836  21.573  0.00  0.00    +0.156 A 
ATOM     15  C   UNL     1      44.853  19.838  20.304  0.00  0.00    -0.122 A 
BRANCH   4   5
ATOM      5  O   UNL     1      44.558  23.985  20.105  0.00  0.00    -0.291 OA
ATOM      6  C   UNL     1      44.518  24.564  18.799  0.00  0.00    +0.249 C 
ENDBRANCH   4   5
BRANCH  12  13
ATOM     13  O   UNL     1      46.590  24.191  21.526  0.00  0.00    -0.478 OA
ATOM     14  H   UNL     1      47.443  24.639  21.613  0.00  0.00    +0.395 HD
ENDBRANCH  12  13
ENDBRANCH  16  15
BRANCH  19  20
ATOM     20  O   UNL     1      45.179  14.250  20.527  0.00  0.00    -0.493 OA
ATOM     21  H   UNL     1      44.572  13.796  19.927  0.00  0.00    +0.399 HD
ENDBRANCH  19  20
TORSDOF 4
ENDMDL
MODEL 8
REMARK VINA RESULT:      -5.7      2.569      6.516
REMARK  Name = ZINC04654685
REMARK  8 active torsions:
REMARK  status: ('A' for Active; 'I' for Inactive)
REMARK    1  A    between atoms: C1_1  and  C2_2
REMARK    2  A    between atoms: C4_4  and  O3_27
REMARK    3  A    between atoms: C7_7  and  C8_8
REMARK    4  A    between atoms: C11_11  and  O1_21
REMARK    5  A    between atoms: C15_15  and  C18_20
REMARK    6  A    between atoms: C16_17  and  C17_19
REMARK    7  A    between atoms: C22_25  and  O2_26
REMARK    8  A    between atoms: O3_27  and  C23_28
REMARK                            x       y       z     vdW  Elec       q    Type
REMARK                         _______ _______ _______ _____ _____    ______ ____
ROOT
ATOM     16  C   UNL     1      48.330  19.390  19.465  0.00  0.00    -0.013 A 
ATOM     17  C   UNL     1      49.310  19.925  18.631  0.00  0.00    +0.075 A 
ATOM     18  C   UNL     1      50.608  19.471  18.723  0.00  0.00    +0.012 A 
ATOM     19  C   UNL     1      50.933  18.482  19.640  0.00  0.00    +0.137 A 
ATOM     22  C   UNL     1      49.956  17.943  20.475  0.00  0.00    -0.150 A 
ATOM     23  C   UNL     1      50.361  16.869  21.449  0.00  0.00    +0.236 C 
ATOM     24  N   UNL     1      49.351  16.719  22.505  0.00  0.00    -0.512 N 
ATOM     25  H   UNL     1      49.342  17.564  23.090  0.00  0.00    +0.432 HD
ATOM     26  H   UNL     1      49.583  15.904  23.086  0.00  0.00    +0.436 HD
ATOM     27  C   UNL     1      48.019  16.527  21.902  0.00  0.00    +0.181 C 
ATOM     28  C   UNL     1      48.093  15.449  20.819  0.00  0.00    +0.088 C 
ATOM     29  C   UNL     1      47.572  17.851  21.280  0.00  0.00    +0.127 C 
ATOM     30  C   UNL     1      51.700  17.245  22.087  0.00  0.00    +0.093 C 
ATOM     31  C   UNL     1      48.662  18.399  20.395  0.00  0.00    -0.060 A 
ENDROOT
BRANCH  16  15
ATOM      1  C   UNL     1      46.469  18.034  17.746  0.00  0.00    +0.095 C 
ATOM      2  C   UNL     1      46.027  19.232  18.547  0.00  0.00    -0.002 A 
ATOM      3  C   UNL     1      44.715  19.677  18.450  0.00  0.00    -0.103 A 
ATOM      4  C   UNL     1      44.283  20.769  19.171  0.00  0.00    +0.181 A 
ATOM      7  C   UNL     1      45.180  21.449  20.020  0.00  0.00    -0.108 A 
ATOM      8  C   UNL     1      46.517  21.001  20.123  0.00  0.00    +0.023 A 
ATOM      9  C   UNL     1      47.410  21.677  20.968  0.00  0.00    -0.016 A 
ATOM     10  C   UNL     1      46.985  22.757  21.681  0.00  0.00    +0.060 A 
ATOM     11  C   UNL     1      45.672  23.207  21.588  0.00  0.00    -0.029 A 
ATOM     12  C   UNL     1      44.766  22.568  20.768  0.00  0.00    +0.156 A 
ATOM     15  C   UNL     1      46.933  19.876  19.370  0.00  0.00    -0.122 A 
BRANCH   4   5
ATOM      5  O   UNL     1      42.996  21.190  19.064  0.00  0.00    -0.291 OA
ATOM      6  C   UNL     1      42.051  20.258  18.534  0.00  0.00    +0.249 C 
ENDBRANCH   4   5
BRANCH  12  13
ATOM     13  O   UNL     1      43.485  23.011  20.688  0.00  0.00    -0.478 OA
ATOM     14  H   UNL     1      43.325  23.621  19.955  0.00  0.00    +0.395 HD
ENDBRANCH  12  13
ENDBRANCH  16  15
BRANCH  19  20
ATOM     20  O   UNL     1      52.213  18.037  19.725  0.00  0.00    -0.493 OA
ATOM     21  H   UNL     1      52.867  18.738  19.848  0.00  0.00    +0.399 HD
ENDBRANCH  19  20
TORSDOF 4
ENDMDL
MODEL 9
REMARK VINA RESULT:      -5.7      1.125      3.120
REMARK  Name = ZINC04654685
REMARK  8 active torsions:
REMARK  status: ('A' for Active; 'I' for Inactive)
REMARK    1  A    between atoms: C1_1  and  C2_2
REMARK    2  A    between atoms: C4_4  and  O3_27
REMARK    3  A    between atoms: C7_7  and  C8_8
REMARK    4  A    between atoms: C11_11  and  O1_21
REMARK    5  A    between atoms: C15_15  and  C18_20
REMARK    6  A    between atoms: C16_17  and  C17_19
REMARK    7  A    between atoms: C22_25  and  O2_26
REMARK    8  A    between atoms: O3_27  and  C23_28
REMARK                            x       y       z     vdW  Elec       q    Type
REMARK                         _______ _______ _______ _____ _____    ______ ____
ROOT
ATOM     16  C   UNL     1      48.291  20.280  20.266  0.00  0.00    -0.013 A 
ATOM     17  C   UNL     1      49.011  20.788  21.345  0.00  0.00    +0.075 A 
ATOM     18  C   UNL     1      48.489  21.824  22.090  0.00  0.00    +0.012 A 
ATOM     19  C   UNL     1      47.248  22.352  21.766  0.00  0.00    +0.137 A 
ATOM     22  C   UNL     1      46.523  21.847  20.689  0.00  0.00    -0.150 A 
ATOM     23  C   UNL     1      45.179  22.453  20.384  0.00  0.00    +0.236 C 
ATOM     24  N   UNL     1      44.755  22.113  19.019  0.00  0.00    -0.512 N 
ATOM     25  H   UNL     1      45.373  22.581  18.345  0.00  0.00    +0.432 HD
ATOM     26  H   UNL     1      43.788  22.430  18.874  0.00  0.00    +0.436 HD
ATOM     27  C   UNL     1      44.826  20.655  18.820  0.00  0.00    +0.181 C 
ATOM     28  C   UNL     1      44.140  19.939  19.986  0.00  0.00    +0.088 C 
ATOM     29  C   UNL     1      46.299  20.244  18.761  0.00  0.00    +0.127 C 
ATOM     30  C   UNL     1      45.270  23.975  20.516  0.00  0.00    +0.093 C 
ATOM     31  C   UNL     1      47.043  20.820  19.937  0.00  0.00    -0.060 A 
ENDROOT
BRANCH  16  15
ATOM      1  C   UNL     1      50.179  20.846  18.176  0.00  0.00    +0.095 C 
ATOM      2  C   UNL     1      49.759  19.426  18.454  0.00  0.00    -0.002 A 
ATOM      3  C   UNL     1      50.291  18.392  17.694  0.00  0.00    -0.103 A 
ATOM      4  C   UNL     1      49.925  17.083  17.926  0.00  0.00    +0.181 A 
ATOM      7  C   UNL     1      49.000  16.784  18.947  0.00  0.00    -0.108 A 
ATOM      8  C   UNL     1      48.455  17.832  19.724  0.00  0.00    +0.023 A 
ATOM      9  C   UNL     1      47.534  17.534  20.740  0.00  0.00    -0.016 A 
ATOM     10  C   UNL     1      47.172  16.242  20.971  0.00  0.00    +0.060 A 
ATOM     11  C   UNL     1      47.701  15.202  20.213  0.00  0.00    -0.029 A 
ATOM     12  C   UNL     1      48.608  15.455  19.206  0.00  0.00    +0.156 A 
ATOM     15  C   UNL     1      48.849  19.167  19.463  0.00  0.00    -0.122 A 
BRANCH   4   5
ATOM      5  O   UNL     1      50.454  16.084  17.173  0.00  0.00    -0.291 OA
ATOM      6  C   UNL     1      51.800  16.256  16.723  0.00  0.00    +0.249 C 
ENDBRANCH   4   5
BRANCH  12  13
ATOM     13  O   UNL     1      49.123  14.433  18.475  0.00  0.00    -0.478 OA
ATOM     14  H   UNL     1      50.004  14.153  18.758  0.00  0.00    +0.395 HD
ENDBRANCH  12  13
ENDBRANCH  16  15
BRANCH  19  20
ATOM     20  O   UNL     1      46.737  23.372  22.504  0.00  0.00    -0.493 OA
ATOM     21  H   UNL     1      45.975  23.808  22.099  0.00  0.00    +0.399 HD
ENDBRANCH  19  20
TORSDOF 4
ENDMDL
