MODEL 1
REMARK VINA RESULT:      -6.7      0.000      0.000
REMARK  Name = ZINC13374323
REMARK  12 active torsions:
REMARK  status: ('A' for Active; 'I' for Inactive)
REMARK    1  A    between atoms: C1_1  and  C2_2
REMARK    2  A    between atoms: C2_2  and  O2_4
REMARK    3  A    between atoms: O2_4  and  C3_5
REMARK    4  A    between atoms: C3_5  and  C4_6
REMARK    5  A    between atoms: C4_6  and  C5_8
REMARK    6  A    between atoms: C4_6  and  N1_15
REMARK    7  A    between atoms: C5_8  and  C6_9
REMARK    8  A    between atoms: C12_16  and  C13_18
REMARK    9  A    between atoms: C13_18  and  C14_20
REMARK   10  A    between atoms: C13_18  and  N2_27
REMARK   11  A    between atoms: C14_20  and  C15_21
REMARK   12  A    between atoms: C21_28  and  C22_30
REMARK                            x       y       z     vdW  Elec       q    Type
REMARK                         _______ _______ _______ _____ _____    ______ ____
ROOT
ATOM      9  C   UNL     1      48.409  17.724  18.094  0.00  0.00    +0.255 C 
ENDROOT
BRANCH   9   8
ATOM      6  N   UNL     1      46.250  18.807  18.629  0.00  0.00    -0.712 N 
ATOM      7  H   UNL     1      45.965  18.615  17.723  0.00  0.00    +0.405 HD
ATOM      8  C   UNL     1      47.479  18.436  19.042  0.00  0.00    +0.516 C 
ATOM     27  O   UNL     1      47.836  18.675  20.177  0.00  0.00    -0.531 OA
BRANCH   6   5
ATOM      5  C   UNL     1      45.345  19.498  19.551  0.00  0.00    +0.273 C 
BRANCH   5   4
ATOM      4  C   UNL     1      44.121  18.621  19.819  0.00  0.00    +0.208 C 
BRANCH   4   3
ATOM      3  O   UNL     1      43.245  19.290  20.727  0.00  0.00    -0.350 OA
BRANCH   3   2
ATOM      1  C   UNL     1      41.306  19.891  19.321  0.00  0.00    +0.156 C 
ATOM      2  C   UNL     1      41.927  19.179  20.496  0.00  0.00    +0.458 C 
ATOM     35  O   UNL     1      41.239  18.509  21.230  0.00  0.00    -0.510 OA
ENDBRANCH   3   2
ENDBRANCH   4   3
ENDBRANCH   5   4
BRANCH   5  28
ATOM     28  C   UNL     1      44.899  20.823  18.929  0.00  0.00    +0.094 C 
BRANCH  28  29
ATOM     29  C   UNL     1      45.365  21.965  19.793  0.00  0.00    -0.085 A 
ATOM     30  C   UNL     1      46.335  21.754  20.756  0.00  0.00    +0.006 A 
ATOM     31  C   UNL     1      46.762  22.803  21.549  0.00  0.00    +0.006 A 
ATOM     32  C   UNL     1      46.218  24.063  21.380  0.00  0.00    +0.000 A 
ATOM     33  C   UNL     1      45.249  24.274  20.417  0.00  0.00    +0.007 A 
ATOM     34  C   UNL     1      44.826  23.226  19.621  0.00  0.00    +0.005 A 
ENDBRANCH  28  29
ENDBRANCH   5  28
ENDBRANCH   6   5
ENDBRANCH   9   8
BRANCH   9  10
ATOM     10  N   UNL     1      48.067  16.299  18.051  0.00  0.00    -0.712 N 
ATOM     11  H   UNL     1      48.485  15.682  18.671  0.00  0.00    +0.408 HD
ATOM     12  C   UNL     1      47.172  15.849  17.151  0.00  0.00    +0.563 C 
ATOM     19  O   UNL     1      46.648  16.623  16.374  0.00  0.00    -0.514 OA
BRANCH  12  13
ATOM     13  C   UNL     1      46.827  14.411  17.108  0.00  0.00    -0.134 A 
ATOM     14  C   UNL     1      45.963  13.869  18.060  0.00  0.00    +0.038 A 
ATOM     15  C   UNL     1      45.645  12.528  18.013  0.00  0.00    +0.002 A 
ATOM     16  C   UNL     1      46.180  11.720  17.026  0.00  0.00    +0.034 A 
ATOM     17  C   UNL     1      47.038  12.251  16.079  0.00  0.00    +0.002 A 
ATOM     18  C   UNL     1      47.360  13.592  16.110  0.00  0.00    +0.078 A 
ENDBRANCH  12  13
ENDBRANCH   9  10
BRANCH   9  20
ATOM     20  C   UNL     1      49.852  17.887  18.577  0.00  0.00    +0.081 C 
BRANCH  20  21
ATOM     21  C   UNL     1      50.542  18.940  17.751  0.00  0.00    -0.069 A 
ATOM     22  C   UNL     1      51.148  18.596  16.557  0.00  0.00    +0.004 A 
ATOM     23  C   UNL     1      51.781  19.563  15.799  0.00  0.00    +0.003 A 
ATOM     24  C   UNL     1      51.808  20.875  16.234  0.00  0.00    -0.001 A 
ATOM     25  C   UNL     1      51.202  21.219  17.427  0.00  0.00    +0.004 A 
ATOM     26  C   UNL     1      50.564  20.254  18.183  0.00  0.00    +0.010 A 
ENDBRANCH  20  21
ENDBRANCH   9  20
TORSDOF 11
ENDMDL
MODEL 2
REMARK VINA RESULT:      -6.6      0.595      1.322
REMARK  Name = ZINC13374323
REMARK  12 active torsions:
REMARK  status: ('A' for Active; 'I' for Inactive)
REMARK    1  A    between atoms: C1_1  and  C2_2
REMARK    2  A    between atoms: C2_2  and  O2_4
REMARK    3  A    between atoms: O2_4  and  C3_5
REMARK    4  A    between atoms: C3_5  and  C4_6
REMARK    5  A    between atoms: C4_6  and  C5_8
REMARK    6  A    between atoms: C4_6  and  N1_15
REMARK    7  A    between atoms: C5_8  and  C6_9
REMARK    8  A    between atoms: C12_16  and  C13_18
REMARK    9  A    between atoms: C13_18  and  C14_20
REMARK   10  A    between atoms: C13_18  and  N2_27
REMARK   11  A    between atoms: C14_20  and  C15_21
REMARK   12  A    between atoms: C21_28  and  C22_30
REMARK                            x       y       z     vdW  Elec       q    Type
REMARK                         _______ _______ _______ _____ _____    ______ ____
ROOT
ATOM      9  C   UNL     1      48.521  17.563  17.950  0.00  0.00    +0.255 C 
ENDROOT
BRANCH   9   8
ATOM      6  N   UNL     1      46.376  18.622  18.580  0.00  0.00    -0.712 N 
ATOM      7  H   UNL     1      46.101  18.543  17.654  0.00  0.00    +0.405 HD
ATOM      8  C   UNL     1      47.591  18.180  18.962  0.00  0.00    +0.516 C 
ATOM     27  O   UNL     1      47.936  18.278  20.121  0.00  0.00    -0.531 OA
BRANCH   6   5
ATOM      5  C   UNL     1      45.472  19.222  19.565  0.00  0.00    +0.273 C 
BRANCH   5   4
ATOM      4  C   UNL     1      44.329  18.250  19.865  0.00  0.00    +0.208 C 
BRANCH   4   3
ATOM      3  O   UNL     1      43.119  18.985  20.062  0.00  0.00    -0.350 OA
BRANCH   3   2
ATOM      1  C   UNL     1      40.915  19.044  21.174  0.00  0.00    +0.156 C 
ATOM      2  C   UNL     1      42.369  18.651  21.124  0.00  0.00    +0.458 C 
ATOM     35  O   UNL     1      42.861  18.037  22.041  0.00  0.00    -0.510 OA
ENDBRANCH   3   2
ENDBRANCH   4   3
ENDBRANCH   5   4
BRANCH   5  28
ATOM     28  C   UNL     1      44.900  20.526  19.004  0.00  0.00    +0.094 C 
BRANCH  28  29
ATOM     29  C   UNL     1      45.383  21.684  19.837  0.00  0.00    -0.085 A 
ATOM     30  C   UNL     1      44.782  22.924  19.713  0.00  0.00    +0.006 A 
ATOM     31  C   UNL     1      45.225  23.987  20.477  0.00  0.00    +0.006 A 
ATOM     32  C   UNL     1      46.270  23.811  21.365  0.00  0.00    +0.000 A 
ATOM     33  C   UNL     1      46.871  22.572  21.490  0.00  0.00    +0.007 A 
ATOM     34  C   UNL     1      46.424  21.508  20.729  0.00  0.00    +0.005 A 
ENDBRANCH  28  29
ENDBRANCH   5  28
ENDBRANCH   6   5
ENDBRANCH   9   8
BRANCH   9  10
ATOM     10  N   UNL     1      48.223  16.133  17.820  0.00  0.00    -0.712 N 
ATOM     11  H   UNL     1      48.734  15.484  18.327  0.00  0.00    +0.408 HD
ATOM     12  C   UNL     1      47.239  15.723  16.997  0.00  0.00    +0.563 C 
ATOM     19  O   UNL     1      46.599  16.537  16.361  0.00  0.00    -0.514 OA
BRANCH  12  13
ATOM     13  C   UNL     1      46.939  14.281  16.865  0.00  0.00    -0.134 A 
ATOM     14  C   UNL     1      47.538  13.530  15.854  0.00  0.00    +0.038 A 
ATOM     15  C   UNL     1      47.253  12.185  15.737  0.00  0.00    +0.002 A 
ATOM     16  C   UNL     1      46.376  11.581  16.620  0.00  0.00    +0.034 A 
ATOM     17  C   UNL     1      45.778  12.320  17.626  0.00  0.00    +0.002 A 
ATOM     18  C   UNL     1      46.058  13.665  17.757  0.00  0.00    +0.078 A 
ENDBRANCH  12  13
ENDBRANCH   9  10
BRANCH   9  20
ATOM     20  C   UNL     1      49.969  17.741  18.412  0.00  0.00    +0.081 C 
BRANCH  20  21
ATOM     21  C   UNL     1      50.599  18.882  17.657  0.00  0.00    -0.069 A 
ATOM     22  C   UNL     1      51.197  18.655  16.432  0.00  0.00    +0.004 A 
ATOM     23  C   UNL     1      51.775  19.702  15.740  0.00  0.00    +0.003 A 
ATOM     24  C   UNL     1      51.756  20.977  16.273  0.00  0.00    -0.001 A 
ATOM     25  C   UNL     1      51.159  21.205  17.498  0.00  0.00    +0.004 A 
ATOM     26  C   UNL     1      50.576  20.159  18.188  0.00  0.00    +0.010 A 
ENDBRANCH  20  21
ENDBRANCH   9  20
TORSDOF 11
ENDMDL
MODEL 3
REMARK VINA RESULT:      -6.5      2.116      6.828
REMARK  Name = ZINC13374323
REMARK  12 active torsions:
REMARK  status: ('A' for Active; 'I' for Inactive)
REMARK    1  A    between atoms: C1_1  and  C2_2
REMARK    2  A    between atoms: C2_2  and  O2_4
REMARK    3  A    between atoms: O2_4  and  C3_5
REMARK    4  A    between atoms: C3_5  and  C4_6
REMARK    5  A    between atoms: C4_6  and  C5_8
REMARK    6  A    between atoms: C4_6  and  N1_15
REMARK    7  A    between atoms: C5_8  and  C6_9
REMARK    8  A    between atoms: C12_16  and  C13_18
REMARK    9  A    between atoms: C13_18  and  C14_20
REMARK   10  A    between atoms: C13_18  and  N2_27
REMARK   11  A    between atoms: C14_20  and  C15_21
REMARK   12  A    between atoms: C21_28  and  C22_30
REMARK                            x       y       z     vdW  Elec       q    Type
REMARK                         _______ _______ _______ _____ _____    ______ ____
ROOT
ATOM      9  C   UNL     1      45.937  19.597  19.241  0.00  0.00    +0.255 C 
ENDROOT
BRANCH   9   8
ATOM      6  N   UNL     1      47.234  17.505  19.487  0.00  0.00    -0.712 N 
ATOM      7  H   UNL     1      47.381  17.743  20.416  0.00  0.00    +0.405 HD
ATOM      8  C   UNL     1      46.514  18.319  18.690  0.00  0.00    +0.516 C 
ATOM     27  O   UNL     1      46.329  18.022  17.528  0.00  0.00    -0.531 OA
BRANCH   6   5
ATOM      5  C   UNL     1      47.795  16.262  18.951  0.00  0.00    +0.273 C 
BRANCH   5   4
ATOM      4  C   UNL     1      46.938  15.079  19.405  0.00  0.00    +0.208 C 
BRANCH   4   3
ATOM      3  O   UNL     1      46.072  14.681  18.341  0.00  0.00    -0.350 OA
BRANCH   3   2
ATOM      1  C   UNL     1      45.753  12.465  17.300  0.00  0.00    +0.156 C 
ATOM      2  C   UNL     1      45.536  13.453  18.417  0.00  0.00    +0.458 C 
ATOM     35  O   UNL     1      44.879  13.140  19.382  0.00  0.00    -0.510 OA
ENDBRANCH   3   2
ENDBRANCH   4   3
ENDBRANCH   5   4
BRANCH   5  28
ATOM     28  C   UNL     1      49.225  16.085  19.465  0.00  0.00    +0.094 C 
BRANCH  28  29
ATOM     29  C   UNL     1      50.164  16.920  18.635  0.00  0.00    -0.085 A 
ATOM     30  C   UNL     1      49.775  17.362  17.383  0.00  0.00    +0.006 A 
ATOM     31  C   UNL     1      50.637  18.128  16.621  0.00  0.00    +0.006 A 
ATOM     32  C   UNL     1      51.889  18.453  17.111  0.00  0.00    +0.000 A 
ATOM     33  C   UNL     1      52.277  18.012  18.362  0.00  0.00    +0.007 A 
ATOM     34  C   UNL     1      51.413  17.250  19.126  0.00  0.00    +0.005 A 
ENDBRANCH  28  29
ENDBRANCH   5  28
ENDBRANCH   6   5
ENDBRANCH   9   8
BRANCH   9  10
ATOM     10  N   UNL     1      44.560  19.758  18.763  0.00  0.00    -0.712 N 
ATOM     11  H   UNL     1      44.279  19.326  17.942  0.00  0.00    +0.408 HD
ATOM     12  C   UNL     1      43.687  20.506  19.465  0.00  0.00    +0.563 C 
ATOM     19  O   UNL     1      44.040  21.047  20.494  0.00  0.00    -0.514 OA
BRANCH  12  13
ATOM     13  C   UNL     1      42.299  20.668  18.982  0.00  0.00    -0.134 A 
ATOM     14  C   UNL     1      41.703  21.929  18.975  0.00  0.00    +0.038 A 
ATOM     15  C   UNL     1      40.407  22.074  18.523  0.00  0.00    +0.002 A 
ATOM     16  C   UNL     1      39.699  20.972  18.078  0.00  0.00    +0.034 A 
ATOM     17  C   UNL     1      40.284  19.718  18.083  0.00  0.00    +0.002 A 
ATOM     18  C   UNL     1      41.581  19.560  18.527  0.00  0.00    +0.078 A 
ENDBRANCH  12  13
ENDBRANCH   9  10
BRANCH   9  20
ATOM     20  C   UNL     1      46.782  20.783  18.771  0.00  0.00    +0.081 C 
BRANCH  20  21
ATOM     21  C   UNL     1      48.090  20.795  19.517  0.00  0.00    -0.069 A 
ATOM     22  C   UNL     1      48.098  20.784  20.899  0.00  0.00    +0.004 A 
ATOM     23  C   UNL     1      49.299  20.795  21.583  0.00  0.00    +0.003 A 
ATOM     24  C   UNL     1      50.492  20.816  20.885  0.00  0.00    -0.001 A 
ATOM     25  C   UNL     1      50.484  20.827  19.504  0.00  0.00    +0.004 A 
ATOM     26  C   UNL     1      49.284  20.811  18.819  0.00  0.00    +0.010 A 
ENDBRANCH  20  21
ENDBRANCH   9  20
TORSDOF 11
ENDMDL
MODEL 4
REMARK VINA RESULT:      -6.3      2.096      7.350
REMARK  Name = ZINC13374323
REMARK  12 active torsions:
REMARK  status: ('A' for Active; 'I' for Inactive)
REMARK    1  A    between atoms: C1_1  and  C2_2
REMARK    2  A    between atoms: C2_2  and  O2_4
REMARK    3  A    between atoms: O2_4  and  C3_5
REMARK    4  A    between atoms: C3_5  and  C4_6
REMARK    5  A    between atoms: C4_6  and  C5_8
REMARK    6  A    between atoms: C4_6  and  N1_15
REMARK    7  A    between atoms: C5_8  and  C6_9
REMARK    8  A    between atoms: C12_16  and  C13_18
REMARK    9  A    between atoms: C13_18  and  C14_20
REMARK   10  A    between atoms: C13_18  and  N2_27
REMARK   11  A    between atoms: C14_20  and  C15_21
REMARK   12  A    between atoms: C21_28  and  C22_30
REMARK                            x       y       z     vdW  Elec       q    Type
REMARK                         _______ _______ _______ _____ _____    ______ ____
ROOT
ATOM      9  C   UNL     1      47.374  19.741  19.894  0.00  0.00    +0.255 C 
ENDROOT
BRANCH   9   8
ATOM      6  N   UNL     1      48.050  17.956  18.320  0.00  0.00    -0.712 N 
ATOM      7  H   UNL     1      47.885  18.577  17.594  0.00  0.00    +0.405 HD
ATOM      8  C   UNL     1      47.852  18.343  19.596  0.00  0.00    +0.516 C 
ATOM     27  O   UNL     1      48.058  17.566  20.505  0.00  0.00    -0.531 OA
BRANCH   6   5
ATOM      5  C   UNL     1      48.516  16.597  18.031  0.00  0.00    +0.273 C 
BRANCH   5   4
ATOM      4  C   UNL     1      49.963  16.648  17.537  0.00  0.00    +0.208 C 
BRANCH   4   3
ATOM      3  O   UNL     1      50.226  17.931  16.967  0.00  0.00    -0.350 OA
BRANCH   3   2
ATOM      1  C   UNL     1      51.822  19.425  15.819  0.00  0.00    +0.156 C 
ATOM      2  C   UNL     1      51.351  18.058  16.246  0.00  0.00    +0.458 C 
ATOM     35  O   UNL     1      51.986  17.077  15.939  0.00  0.00    -0.510 OA
ENDBRANCH   3   2
ENDBRANCH   4   3
ENDBRANCH   5   4
BRANCH   5  28
ATOM     28  C   UNL     1      47.629  15.974  16.950  0.00  0.00    +0.094 C 
BRANCH  28  29
ATOM     29  C   UNL     1      46.760  14.909  17.567  0.00  0.00    -0.085 A 
ATOM     30  C   UNL     1      46.602  13.691  16.931  0.00  0.00    +0.006 A 
ATOM     31  C   UNL     1      45.804  12.714  17.497  0.00  0.00    +0.006 A 
ATOM     32  C   UNL     1      45.165  12.955  18.699  0.00  0.00    +0.000 A 
ATOM     33  C   UNL     1      45.323  14.172  19.335  0.00  0.00    +0.007 A 
ATOM     34  C   UNL     1      46.125  15.147  18.771  0.00  0.00    +0.005 A 
ENDBRANCH  28  29
ENDBRANCH   5  28
ENDBRANCH   6   5
ENDBRANCH   9   8
BRANCH   9  10
ATOM     10  N   UNL     1      45.947  19.848  19.574  0.00  0.00    -0.712 N 
ATOM     11  H   UNL     1      45.665  19.966  18.654  0.00  0.00    +0.408 HD
ATOM     12  C   UNL     1      45.030  19.784  20.558  0.00  0.00    +0.563 C 
ATOM     19  O   UNL     1      45.385  19.637  21.711  0.00  0.00    -0.514 OA
BRANCH  12  13
ATOM     13  C   UNL     1      43.591  19.892  20.236  0.00  0.00    -0.134 A 
ATOM     14  C   UNL     1      43.154  20.811  19.282  0.00  0.00    +0.038 A 
ATOM     15  C   UNL     1      41.811  20.907  18.985  0.00  0.00    +0.002 A 
ATOM     16  C   UNL     1      40.896  20.095  19.632  0.00  0.00    +0.034 A 
ATOM     17  C   UNL     1      41.323  19.181  20.580  0.00  0.00    +0.002 A 
ATOM     18  C   UNL     1      42.664  19.071  20.882  0.00  0.00    +0.078 A 
ENDBRANCH  12  13
ENDBRANCH   9  10
BRANCH   9  20
ATOM     20  C   UNL     1      48.163  20.741  19.046  0.00  0.00    +0.081 C 
BRANCH  20  21
ATOM     21  C   UNL     1      49.555  20.884  19.603  0.00  0.00    -0.069 A 
ATOM     22  C   UNL     1      49.757  20.873  20.971  0.00  0.00    +0.004 A 
ATOM     23  C   UNL     1      51.035  21.003  21.482  0.00  0.00    +0.003 A 
ATOM     24  C   UNL     1      52.111  21.145  20.625  0.00  0.00    -0.001 A 
ATOM     25  C   UNL     1      51.909  21.156  19.258  0.00  0.00    +0.004 A 
ATOM     26  C   UNL     1      50.632  21.020  18.747  0.00  0.00    +0.010 A 
ENDBRANCH  20  21
ENDBRANCH   9  20
TORSDOF 11
ENDMDL
MODEL 5
REMARK VINA RESULT:      -6.3      1.193      5.226
REMARK  Name = ZINC13374323
REMARK  12 active torsions:
REMARK  status: ('A' for Active; 'I' for Inactive)
REMARK    1  A    between atoms: C1_1  and  C2_2
REMARK    2  A    between atoms: C2_2  and  O2_4
REMARK    3  A    between atoms: O2_4  and  C3_5
REMARK    4  A    between atoms: C3_5  and  C4_6
REMARK    5  A    between atoms: C4_6  and  C5_8
REMARK    6  A    between atoms: C4_6  and  N1_15
REMARK    7  A    between atoms: C5_8  and  C6_9
REMARK    8  A    between atoms: C12_16  and  C13_18
REMARK    9  A    between atoms: C13_18  and  C14_20
REMARK   10  A    between atoms: C13_18  and  N2_27
REMARK   11  A    between atoms: C14_20  and  C15_21
REMARK   12  A    between atoms: C21_28  and  C22_30
REMARK                            x       y       z     vdW  Elec       q    Type
REMARK                         _______ _______ _______ _____ _____    ______ ____
ROOT
ATOM      9  C   UNL     1      47.183  17.200  18.653  0.00  0.00    +0.255 C 
ENDROOT
BRANCH   9   8
ATOM      6  N   UNL     1      45.313  18.755  19.103  0.00  0.00    -0.712 N 
ATOM      7  H   UNL     1      45.049  18.658  18.175  0.00  0.00    +0.405 HD
ATOM      8  C   UNL     1      46.388  18.092  19.571  0.00  0.00    +0.516 C 
ATOM     27  O   UNL     1      46.718  18.214  20.733  0.00  0.00    -0.531 OA
BRANCH   6   5
ATOM      5  C   UNL     1      44.540  19.622  19.997  0.00  0.00    +0.273 C 
BRANCH   5   4
ATOM      4  C   UNL     1      43.167  18.997  20.253  0.00  0.00    +0.208 C 
BRANCH   4   3
ATOM      3  O   UNL     1      42.222  19.527  19.321  0.00  0.00    -0.350 OA
BRANCH   3   2
ATOM      1  C   UNL     1      40.250  20.997  19.103  0.00  0.00    +0.156 C 
ATOM      2  C   UNL     1      41.040  19.929  19.815  0.00  0.00    +0.458 C 
ATOM     35  O   UNL     1      40.609  19.434  20.830  0.00  0.00    -0.510 OA
ENDBRANCH   3   2
ENDBRANCH   4   3
ENDBRANCH   5   4
BRANCH   5  28
ATOM     28  C   UNL     1      44.363  20.996  19.346  0.00  0.00    +0.094 C 
BRANCH  28  29
ATOM     29  C   UNL     1      45.136  22.025  20.129  0.00  0.00    -0.085 A 
ATOM     30  C   UNL     1      46.151  21.628  20.981  0.00  0.00    +0.006 A 
ATOM     31  C   UNL     1      46.860  22.572  21.699  0.00  0.00    +0.006 A 
ATOM     32  C   UNL     1      46.554  23.914  21.566  0.00  0.00    +0.000 A 
ATOM     33  C   UNL     1      45.541  24.311  20.714  0.00  0.00    +0.007 A 
ATOM     34  C   UNL     1      44.835  23.366  19.992  0.00  0.00    +0.005 A 
ENDBRANCH  28  29
ENDBRANCH   5  28
ENDBRANCH   6   5
ENDBRANCH   9   8
BRANCH   9  10
ATOM     10  N   UNL     1      48.151  18.007  17.905  0.00  0.00    -0.712 N 
ATOM     11  H   UNL     1      47.878  18.463  17.094  0.00  0.00    +0.408 HD
ATOM     12  C   UNL     1      49.420  18.113  18.343  0.00  0.00    +0.563 C 
ATOM     19  O   UNL     1      49.762  17.540  19.359  0.00  0.00    -0.514 OA
BRANCH  12  13
ATOM     13  C   UNL     1      50.397  18.927  17.588  0.00  0.00    -0.134 A 
ATOM     14  C   UNL     1      50.715  20.216  18.017  0.00  0.00    +0.038 A 
ATOM     15  C   UNL     1      51.628  20.970  17.309  0.00  0.00    +0.002 A 
ATOM     16  C   UNL     1      52.227  20.450  16.175  0.00  0.00    +0.034 A 
ATOM     17  C   UNL     1      51.916  19.173  15.744  0.00  0.00    +0.002 A 
ATOM     18  C   UNL     1      51.009  18.406  16.446  0.00  0.00    +0.078 A 
ENDBRANCH  12  13
ENDBRANCH   9  10
BRANCH   9  20
ATOM     20  C   UNL     1      46.235  16.503  17.674  0.00  0.00    +0.081 C 
BRANCH  20  21
ATOM     21  C   UNL     1      46.403  15.011  17.788  0.00  0.00    -0.069 A 
ATOM     22  C   UNL     1      45.744  14.315  18.783  0.00  0.00    +0.004 A 
ATOM     23  C   UNL     1      45.898  12.945  18.887  0.00  0.00    +0.003 A 
ATOM     24  C   UNL     1      46.712  12.271  17.996  0.00  0.00    -0.001 A 
ATOM     25  C   UNL     1      47.371  12.967  17.000  0.00  0.00    +0.004 A 
ATOM     26  C   UNL     1      47.213  14.336  16.892  0.00  0.00    +0.010 A 
ENDBRANCH  20  21
ENDBRANCH   9  20
TORSDOF 11
ENDMDL
MODEL 6
REMARK VINA RESULT:      -6.3      2.175      7.235
REMARK  Name = ZINC13374323
REMARK  12 active torsions:
REMARK  status: ('A' for Active; 'I' for Inactive)
REMARK    1  A    between atoms: C1_1  and  C2_2
REMARK    2  A    between atoms: C2_2  and  O2_4
REMARK    3  A    between atoms: O2_4  and  C3_5
REMARK    4  A    between atoms: C3_5  and  C4_6
REMARK    5  A    between atoms: C4_6  and  C5_8
REMARK    6  A    between atoms: C4_6  and  N1_15
REMARK    7  A    between atoms: C5_8  and  C6_9
REMARK    8  A    between atoms: C12_16  and  C13_18
REMARK    9  A    between atoms: C13_18  and  C14_20
REMARK   10  A    between atoms: C13_18  and  N2_27
REMARK   11  A    between atoms: C14_20  and  C15_21
REMARK   12  A    between atoms: C21_28  and  C22_30
REMARK                            x       y       z     vdW  Elec       q    Type
REMARK                         _______ _______ _______ _____ _____    ______ ____
ROOT
ATOM      9  C   UNL     1      47.432  19.638  19.734  0.00  0.00    +0.255 C 
ENDROOT
BRANCH   9   8
ATOM      6  N   UNL     1      47.996  17.796  18.183  0.00  0.00    -0.712 N 
ATOM      7  H   UNL     1      47.814  18.402  17.448  0.00  0.00    +0.405 HD
ATOM      8  C   UNL     1      47.863  18.222  19.454  0.00  0.00    +0.516 C 
ATOM     27  O   UNL     1      48.090  17.464  20.375  0.00  0.00    -0.531 OA
BRANCH   6   5
ATOM      5  C   UNL     1      48.415  16.419  17.910  0.00  0.00    +0.273 C 
BRANCH   5   4
ATOM      4  C   UNL     1      49.813  16.425  17.290  0.00  0.00    +0.208 C 
BRANCH   4   3
ATOM      3  O   UNL     1      50.128  17.743  16.837  0.00  0.00    -0.350 OA
BRANCH   3   2
ATOM      1  C   UNL     1      52.218  17.767  18.152  0.00  0.00    +0.156 C 
ATOM      2  C   UNL     1      51.410  18.130  16.933  0.00  0.00    +0.458 C 
ATOM     35  O   UNL     1      51.915  18.771  16.042  0.00  0.00    -0.510 OA
ENDBRANCH   3   2
ENDBRANCH   4   3
ENDBRANCH   5   4
BRANCH   5  28
ATOM     28  C   UNL     1      47.428  15.768  16.939  0.00  0.00    +0.094 C 
BRANCH  28  29
ATOM     29  C   UNL     1      46.574  14.774  17.683  0.00  0.00    -0.085 A 
ATOM     30  C   UNL     1      45.967  15.136  18.872  0.00  0.00    +0.006 A 
ATOM     31  C   UNL     1      45.184  14.223  19.554  0.00  0.00    +0.006 A 
ATOM     32  C   UNL     1      45.009  12.949  19.048  0.00  0.00    +0.000 A 
ATOM     33  C   UNL     1      45.616  12.587  17.860  0.00  0.00    +0.007 A 
ATOM     34  C   UNL     1      46.395  13.501  17.176  0.00  0.00    +0.005 A 
ENDBRANCH  28  29
ENDBRANCH   5  28
ENDBRANCH   6   5
ENDBRANCH   9   8
BRANCH   9  10
ATOM     10  N   UNL     1      46.005  19.783  19.436  0.00  0.00    -0.712 N 
ATOM     11  H   UNL     1      45.717  19.997  18.535  0.00  0.00    +0.408 HD
ATOM     12  C   UNL     1      45.093  19.620  20.414  0.00  0.00    +0.563 C 
ATOM     19  O   UNL     1      45.453  19.353  21.543  0.00  0.00    -0.514 OA
BRANCH  12  13
ATOM     13  C   UNL     1      43.652  19.767  20.113  0.00  0.00    -0.134 A 
ATOM     14  C   UNL     1      42.707  19.051  20.847  0.00  0.00    +0.038 A 
ATOM     15  C   UNL     1      41.364  19.193  20.562  0.00  0.00    +0.002 A 
ATOM     16  C   UNL     1      40.955  20.042  19.549  0.00  0.00    +0.034 A 
ATOM     17  C   UNL     1      41.888  20.754  18.816  0.00  0.00    +0.002 A 
ATOM     18  C   UNL     1      43.233  20.626  19.095  0.00  0.00    +0.078 A 
ENDBRANCH  12  13
ENDBRANCH   9  10
BRANCH   9  20
ATOM     20  C   UNL     1      48.237  20.599  18.856  0.00  0.00    +0.081 C 
BRANCH  20  21
ATOM     21  C   UNL     1      49.595  20.821  19.468  0.00  0.00    -0.069 A 
ATOM     22  C   UNL     1      50.679  21.110  18.660  0.00  0.00    +0.004 A 
ATOM     23  C   UNL     1      51.925  21.314  19.222  0.00  0.00    +0.003 A 
ATOM     24  C   UNL     1      52.087  21.230  20.592  0.00  0.00    -0.001 A 
ATOM     25  C   UNL     1      51.004  20.943  21.400  0.00  0.00    +0.004 A 
ATOM     26  C   UNL     1      49.757  20.743  20.839  0.00  0.00    +0.010 A 
ENDBRANCH  20  21
ENDBRANCH   9  20
TORSDOF 11
ENDMDL
MODEL 7
REMARK VINA RESULT:      -6.2      2.004      2.770
REMARK  Name = ZINC13374323
REMARK  12 active torsions:
REMARK  status: ('A' for Active; 'I' for Inactive)
REMARK    1  A    between atoms: C1_1  and  C2_2
REMARK    2  A    between atoms: C2_2  and  O2_4
REMARK    3  A    between atoms: O2_4  and  C3_5
REMARK    4  A    between atoms: C3_5  and  C4_6
REMARK    5  A    between atoms: C4_6  and  C5_8
REMARK    6  A    between atoms: C4_6  and  N1_15
REMARK    7  A    between atoms: C5_8  and  C6_9
REMARK    8  A    between atoms: C12_16  and  C13_18
REMARK    9  A    between atoms: C13_18  and  C14_20
REMARK   10  A    between atoms: C13_18  and  N2_27
REMARK   11  A    between atoms: C14_20  and  C15_21
REMARK   12  A    between atoms: C21_28  and  C22_30
REMARK                            x       y       z     vdW  Elec       q    Type
REMARK                         _______ _______ _______ _____ _____    ______ ____
ROOT
ATOM      9  C   UNL     1      46.739  17.136  19.124  0.00  0.00    +0.255 C 
ENDROOT
BRANCH   9   8
ATOM      6  N   UNL     1      44.845  18.698  19.429  0.00  0.00    -0.712 N 
ATOM      7  H   UNL     1      45.391  19.390  19.024  0.00  0.00    +0.405 HD
ATOM      8  C   UNL     1      45.339  17.454  19.582  0.00  0.00    +0.516 C 
ATOM     27  O   UNL     1      44.656  16.588  20.088  0.00  0.00    -0.531 OA
BRANCH   6   5
ATOM      5  C   UNL     1      43.484  19.006  19.874  0.00  0.00    +0.273 C 
BRANCH   5   4
ATOM      4  C   UNL     1      42.829  19.969  18.882  0.00  0.00    +0.208 C 
BRANCH   4   3
ATOM      3  O   UNL     1      41.472  20.198  19.265  0.00  0.00    -0.350 OA
BRANCH   3   2
ATOM      1  C   UNL     1      39.461  21.441  18.553  0.00  0.00    +0.156 C 
ATOM      2  C   UNL     1      40.925  21.369  18.903  0.00  0.00    +0.458 C 
ATOM     35  O   UNL     1      41.607  22.366  18.858  0.00  0.00    -0.510 OA
ENDBRANCH   3   2
ENDBRANCH   4   3
ENDBRANCH   5   4
BRANCH   5  28
ATOM     28  C   UNL     1      43.534  19.656  21.259  0.00  0.00    +0.094 C 
BRANCH  28  29
ATOM     29  C   UNL     1      44.734  20.563  21.343  0.00  0.00    -0.085 A 
ATOM     30  C   UNL     1      44.736  21.772  20.671  0.00  0.00    +0.006 A 
ATOM     31  C   UNL     1      45.838  22.604  20.748  0.00  0.00    +0.006 A 
ATOM     32  C   UNL     1      46.937  22.227  21.497  0.00  0.00    +0.000 A 
ATOM     33  C   UNL     1      46.934  21.019  22.169  0.00  0.00    +0.007 A 
ATOM     34  C   UNL     1      45.831  20.190  22.095  0.00  0.00    +0.005 A 
ENDBRANCH  28  29
ENDBRANCH   5  28
ENDBRANCH   6   5
ENDBRANCH   9   8
BRANCH   9  10
ATOM     10  N   UNL     1      46.797  15.749  18.655  0.00  0.00    -0.712 N 
ATOM     11  H   UNL     1      46.903  15.026  19.292  0.00  0.00    +0.408 HD
ATOM     12  C   UNL     1      46.704  15.479  17.338  0.00  0.00    +0.563 C 
ATOM     19  O   UNL     1      46.572  16.386  16.540  0.00  0.00    -0.514 OA
BRANCH  12  13
ATOM     13  C   UNL     1      46.763  14.079  16.865  0.00  0.00    -0.134 A 
ATOM     14  C   UNL     1      47.701  13.704  15.903  0.00  0.00    +0.038 A 
ATOM     15  C   UNL     1      47.751  12.397  15.466  0.00  0.00    +0.002 A 
ATOM     16  C   UNL     1      46.874  11.458  15.979  0.00  0.00    +0.034 A 
ATOM     17  C   UNL     1      45.940  11.824  16.933  0.00  0.00    +0.002 A 
ATOM     18  C   UNL     1      45.883  13.127  17.383  0.00  0.00    +0.078 A 
ENDBRANCH  12  13
ENDBRANCH   9  10
BRANCH   9  20
ATOM     20  C   UNL     1      47.712  17.321  20.291  0.00  0.00    +0.081 C 
BRANCH  20  21
ATOM     21  C   UNL     1      48.542  18.556  20.062  0.00  0.00    -0.069 A 
ATOM     22  C   UNL     1      49.645  18.806  20.857  0.00  0.00    +0.004 A 
ATOM     23  C   UNL     1      50.406  19.940  20.647  0.00  0.00    +0.003 A 
ATOM     24  C   UNL     1      50.065  20.825  19.641  0.00  0.00    -0.001 A 
ATOM     25  C   UNL     1      48.963  20.576  18.846  0.00  0.00    +0.004 A 
ATOM     26  C   UNL     1      48.204  19.439  19.052  0.00  0.00    +0.010 A 
ENDBRANCH  20  21
ENDBRANCH   9  20
TORSDOF 11
ENDMDL
MODEL 8
REMARK VINA RESULT:      -6.2      1.846      5.558
REMARK  Name = ZINC13374323
REMARK  12 active torsions:
REMARK  status: ('A' for Active; 'I' for Inactive)
REMARK    1  A    between atoms: C1_1  and  C2_2
REMARK    2  A    between atoms: C2_2  and  O2_4
REMARK    3  A    between atoms: O2_4  and  C3_5
REMARK    4  A    between atoms: C3_5  and  C4_6
REMARK    5  A    between atoms: C4_6  and  C5_8
REMARK    6  A    between atoms: C4_6  and  N1_15
REMARK    7  A    between atoms: C5_8  and  C6_9
REMARK    8  A    between atoms: C12_16  and  C13_18
REMARK    9  A    between atoms: C13_18  and  C14_20
REMARK   10  A    between atoms: C13_18  and  N2_27
REMARK   11  A    between atoms: C14_20  and  C15_21
REMARK   12  A    between atoms: C21_28  and  C22_30
REMARK                            x       y       z     vdW  Elec       q    Type
REMARK                         _______ _______ _______ _____ _____    ______ ____
ROOT
ATOM      9  C   UNL     1      46.661  17.048  18.754  0.00  0.00    +0.255 C 
ENDROOT
BRANCH   9   8
ATOM      6  N   UNL     1      48.146  18.910  19.421  0.00  0.00    -0.712 N 
ATOM      7  H   UNL     1      47.440  19.523  19.164  0.00  0.00    +0.405 HD
ATOM      8  C   UNL     1      47.962  17.581  19.295  0.00  0.00    +0.516 C 
ATOM     27  O   UNL     1      48.845  16.813  19.617  0.00  0.00    -0.531 OA
BRANCH   6   5
ATOM      5  C   UNL     1      49.411  19.429  19.948  0.00  0.00    +0.273 C 
BRANCH   5   4
ATOM      4  C   UNL     1      49.247  19.763  21.432  0.00  0.00    +0.208 C 
BRANCH   4   3
ATOM      3  O   UNL     1      48.606  21.033  21.566  0.00  0.00    -0.350 OA
BRANCH   3   2
ATOM      1  C   UNL     1      46.494  22.300  21.398  0.00  0.00    +0.156 C 
ATOM      2  C   UNL     1      47.267  21.033  21.659  0.00  0.00    +0.458 C 
ATOM     35  O   UNL     1      46.682  20.017  21.952  0.00  0.00    -0.510 OA
ENDBRANCH   3   2
ENDBRANCH   4   3
ENDBRANCH   5   4
BRANCH   5  28
ATOM     28  C   UNL     1      49.803  20.693  19.180  0.00  0.00    +0.094 C 
BRANCH  28  29
ATOM     29  C   UNL     1      50.669  20.318  18.006  0.00  0.00    -0.085 A 
ATOM     30  C   UNL     1      51.042  19.000  17.813  0.00  0.00    +0.006 A 
ATOM     31  C   UNL     1      51.838  18.657  16.736  0.00  0.00    +0.006 A 
ATOM     32  C   UNL     1      52.261  19.632  15.852  0.00  0.00    +0.000 A 
ATOM     33  C   UNL     1      51.888  20.949  16.044  0.00  0.00    +0.007 A 
ATOM     34  C   UNL     1      51.089  21.291  17.119  0.00  0.00    +0.005 A 
ENDBRANCH  28  29
ENDBRANCH   5  28
ENDBRANCH   6   5
ENDBRANCH   9   8
BRANCH   9  10
ATOM     10  N   UNL     1      46.932  15.937  17.837  0.00  0.00    -0.712 N 
ATOM     11  H   UNL     1      47.553  16.056  17.102  0.00  0.00    +0.408 HD
ATOM     12  C   UNL     1      46.317  14.752  18.015  0.00  0.00    +0.563 C 
ATOM     19  O   UNL     1      45.538  14.603  18.936  0.00  0.00    -0.514 OA
BRANCH  12  13
ATOM     13  C   UNL     1      46.590  13.631  17.090  0.00  0.00    -0.134 A 
ATOM     14  C   UNL     1      47.592  13.746  16.126  0.00  0.00    +0.038 A 
ATOM     15  C   UNL     1      47.842  12.697  15.266  0.00  0.00    +0.002 A 
ATOM     16  C   UNL     1      47.102  11.532  15.357  0.00  0.00    +0.034 A 
ATOM     17  C   UNL     1      46.105  11.411  16.311  0.00  0.00    +0.002 A 
ATOM     18  C   UNL     1      45.849  12.451  17.180  0.00  0.00    +0.078 A 
ENDBRANCH  12  13
ENDBRANCH   9  10
BRANCH   9  20
ATOM     20  C   UNL     1      45.926  18.161  18.004  0.00  0.00    +0.081 C 
BRANCH  20  21
ATOM     21  C   UNL     1      44.904  18.789  18.913  0.00  0.00    -0.069 A 
ATOM     22  C   UNL     1      44.566  20.121  18.760  0.00  0.00    +0.004 A 
ATOM     23  C   UNL     1      43.627  20.697  19.594  0.00  0.00    +0.003 A 
ATOM     24  C   UNL     1      43.025  19.941  20.583  0.00  0.00    -0.001 A 
ATOM     25  C   UNL     1      43.362  18.610  20.737  0.00  0.00    +0.004 A 
ATOM     26  C   UNL     1      44.297  18.032  19.899  0.00  0.00    +0.010 A 
ENDBRANCH  20  21
ENDBRANCH   9  20
TORSDOF 11
ENDMDL
MODEL 9
REMARK VINA RESULT:      -6.2      1.572      6.159
REMARK  Name = ZINC13374323
REMARK  12 active torsions:
REMARK  status: ('A' for Active; 'I' for Inactive)
REMARK    1  A    between atoms: C1_1  and  C2_2
REMARK    2  A    between atoms: C2_2  and  O2_4
REMARK    3  A    between atoms: O2_4  and  C3_5
REMARK    4  A    between atoms: C3_5  and  C4_6
REMARK    5  A    between atoms: C4_6  and  C5_8
REMARK    6  A    between atoms: C4_6  and  N1_15
REMARK    7  A    between atoms: C5_8  and  C6_9
REMARK    8  A    between atoms: C12_16  and  C13_18
REMARK    9  A    between atoms: C13_18  and  C14_20
REMARK   10  A    between atoms: C13_18  and  N2_27
REMARK   11  A    between atoms: C14_20  and  C15_21
REMARK   12  A    between atoms: C21_28  and  C22_30
REMARK                            x       y       z     vdW  Elec       q    Type
REMARK                         _______ _______ _______ _____ _____    ______ ____
ROOT
ATOM      9  C   UNL     1      47.265  16.955  17.927  0.00  0.00    +0.255 C 
ENDROOT
BRANCH   9   8
ATOM      6  N   UNL     1      46.212  17.907  19.953  0.00  0.00    -0.712 N 
ATOM      7  H   UNL     1      46.791  17.338  20.483  0.00  0.00    +0.405 HD
ATOM      8  C   UNL     1      46.284  17.875  18.608  0.00  0.00    +0.516 C 
ATOM     27  O   UNL     1      45.560  18.587  17.944  0.00  0.00    -0.531 OA
BRANCH   6   5
ATOM      5  C   UNL     1      45.259  18.802  20.615  0.00  0.00    +0.273 C 
BRANCH   5   4
ATOM      4  C   UNL     1      45.874  19.332  21.912  0.00  0.00    +0.208 C 
BRANCH   4   3
ATOM      3  O   UNL     1      45.301  20.603  22.226  0.00  0.00    -0.350 OA
BRANCH   3   2
ATOM      1  C   UNL     1      44.602  22.522  20.838  0.00  0.00    +0.156 C 
ATOM      2  C   UNL     1      45.659  21.641  21.453  0.00  0.00    +0.458 C 
ATOM     35  O   UNL     1      46.828  21.868  21.251  0.00  0.00    -0.510 OA
ENDBRANCH   3   2
ENDBRANCH   4   3
ENDBRANCH   5   4
BRANCH   5  28
ATOM     28  C   UNL     1      43.976  18.033  20.935  0.00  0.00    +0.094 C 
BRANCH  28  29
ATOM     29  C   UNL     1      42.783  18.848  20.508  0.00  0.00    -0.085 A 
ATOM     30  C   UNL     1      41.600  18.769  21.219  0.00  0.00    +0.006 A 
ATOM     31  C   UNL     1      40.505  19.516  20.826  0.00  0.00    +0.006 A 
ATOM     32  C   UNL     1      40.594  20.342  19.721  0.00  0.00    +0.000 A 
ATOM     33  C   UNL     1      41.776  20.422  19.010  0.00  0.00    +0.007 A 
ATOM     34  C   UNL     1      42.872  19.678  19.406  0.00  0.00    +0.005 A 
ENDBRANCH  28  29
ENDBRANCH   5  28
ENDBRANCH   6   5
ENDBRANCH   9   8
BRANCH   9  10
ATOM     10  N   UNL     1      48.332  17.748  17.310  0.00  0.00    -0.712 N 
ATOM     11  H   UNL     1      48.311  17.931  16.357  0.00  0.00    +0.408 HD
ATOM     12  C   UNL     1      49.341  18.223  18.065  0.00  0.00    +0.563 C 
ATOM     19  O   UNL     1      49.367  17.994  19.258  0.00  0.00    -0.514 OA
BRANCH  12  13
ATOM     13  C   UNL     1      50.417  19.023  17.442  0.00  0.00    -0.134 A 
ATOM     14  C   UNL     1      51.081  18.545  16.312  0.00  0.00    +0.038 A 
ATOM     15  C   UNL     1      52.084  19.296  15.736  0.00  0.00    +0.002 A 
ATOM     16  C   UNL     1      52.432  20.522  16.276  0.00  0.00    +0.034 A 
ATOM     17  C   UNL     1      51.779  21.001  17.398  0.00  0.00    +0.002 A 
ATOM     18  C   UNL     1      50.770  20.263  17.980  0.00  0.00    +0.078 A 
ENDBRANCH  12  13
ENDBRANCH   9  10
BRANCH   9  20
ATOM     20  C   UNL     1      46.541  16.147  16.848  0.00  0.00    +0.081 C 
BRANCH  20  21
ATOM     21  C   UNL     1      46.597  14.683  17.194  0.00  0.00    -0.069 A 
ATOM     22  C   UNL     1      46.058  14.232  18.385  0.00  0.00    +0.004 A 
ATOM     23  C   UNL     1      46.110  12.888  18.702  0.00  0.00    +0.003 A 
ATOM     24  C   UNL     1      46.701  11.993  17.829  0.00  0.00    -0.001 A 
ATOM     25  C   UNL     1      47.240  12.443  16.639  0.00  0.00    +0.004 A 
ATOM     26  C   UNL     1      47.183  13.787  16.319  0.00  0.00    +0.010 A 
ENDBRANCH  20  21
ENDBRANCH   9  20
TORSDOF 11
ENDMDL
