MODEL 1
REMARK VINA RESULT:      -6.5      0.000      0.000
REMARK  Name = ZINC15120587
REMARK  8 active torsions:
REMARK  status: ('A' for Active; 'I' for Inactive)
REMARK    1  A    between atoms: C1_1  and  C2_2
REMARK    2  A    between atoms: C2_2  and  C18_20
REMARK    3  A    between atoms: C3_3  and  C4_4
REMARK    4  A    between atoms: C4_4  and  C5_5
REMARK    5  A    between atoms: C5_5  and  C6_6
REMARK    6  A    between atoms: C6_6  and  C17_19
REMARK    7  A    between atoms: C7_7  and  C8_8
REMARK    8  A    between atoms: C8_8  and  C9_9
REMARK                            x       y       z     vdW  Elec       q    Type
REMARK                         _______ _______ _______ _____ _____    ______ ____
ROOT
ATOM     10  C   UNL     1      45.819  21.620  20.710  0.00  0.00    +0.134 C 
ENDROOT
BRANCH  10  11
ATOM     11  C   UNL     1      44.568  22.149  20.058  0.00  0.00    -0.160 A 
ATOM     12  C   UNL     1      44.351  23.410  19.653  0.00  0.00    +0.220 A 
ATOM     13  N   UNL     1      43.101  23.517  19.105  0.00  0.00    -0.596 N 
ATOM     14  C   UNL     1      42.465  22.296  19.152  0.00  0.00    +0.095 A 
ATOM     15  C   UNL     1      41.211  21.854  18.745  0.00  0.00    -0.013 A 
ATOM     16  C   UNL     1      40.856  20.536  18.932  0.00  0.00    +0.026 A 
ATOM     17  C   UNL     1      41.738  19.642  19.523  0.00  0.00    -0.025 A 
ATOM     18  C   UNL     1      42.976  20.055  19.931  0.00  0.00    +0.050 A 
ATOM     19  H   UNL     1      42.719  24.330  18.741  0.00  0.00    +0.415 HD
ATOM     20  C   UNL     1      43.356  21.386  19.751  0.00  0.00    -0.102 A 
ENDBRANCH  10  11
BRANCH  10   9
ATOM      7  C   UNL     1      47.957  20.733  19.932  0.00  0.00    -0.134 C 
ATOM      8  C   UNL     1      48.492  20.961  21.323  0.00  0.00    +0.071 C 
ATOM      9  C   UNL     1      46.699  20.982  19.665  0.00  0.00    -0.042 C 
BRANCH   7   6
ATOM      6  C   UNL     1      48.870  20.219  18.849  0.00  0.00    +0.056 C 
BRANCH   6   5
ATOM      5  C   UNL     1      50.215  20.944  18.928  0.00  0.00    +0.055 C 
BRANCH   5   4
ATOM      1  C   UNL     1      52.368  19.251  18.258  0.00  0.00    +0.071 C 
ATOM      2  C   UNL     1      51.788  20.181  17.225  0.00  0.00    -0.133 C 
ATOM      3  C   UNL     1      52.309  20.155  15.810  0.00  0.00    +0.071 C 
ATOM      4  C   UNL     1      50.831  21.012  17.555  0.00  0.00    -0.061 C 
ENDBRANCH   5   4
ENDBRANCH   6   5
ENDBRANCH   7   6
ENDBRANCH  10   9
TORSDOF 5
ENDMDL
MODEL 2
REMARK VINA RESULT:      -6.4      2.110      2.933
REMARK  Name = ZINC15120587
REMARK  8 active torsions:
REMARK  status: ('A' for Active; 'I' for Inactive)
REMARK    1  A    between atoms: C1_1  and  C2_2
REMARK    2  A    between atoms: C2_2  and  C18_20
REMARK    3  A    between atoms: C3_3  and  C4_4
REMARK    4  A    between atoms: C4_4  and  C5_5
REMARK    5  A    between atoms: C5_5  and  C6_6
REMARK    6  A    between atoms: C6_6  and  C17_19
REMARK    7  A    between atoms: C7_7  and  C8_8
REMARK    8  A    between atoms: C8_8  and  C9_9
REMARK                            x       y       z     vdW  Elec       q    Type
REMARK                         _______ _______ _______ _____ _____    ______ ____
ROOT
ATOM     10  C   UNL     1      45.476  19.716  18.211  0.00  0.00    +0.134 C 
ENDROOT
BRANCH  10  11
ATOM     11  C   UNL     1      44.300  19.645  19.151  0.00  0.00    -0.160 A 
ATOM     12  C   UNL     1      43.279  20.514  19.218  0.00  0.00    +0.220 A 
ATOM     13  N   UNL     1      42.397  20.125  20.190  0.00  0.00    -0.596 N 
ATOM     14  C   UNL     1      42.845  18.970  20.791  0.00  0.00    +0.095 A 
ATOM     15  C   UNL     1      42.349  18.168  21.814  0.00  0.00    -0.013 A 
ATOM     16  C   UNL     1      43.045  17.045  22.202  0.00  0.00    +0.026 A 
ATOM     17  C   UNL     1      44.239  16.703  21.583  0.00  0.00    -0.025 A 
ATOM     18  C   UNL     1      44.746  17.477  20.577  0.00  0.00    +0.050 A 
ATOM     19  H   UNL     1      41.581  20.594  20.422  0.00  0.00    +0.415 HD
ATOM     20  C   UNL     1      44.056  18.619  20.167  0.00  0.00    -0.102 A 
ENDBRANCH  10  11
BRANCH  10   9
ATOM      7  C   UNL     1      47.707  20.033  19.152  0.00  0.00    -0.134 C 
ATOM      8  C   UNL     1      47.997  18.597  18.798  0.00  0.00    +0.071 C 
ATOM      9  C   UNL     1      46.557  20.570  18.823  0.00  0.00    -0.042 C 
BRANCH   7   6
ATOM      6  C   UNL     1      48.739  20.853  19.883  0.00  0.00    +0.056 C 
BRANCH   6   5
ATOM      5  C   UNL     1      50.140  20.375  19.492  0.00  0.00    +0.055 C 
BRANCH   5   4
ATOM      1  C   UNL     1      51.747  19.084  17.568  0.00  0.00    +0.071 C 
ATOM      2  C   UNL     1      51.296  20.504  17.346  0.00  0.00    -0.133 C 
ATOM      3  C   UNL     1      51.641  21.213  16.061  0.00  0.00    +0.071 C 
ATOM      4  C   UNL     1      50.603  21.123  18.270  0.00  0.00    -0.061 C 
ENDBRANCH   5   4
ENDBRANCH   6   5
ENDBRANCH   7   6
ENDBRANCH  10   9
TORSDOF 5
ENDMDL
MODEL 3
REMARK VINA RESULT:      -6.1      2.068      2.688
REMARK  Name = ZINC15120587
REMARK  8 active torsions:
REMARK  status: ('A' for Active; 'I' for Inactive)
REMARK    1  A    between atoms: C1_1  and  C2_2
REMARK    2  A    between atoms: C2_2  and  C18_20
REMARK    3  A    between atoms: C3_3  and  C4_4
REMARK    4  A    between atoms: C4_4  and  C5_5
REMARK    5  A    between atoms: C5_5  and  C6_6
REMARK    6  A    between atoms: C6_6  and  C17_19
REMARK    7  A    between atoms: C7_7  and  C8_8
REMARK    8  A    between atoms: C8_8  and  C9_9
REMARK                            x       y       z     vdW  Elec       q    Type
REMARK                         _______ _______ _______ _____ _____    ______ ____
ROOT
ATOM     10  C   UNL     1      45.737  19.457  18.336  0.00  0.00    +0.134 C 
ENDROOT
BRANCH  10  11
ATOM     11  C   UNL     1      44.718  19.041  19.364  0.00  0.00    -0.160 A 
ATOM     12  C   UNL     1      44.912  18.185  20.380  0.00  0.00    +0.220 A 
ATOM     13  N   UNL     1      43.761  18.053  21.108  0.00  0.00    -0.596 N 
ATOM     14  C   UNL     1      42.770  18.837  20.560  0.00  0.00    +0.095 A 
ATOM     15  C   UNL     1      41.439  19.070  20.892  0.00  0.00    -0.013 A 
ATOM     16  C   UNL     1      40.684  19.933  20.129  0.00  0.00    +0.026 A 
ATOM     17  C   UNL     1      41.237  20.575  19.029  0.00  0.00    -0.025 A 
ATOM     18  C   UNL     1      42.542  20.360  18.684  0.00  0.00    +0.050 A 
ATOM     19  H   UNL     1      43.657  17.490  21.890  0.00  0.00    +0.415 HD
ATOM     20  C   UNL     1      43.326  19.490  19.444  0.00  0.00    -0.102 A 
ENDBRANCH  10  11
BRANCH  10   9
ATOM      7  C   UNL     1      47.939  19.927  19.280  0.00  0.00    -0.134 C 
ATOM      8  C   UNL     1      48.346  18.533  18.878  0.00  0.00    +0.071 C 
ATOM      9  C   UNL     1      46.747  20.377  18.973  0.00  0.00    -0.042 C 
BRANCH   7   6
ATOM      6  C   UNL     1      48.903  20.806  20.035  0.00  0.00    +0.056 C 
BRANCH   6   5
ATOM      5  C   UNL     1      50.332  20.508  19.574  0.00  0.00    +0.055 C 
BRANCH   5   4
ATOM      1  C   UNL     1      52.323  19.519  17.839  0.00  0.00    +0.071 C 
ATOM      2  C   UNL     1      51.464  20.683  17.419  0.00  0.00    -0.133 C 
ATOM      3  C   UNL     1      51.618  21.274  16.041  0.00  0.00    +0.071 C 
ATOM      4  C   UNL     1      50.584  21.181  18.251  0.00  0.00    -0.061 C 
ENDBRANCH   5   4
ENDBRANCH   6   5
ENDBRANCH   7   6
ENDBRANCH  10   9
TORSDOF 5
ENDMDL
MODEL 4
REMARK VINA RESULT:      -5.9      2.658      7.798
REMARK  Name = ZINC15120587
REMARK  8 active torsions:
REMARK  status: ('A' for Active; 'I' for Inactive)
REMARK    1  A    between atoms: C1_1  and  C2_2
REMARK    2  A    between atoms: C2_2  and  C18_20
REMARK    3  A    between atoms: C3_3  and  C4_4
REMARK    4  A    between atoms: C4_4  and  C5_5
REMARK    5  A    between atoms: C5_5  and  C6_6
REMARK    6  A    between atoms: C6_6  and  C17_19
REMARK    7  A    between atoms: C7_7  and  C8_8
REMARK    8  A    between atoms: C8_8  and  C9_9
REMARK                            x       y       z     vdW  Elec       q    Type
REMARK                         _______ _______ _______ _____ _____    ______ ____
ROOT
ATOM     10  C   UNL     1      48.609  20.519  19.883  0.00  0.00    +0.134 C 
ENDROOT
BRANCH  10  11
ATOM     11  C   UNL     1      49.356  19.541  19.013  0.00  0.00    -0.160 A 
ATOM     12  C   UNL     1      49.248  18.204  19.043  0.00  0.00    +0.220 A 
ATOM     13  N   UNL     1      50.077  17.647  18.108  0.00  0.00    -0.596 N 
ATOM     14  C   UNL     1      50.761  18.639  17.440  0.00  0.00    +0.095 A 
ATOM     15  C   UNL     1      51.708  18.630  16.422  0.00  0.00    -0.013 A 
ATOM     16  C   UNL     1      52.220  19.820  15.953  0.00  0.00    +0.026 A 
ATOM     17  C   UNL     1      51.800  21.030  16.487  0.00  0.00    -0.025 A 
ATOM     18  C   UNL     1      50.872  21.062  17.489  0.00  0.00    +0.050 A 
ATOM     19  H   UNL     1      50.172  16.696  17.941  0.00  0.00    +0.415 HD
ATOM     20  C   UNL     1      50.340  19.868  17.979  0.00  0.00    -0.102 A 
ENDBRANCH  10  11
BRANCH  10   9
ATOM      7  C   UNL     1      46.254  21.160  19.939  0.00  0.00    -0.134 C 
ATOM      8  C   UNL     1      46.363  21.210  21.441  0.00  0.00    +0.071 C 
ATOM      9  C   UNL     1      47.314  20.900  19.213  0.00  0.00    -0.042 C 
BRANCH   7   6
ATOM      6  C   UNL     1      44.927  21.412  19.270  0.00  0.00    +0.056 C 
BRANCH   6   5
ATOM      5  C   UNL     1      44.328  20.080  18.809  0.00  0.00    +0.055 C 
BRANCH   5   4
ATOM      1  C   UNL     1      44.889  17.643  20.111  0.00  0.00    +0.071 C 
ATOM      2  C   UNL     1      43.688  18.457  20.515  0.00  0.00    -0.133 C 
ATOM      3  C   UNL     1      42.825  18.007  21.667  0.00  0.00    +0.071 C 
ATOM      4  C   UNL     1      43.393  19.556  19.867  0.00  0.00    -0.061 C 
ENDBRANCH   5   4
ENDBRANCH   6   5
ENDBRANCH   7   6
ENDBRANCH  10   9
TORSDOF 5
ENDMDL
MODEL 5
REMARK VINA RESULT:      -5.8      4.502      5.609
REMARK  Name = ZINC15120587
REMARK  8 active torsions:
REMARK  status: ('A' for Active; 'I' for Inactive)
REMARK    1  A    between atoms: C1_1  and  C2_2
REMARK    2  A    between atoms: C2_2  and  C18_20
REMARK    3  A    between atoms: C3_3  and  C4_4
REMARK    4  A    between atoms: C4_4  and  C5_5
REMARK    5  A    between atoms: C5_5  and  C6_6
REMARK    6  A    between atoms: C6_6  and  C17_19
REMARK    7  A    between atoms: C7_7  and  C8_8
REMARK    8  A    between atoms: C8_8  and  C9_9
REMARK                            x       y       z     vdW  Elec       q    Type
REMARK                         _______ _______ _______ _____ _____    ______ ____
ROOT
ATOM     10  C   UNL     1      46.751  18.163  17.803  0.00  0.00    +0.134 C 
ENDROOT
BRANCH  10  11
ATOM     11  C   UNL     1      46.143  16.965  18.485  0.00  0.00    -0.160 A 
ATOM     12  C   UNL     1      45.374  16.979  19.586  0.00  0.00    +0.220 A 
ATOM     13  N   UNL     1      45.003  15.703  19.913  0.00  0.00    -0.596 N 
ATOM     14  C   UNL     1      45.544  14.813  19.011  0.00  0.00    +0.095 A 
ATOM     15  C   UNL     1      45.489  13.430  18.880  0.00  0.00    -0.013 A 
ATOM     16  C   UNL     1      46.154  12.814  17.843  0.00  0.00    +0.026 A 
ATOM     17  C   UNL     1      46.880  13.559  16.924  0.00  0.00    -0.025 A 
ATOM     18  C   UNL     1      46.948  14.920  17.034  0.00  0.00    +0.050 A 
ATOM     19  H   UNL     1      44.446  15.460  20.668  0.00  0.00    +0.415 HD
ATOM     20  C   UNL     1      46.282  15.565  18.078  0.00  0.00    -0.102 A 
ENDBRANCH  10  11
BRANCH  10   9
ATOM      7  C   UNL     1      47.523  20.093  19.084  0.00  0.00    -0.134 C 
ATOM      8  C   UNL     1      46.274  20.812  18.643  0.00  0.00    +0.071 C 
ATOM      9  C   UNL     1      47.714  18.842  18.743  0.00  0.00    -0.042 C 
BRANCH   7   6
ATOM      6  C   UNL     1      48.553  20.812  19.916  0.00  0.00    +0.056 C 
BRANCH   6   5
ATOM      5  C   UNL     1      49.948  20.288  19.567  0.00  0.00    +0.055 C 
BRANCH   5   4
ATOM      1  C   UNL     1      51.399  18.988  17.529  0.00  0.00    +0.071 C 
ATOM      2  C   UNL     1      51.127  20.466  17.437  0.00  0.00    -0.133 C 
ATOM      3  C   UNL     1      51.565  21.240  16.219  0.00  0.00    +0.071 C 
ATOM      4  C   UNL     1      50.508  21.080  18.415  0.00  0.00    -0.061 C 
ENDBRANCH   5   4
ENDBRANCH   6   5
ENDBRANCH   7   6
ENDBRANCH  10   9
TORSDOF 5
ENDMDL
MODEL 6
REMARK VINA RESULT:      -5.6      2.156      3.543
REMARK  Name = ZINC15120587
REMARK  8 active torsions:
REMARK  status: ('A' for Active; 'I' for Inactive)
REMARK    1  A    between atoms: C1_1  and  C2_2
REMARK    2  A    between atoms: C2_2  and  C18_20
REMARK    3  A    between atoms: C3_3  and  C4_4
REMARK    4  A    between atoms: C4_4  and  C5_5
REMARK    5  A    between atoms: C5_5  and  C6_6
REMARK    6  A    between atoms: C6_6  and  C17_19
REMARK    7  A    between atoms: C7_7  and  C8_8
REMARK    8  A    between atoms: C8_8  and  C9_9
REMARK                            x       y       z     vdW  Elec       q    Type
REMARK                         _______ _______ _______ _____ _____    ______ ____
ROOT
ATOM     10  C   UNL     1      47.976  19.314  19.580  0.00  0.00    +0.134 C 
ENDROOT
BRANCH  10  11
ATOM     11  C   UNL     1      46.717  20.122  19.403  0.00  0.00    -0.160 A 
ATOM     12  C   UNL     1      45.705  19.848  18.564  0.00  0.00    +0.220 A 
ATOM     13  N   UNL     1      44.731  20.802  18.679  0.00  0.00    -0.596 N 
ATOM     14  C   UNL     1      45.105  21.740  19.615  0.00  0.00    +0.095 A 
ATOM     15  C   UNL     1      44.504  22.894  20.107  0.00  0.00    -0.013 A 
ATOM     16  C   UNL     1      45.146  23.644  21.068  0.00  0.00    +0.026 A 
ATOM     17  C   UNL     1      46.388  23.260  21.552  0.00  0.00    -0.025 A 
ATOM     18  C   UNL     1      46.997  22.130  21.083  0.00  0.00    +0.050 A 
ATOM     19  H   UNL     1      43.902  20.816  18.175  0.00  0.00    +0.415 HD
ATOM     20  C   UNL     1      46.365  21.356  20.109  0.00  0.00    -0.102 A 
ENDBRANCH  10  11
BRANCH  10   9
ATOM      7  C   UNL     1      50.087  20.501  19.263  0.00  0.00    -0.134 C 
ATOM      8  C   UNL     1      50.237  20.516  20.762  0.00  0.00    +0.071 C 
ATOM      9  C   UNL     1      49.067  19.888  18.713  0.00  0.00    -0.042 C 
BRANCH   7   6
ATOM      6  C   UNL     1      51.109  21.189  18.396  0.00  0.00    +0.056 C 
BRANCH   6   5
ATOM      5  C   UNL     1      51.812  20.153  17.515  0.00  0.00    +0.055 C 
BRANCH   5   4
ATOM      1  C   UNL     1      51.293  17.387  17.338  0.00  0.00    +0.071 C 
ATOM      2  C   UNL     1      52.373  17.896  18.257  0.00  0.00    -0.133 C 
ATOM      3  C   UNL     1      53.228  16.922  19.027  0.00  0.00    +0.071 C 
ATOM      4  C   UNL     1      52.569  19.184  18.385  0.00  0.00    -0.061 C 
ENDBRANCH   5   4
ENDBRANCH   6   5
ENDBRANCH   7   6
ENDBRANCH  10   9
TORSDOF 5
ENDMDL
MODEL 7
REMARK VINA RESULT:      -5.5     19.064     20.977
REMARK  Name = ZINC15120587
REMARK  8 active torsions:
REMARK  status: ('A' for Active; 'I' for Inactive)
REMARK    1  A    between atoms: C1_1  and  C2_2
REMARK    2  A    between atoms: C2_2  and  C18_20
REMARK    3  A    between atoms: C3_3  and  C4_4
REMARK    4  A    between atoms: C4_4  and  C5_5
REMARK    5  A    between atoms: C5_5  and  C6_6
REMARK    6  A    between atoms: C6_6  and  C17_19
REMARK    7  A    between atoms: C7_7  and  C8_8
REMARK    8  A    between atoms: C8_8  and  C9_9
REMARK                            x       y       z     vdW  Elec       q    Type
REMARK                         _______ _______ _______ _____ _____    ______ ____
ROOT
ATOM     10  C   UNL     1      54.147  34.828   6.545  0.00  0.00    +0.134 C 
ENDROOT
BRANCH  10  11
ATOM     11  C   UNL     1      52.817  34.253   6.131  0.00  0.00    -0.160 A 
ATOM     12  C   UNL     1      51.747  34.070   6.920  0.00  0.00    +0.220 A 
ATOM     13  N   UNL     1      50.719  33.529   6.197  0.00  0.00    -0.596 N 
ATOM     14  C   UNL     1      51.117  33.339   4.891  0.00  0.00    +0.095 A 
ATOM     15  C   UNL     1      50.484  32.830   3.762  0.00  0.00    -0.013 A 
ATOM     16  C   UNL     1      51.164  32.768   2.566  0.00  0.00    +0.026 A 
ATOM     17  C   UNL     1      52.477  33.209   2.474  0.00  0.00    -0.025 A 
ATOM     18  C   UNL     1      53.118  33.712   3.571  0.00  0.00    +0.050 A 
ATOM     19  H   UNL     1      49.843  33.308   6.550  0.00  0.00    +0.415 HD
ATOM     20  C   UNL     1      52.448  33.784   4.794  0.00  0.00    -0.102 A 
ENDBRANCH  10  11
BRANCH  10   9
ATOM      7  C   UNL     1      56.249  34.014   5.606  0.00  0.00    -0.134 C 
ATOM      8  C   UNL     1      56.429  35.374   4.982  0.00  0.00    +0.071 C 
ATOM      9  C   UNL     1      55.219  33.781   6.383  0.00  0.00    -0.042 C 
BRANCH   7   6
ATOM      6  C   UNL     1      57.252  32.922   5.339  0.00  0.00    +0.056 C 
BRANCH   6   5
ATOM      5  C   UNL     1      57.671  32.964   3.867  0.00  0.00    +0.055 C 
BRANCH   5   4
ATOM      1  C   UNL     1      56.472  33.989   1.530  0.00  0.00    +0.071 C 
ATOM      2  C   UNL     1      56.235  32.557   1.936  0.00  0.00    -0.133 C 
ATOM      3  C   UNL     1      55.416  31.650   1.054  0.00  0.00    +0.071 C 
ATOM      4  C   UNL     1      56.740  32.102   3.055  0.00  0.00    -0.061 C 
ENDBRANCH   5   4
ENDBRANCH   6   5
ENDBRANCH   7   6
ENDBRANCH  10   9
TORSDOF 5
ENDMDL
MODEL 8
REMARK VINA RESULT:      -5.5      1.429      1.796
REMARK  Name = ZINC15120587
REMARK  8 active torsions:
REMARK  status: ('A' for Active; 'I' for Inactive)
REMARK    1  A    between atoms: C1_1  and  C2_2
REMARK    2  A    between atoms: C2_2  and  C18_20
REMARK    3  A    between atoms: C3_3  and  C4_4
REMARK    4  A    between atoms: C4_4  and  C5_5
REMARK    5  A    between atoms: C5_5  and  C6_6
REMARK    6  A    between atoms: C6_6  and  C17_19
REMARK    7  A    between atoms: C7_7  and  C8_8
REMARK    8  A    between atoms: C8_8  and  C9_9
REMARK                            x       y       z     vdW  Elec       q    Type
REMARK                         _______ _______ _______ _____ _____    ______ ____
ROOT
ATOM     10  C   UNL     1      46.923  20.766  20.358  0.00  0.00    +0.134 C 
ENDROOT
BRANCH  10  11
ATOM     11  C   UNL     1      45.535  21.150  19.914  0.00  0.00    -0.160 A 
ATOM     12  C   UNL     1      45.178  22.298  19.316  0.00  0.00    +0.220 A 
ATOM     13  N   UNL     1      43.834  22.292  19.058  0.00  0.00    -0.596 N 
ATOM     14  C   UNL     1      43.279  21.112  19.501  0.00  0.00    +0.095 A 
ATOM     15  C   UNL     1      41.986  20.600  19.492  0.00  0.00    -0.013 A 
ATOM     16  C   UNL     1      41.740  19.354  20.025  0.00  0.00    +0.026 A 
ATOM     17  C   UNL     1      42.770  18.601  20.571  0.00  0.00    -0.025 A 
ATOM     18  C   UNL     1      44.048  19.085  20.591  0.00  0.00    +0.050 A 
ATOM     19  H   UNL     1      43.345  23.012  18.629  0.00  0.00    +0.415 HD
ATOM     20  C   UNL     1      44.320  20.346  20.056  0.00  0.00    -0.102 A 
ENDBRANCH  10  11
BRANCH  10   9
ATOM      7  C   UNL     1      48.027  18.800  19.420  0.00  0.00    -0.134 C 
ATOM      8  C   UNL     1      47.676  18.069  20.690  0.00  0.00    +0.071 C 
ATOM      9  C   UNL     1      47.623  20.034  19.241  0.00  0.00    -0.042 C 
BRANCH   7   6
ATOM      6  C   UNL     1      48.841  18.113  18.355  0.00  0.00    +0.056 C 
BRANCH   6   5
ATOM      5  C   UNL     1      50.319  18.469  18.533  0.00  0.00    +0.055 C 
BRANCH   5   4
ATOM      1  C   UNL     1      51.059  21.187  18.665  0.00  0.00    +0.071 C 
ATOM      2  C   UNL     1      51.222  20.421  17.378  0.00  0.00    -0.133 C 
ATOM      3  C   UNL     1      51.849  21.086  16.179  0.00  0.00    +0.071 C 
ATOM      4  C   UNL     1      50.818  19.178  17.301  0.00  0.00    -0.061 C 
ENDBRANCH   5   4
ENDBRANCH   6   5
ENDBRANCH   7   6
ENDBRANCH  10   9
TORSDOF 5
ENDMDL
MODEL 9
REMARK VINA RESULT:      -5.5     19.204     21.795
REMARK  Name = ZINC15120587
REMARK  8 active torsions:
REMARK  status: ('A' for Active; 'I' for Inactive)
REMARK    1  A    between atoms: C1_1  and  C2_2
REMARK    2  A    between atoms: C2_2  and  C18_20
REMARK    3  A    between atoms: C3_3  and  C4_4
REMARK    4  A    between atoms: C4_4  and  C5_5
REMARK    5  A    between atoms: C5_5  and  C6_6
REMARK    6  A    between atoms: C6_6  and  C17_19
REMARK    7  A    between atoms: C7_7  and  C8_8
REMARK    8  A    between atoms: C8_8  and  C9_9
REMARK                            x       y       z     vdW  Elec       q    Type
REMARK                         _______ _______ _______ _____ _____    ______ ____
ROOT
ATOM     10  C   UNL     1      54.835  33.146   6.555  0.00  0.00    +0.134 C 
ENDROOT
BRANCH  10  11
ATOM     11  C   UNL     1      55.686  33.744   5.464  0.00  0.00    -0.160 A 
ATOM     12  C   UNL     1      56.288  34.944   5.488  0.00  0.00    +0.220 A 
ATOM     13  N   UNL     1      56.976  35.145   4.323  0.00  0.00    -0.596 N 
ATOM     14  C   UNL     1      56.826  34.053   3.497  0.00  0.00    +0.095 A 
ATOM     15  C   UNL     1      57.298  33.742   2.226  0.00  0.00    -0.013 A 
ATOM     16  C   UNL     1      56.964  32.536   1.649  0.00  0.00    +0.026 A 
ATOM     17  C   UNL     1      56.161  31.626   2.323  0.00  0.00    -0.025 A 
ATOM     18  C   UNL     1      55.685  31.913   3.572  0.00  0.00    +0.050 A 
ATOM     19  H   UNL     1      57.492  35.938   4.110  0.00  0.00    +0.415 HD
ATOM     20  C   UNL     1      56.011  33.128   4.176  0.00  0.00    -0.102 A 
ENDBRANCH  10  11
BRANCH  10   9
ATOM      7  C   UNL     1      52.434  33.491   6.278  0.00  0.00    -0.134 C 
ATOM      8  C   UNL     1      52.586  34.771   7.058  0.00  0.00    +0.071 C 
ATOM      9  C   UNL     1      53.490  32.768   5.992  0.00  0.00    -0.042 C 
BRANCH   7   6
ATOM      6  C   UNL     1      51.069  33.042   5.826  0.00  0.00    +0.056 C 
BRANCH   6   5
ATOM      5  C   UNL     1      50.735  33.697   4.483  0.00  0.00    +0.055 C 
BRANCH   5   4
ATOM      1  C   UNL     1      52.819  34.313   2.686  0.00  0.00    +0.071 C 
ATOM      2  C   UNL     1      52.082  33.005   2.568  0.00  0.00    -0.133 C 
ATOM      3  C   UNL     1      52.507  31.991   1.537  0.00  0.00    +0.071 C 
ATOM      4  C   UNL     1      51.073  32.748   3.363  0.00  0.00    -0.061 C 
ENDBRANCH   5   4
ENDBRANCH   6   5
ENDBRANCH   7   6
ENDBRANCH  10   9
TORSDOF 5
ENDMDL
