MODEL 1
REMARK VINA RESULT:      -6.6      0.000      0.000
REMARK  Name = ZINC14811038
REMARK  6 active torsions:
REMARK  status: ('A' for Active; 'I' for Inactive)
REMARK    1  A    between atoms: C3_3  and  O6_23
REMARK    2  A    between atoms: C6_6  and  C7_7
REMARK    3  A    between atoms: C7_7  and  C8_8
REMARK    4  A    between atoms: C12_14  and  O5_22
REMARK    5  A    between atoms: C13_15  and  O4_21
REMARK    6  A    between atoms: C14_16  and  O3_20
REMARK                            x       y       z     vdW  Elec       q    Type
REMARK                         _______ _______ _______ _____ _____    ______ ____
ROOT
ATOM     10  C   UNL     1      48.557  19.686  20.025  0.00  0.00    -0.048 C 
ATOM     11  C   UNL     1      48.534  19.800  21.557  0.00  0.00    +0.276 C 
ATOM     12  O   UNL     1      47.977  21.060  21.930  0.00  0.00    -0.299 OA
ATOM     13  C   UNL     1      46.775  21.416  21.417  0.00  0.00    +0.204 A 
ATOM     14  C   UNL     1      45.997  22.355  22.071  0.00  0.00    -0.034 A 
ATOM     15  C   UNL     1      44.766  22.729  21.549  0.00  0.00    +0.171 A 
ATOM     18  C   UNL     1      44.298  22.170  20.364  0.00  0.00    +0.008 A 
ATOM     21  C   UNL     1      45.061  21.227  19.694  0.00  0.00    +0.193 A 
ATOM     24  C   UNL     1      46.304  20.841  20.222  0.00  0.00    -0.275 A 
ATOM     25  C   UNL     1      47.124  19.834  19.543  0.00  0.00    +0.401 C 
ATOM     26  O   UNL     1      46.683  19.152  18.641  0.00  0.00    -0.411 OA
ENDROOT
BRANCH  15  16
ATOM     16  O   UNL     1      44.011  23.651  22.202  0.00  0.00    -0.479 OA
ATOM     17  H   UNL     1      43.105  23.365  22.376  0.00  0.00    +0.399 HD
ENDBRANCH  15  16
BRANCH  18  19
ATOM     19  O   UNL     1      43.090  22.550  19.862  0.00  0.00    -0.469 OA
ATOM     20  H   UNL     1      42.563  23.086  20.469  0.00  0.00    +0.383 HD
ENDBRANCH  18  19
BRANCH  21  22
ATOM     22  O   UNL     1      44.611  20.679  18.536  0.00  0.00    -0.463 OA
ATOM     23  H   UNL     1      43.889  21.172  18.122  0.00  0.00    +0.395 HD
ENDBRANCH  21  22
BRANCH  10   9
ATOM      9  C   UNL     1      49.423  20.799  19.433  0.00  0.00    +0.111 C 
BRANCH   9   8
ATOM      1  C   UNL     1      50.267  18.879  18.068  0.00  0.00    +0.034 A 
ATOM      2  C   UNL     1      51.035  18.364  17.042  0.00  0.00    -0.011 A 
ATOM      3  C   UNL     1      51.813  19.211  16.267  0.00  0.00    +0.107 A 
ATOM      6  C   UNL     1      51.816  20.575  16.522  0.00  0.00    -0.011 A 
ATOM      7  C   UNL     1      51.042  21.085  17.546  0.00  0.00    +0.024 A 
ATOM      8  C   UNL     1      50.266  20.239  18.316  0.00  0.00    -0.100 A 
BRANCH   3   4
ATOM      4  O   UNL     1      52.574  18.706  15.261  0.00  0.00    -0.499 OA
ATOM      5  H   UNL     1      53.516  18.641  15.474  0.00  0.00    +0.392 HD
ENDBRANCH   3   4
ENDBRANCH   9   8
ENDBRANCH  10   9
TORSDOF 6
ENDMDL
MODEL 2
REMARK VINA RESULT:      -6.1      2.626      3.513
REMARK  Name = ZINC14811038
REMARK  6 active torsions:
REMARK  status: ('A' for Active; 'I' for Inactive)
REMARK    1  A    between atoms: C3_3  and  O6_23
REMARK    2  A    between atoms: C6_6  and  C7_7
REMARK    3  A    between atoms: C7_7  and  C8_8
REMARK    4  A    between atoms: C12_14  and  O5_22
REMARK    5  A    between atoms: C13_15  and  O4_21
REMARK    6  A    between atoms: C14_16  and  O3_20
REMARK                            x       y       z     vdW  Elec       q    Type
REMARK                         _______ _______ _______ _____ _____    ______ ____
ROOT
ATOM     10  C   UNL     1      47.211  20.057  19.120  0.00  0.00    -0.048 C 
ATOM     11  C   UNL     1      47.199  18.535  18.910  0.00  0.00    +0.276 C 
ATOM     12  O   UNL     1      46.560  17.908  20.021  0.00  0.00    -0.299 OA
ATOM     13  C   UNL     1      45.330  18.338  20.390  0.00  0.00    +0.204 A 
ATOM     14  C   UNL     1      44.496  17.503  21.113  0.00  0.00    -0.034 A 
ATOM     15  C   UNL     1      43.235  17.938  21.500  0.00  0.00    +0.171 A 
ATOM     18  C   UNL     1      42.793  19.215  21.169  0.00  0.00    +0.008 A 
ATOM     21  C   UNL     1      43.611  20.066  20.443  0.00  0.00    +0.193 A 
ATOM     24  C   UNL     1      44.885  19.627  20.046  0.00  0.00    -0.275 A 
ATOM     25  C   UNL     1      45.766  20.501  19.264  0.00  0.00    +0.401 C 
ATOM     26  O   UNL     1      45.361  21.526  18.755  0.00  0.00    -0.411 OA
ENDROOT
BRANCH  15  16
ATOM     16  O   UNL     1      42.426  17.108  22.209  0.00  0.00    -0.479 OA
ATOM     17  H   UNL     1      42.260  17.401  23.115  0.00  0.00    +0.399 HD
ENDBRANCH  15  16
BRANCH  18  19
ATOM     19  O   UNL     1      41.555  19.629  21.559  0.00  0.00    -0.469 OA
ATOM     20  H   UNL     1      40.899  18.921  21.602  0.00  0.00    +0.383 HD
ENDBRANCH  18  19
BRANCH  21  22
ATOM     22  O   UNL     1      43.186  21.314  20.120  0.00  0.00    -0.463 OA
ATOM     23  H   UNL     1      42.330  21.549  20.502  0.00  0.00    +0.395 HD
ENDBRANCH  21  22
BRANCH  10   9
ATOM      9  C   UNL     1      47.989  20.400  20.392  0.00  0.00    +0.111 C 
BRANCH   9   8
ATOM      1  C   UNL     1      50.376  20.799  21.031  0.00  0.00    +0.034 A 
ATOM      2  C   UNL     1      51.689  21.075  20.707  0.00  0.00    -0.011 A 
ATOM      3  C   UNL     1      52.049  21.272  19.382  0.00  0.00    +0.107 A 
ATOM      6  C   UNL     1      51.088  21.186  18.384  0.00  0.00    -0.011 A 
ATOM      7  C   UNL     1      49.777  20.904  18.714  0.00  0.00    +0.024 A 
ATOM      8  C   UNL     1      49.421  20.707  20.035  0.00  0.00    -0.100 A 
BRANCH   3   4
ATOM      4  O   UNL     1      53.340  21.550  19.060  0.00  0.00    -0.499 OA
ATOM      5  H   UNL     1      53.523  21.526  18.111  0.00  0.00    +0.392 HD
ENDBRANCH   3   4
ENDBRANCH   9   8
ENDBRANCH  10   9
TORSDOF 6
ENDMDL
MODEL 3
REMARK VINA RESULT:      -6.0      1.643      7.197
REMARK  Name = ZINC14811038
REMARK  6 active torsions:
REMARK  status: ('A' for Active; 'I' for Inactive)
REMARK    1  A    between atoms: C3_3  and  O6_23
REMARK    2  A    between atoms: C6_6  and  C7_7
REMARK    3  A    between atoms: C7_7  and  C8_8
REMARK    4  A    between atoms: C12_14  and  O5_22
REMARK    5  A    between atoms: C13_15  and  O4_21
REMARK    6  A    between atoms: C14_16  and  O3_20
REMARK                            x       y       z     vdW  Elec       q    Type
REMARK                         _______ _______ _______ _____ _____    ______ ____
ROOT
ATOM     10  C   UNL     1      48.548  19.034  19.922  0.00  0.00    -0.048 C 
ATOM     11  C   UNL     1      49.118  17.609  19.988  0.00  0.00    +0.276 C 
ATOM     12  O   UNL     1      49.442  17.167  18.670  0.00  0.00    -0.299 OA
ATOM     13  C   UNL     1      50.233  17.951  17.899  0.00  0.00    +0.204 A 
ATOM     14  C   UNL     1      50.940  17.394  16.848  0.00  0.00    -0.034 A 
ATOM     15  C   UNL     1      51.748  18.192  16.048  0.00  0.00    +0.171 A 
ATOM     18  C   UNL     1      51.858  19.558  16.290  0.00  0.00    +0.008 A 
ATOM     21  C   UNL     1      51.159  20.135  17.338  0.00  0.00    +0.193 A 
ATOM     24  C   UNL     1      50.345  19.330  18.152  0.00  0.00    -0.275 A 
ATOM     25  C   UNL     1      49.607  19.911  19.278  0.00  0.00    +0.401 C 
ATOM     26  O   UNL     1      49.831  21.035  19.677  0.00  0.00    -0.411 OA
ENDROOT
BRANCH  15  16
ATOM     16  O   UNL     1      52.438  17.633  15.020  0.00  0.00    -0.479 OA
ATOM     17  H   UNL     1      52.919  16.830  15.260  0.00  0.00    +0.399 HD
ENDBRANCH  15  16
BRANCH  18  19
ATOM     19  O   UNL     1      52.651  20.329  15.495  0.00  0.00    -0.469 OA
ATOM     20  H   UNL     1      53.053  19.850  14.757  0.00  0.00    +0.383 HD
ENDBRANCH  18  19
BRANCH  21  22
ATOM     22  O   UNL     1      51.260  21.468  17.577  0.00  0.00    -0.463 OA
ATOM     23  H   UNL     1      50.579  21.998  17.141  0.00  0.00    +0.395 HD
ENDBRANCH  21  22
BRANCH  10   9
ATOM      9  C   UNL     1      47.275  19.047  19.074  0.00  0.00    +0.111 C 
BRANCH   9   8
ATOM      1  C   UNL     1      45.831  20.036  20.863  0.00  0.00    +0.034 A 
ATOM      2  C   UNL     1      44.982  21.018  21.332  0.00  0.00    -0.011 A 
ATOM      3  C   UNL     1      44.635  22.083  20.514  0.00  0.00    +0.107 A 
ATOM      6  C   UNL     1      45.146  22.160  19.226  0.00  0.00    -0.011 A 
ATOM      7  C   UNL     1      45.999  21.177  18.763  0.00  0.00    +0.024 A 
ATOM      8  C   UNL     1      46.344  20.118  19.582  0.00  0.00    -0.100 A 
BRANCH   3   4
ATOM      4  O   UNL     1      43.794  23.048  20.971  0.00  0.00    -0.499 OA
ATOM      5  H   UNL     1      42.891  22.740  21.128  0.00  0.00    +0.392 HD
ENDBRANCH   3   4
ENDBRANCH   9   8
ENDBRANCH  10   9
TORSDOF 6
ENDMDL
MODEL 4
REMARK VINA RESULT:      -6.0      3.937      7.671
REMARK  Name = ZINC14811038
REMARK  6 active torsions:
REMARK  status: ('A' for Active; 'I' for Inactive)
REMARK    1  A    between atoms: C3_3  and  O6_23
REMARK    2  A    between atoms: C6_6  and  C7_7
REMARK    3  A    between atoms: C7_7  and  C8_8
REMARK    4  A    between atoms: C12_14  and  O5_22
REMARK    5  A    between atoms: C13_15  and  O4_21
REMARK    6  A    between atoms: C14_16  and  O3_20
REMARK                            x       y       z     vdW  Elec       q    Type
REMARK                         _______ _______ _______ _____ _____    ______ ____
ROOT
ATOM     10  C   UNL     1      45.414  18.403  20.036  0.00  0.00    -0.048 C 
ATOM     11  C   UNL     1      45.761  17.321  21.070  0.00  0.00    +0.276 C 
ATOM     12  O   UNL     1      45.329  16.049  20.587  0.00  0.00    -0.299 OA
ATOM     13  C   UNL     1      45.721  15.656  19.352  0.00  0.00    +0.204 A 
ATOM     14  C   UNL     1      45.737  14.311  19.029  0.00  0.00    -0.034 A 
ATOM     15  C   UNL     1      46.132  13.900  17.762  0.00  0.00    +0.171 A 
ATOM     18  C   UNL     1      46.515  14.832  16.801  0.00  0.00    +0.008 A 
ATOM     21  C   UNL     1      46.507  16.184  17.105  0.00  0.00    +0.193 A 
ATOM     24  C   UNL     1      46.114  16.602  18.387  0.00  0.00    -0.275 A 
ATOM     25  C   UNL     1      46.112  18.025  18.741  0.00  0.00    +0.401 C 
ATOM     26  O   UNL     1      46.641  18.860  18.036  0.00  0.00    -0.411 OA
ENDROOT
BRANCH  15  16
ATOM     16  O   UNL     1      46.144  12.577  17.458  0.00  0.00    -0.479 OA
ATOM     17  H   UNL     1      46.869  12.086  17.867  0.00  0.00    +0.399 HD
ENDBRANCH  15  16
BRANCH  18  19
ATOM     19  O   UNL     1      46.896  14.414  15.562  0.00  0.00    -0.469 OA
ATOM     20  H   UNL     1      46.178  14.397  14.915  0.00  0.00    +0.383 HD
ENDBRANCH  18  19
BRANCH  21  22
ATOM     22  O   UNL     1      46.877  17.098  16.172  0.00  0.00    -0.463 OA
ATOM     23  H   UNL     1      46.309  17.113  15.390  0.00  0.00    +0.395 HD
ENDBRANCH  21  22
BRANCH  10   9
ATOM      9  C   UNL     1      43.901  18.449  19.818  0.00  0.00    +0.111 C 
BRANCH   9   8
ATOM      1  C   UNL     1      42.249  20.144  19.004  0.00  0.00    +0.034 A 
ATOM      2  C   UNL     1      41.849  21.450  18.803  0.00  0.00    -0.011 A 
ATOM      3  C   UNL     1      42.678  22.494  19.186  0.00  0.00    +0.107 A 
ATOM      6  C   UNL     1      43.906  22.224  19.773  0.00  0.00    -0.011 A 
ATOM      7  C   UNL     1      44.298  20.915  19.977  0.00  0.00    +0.024 A 
ATOM      8  C   UNL     1      43.470  19.876  19.595  0.00  0.00    -0.100 A 
BRANCH   3   4
ATOM      4  O   UNL     1      42.290  23.781  18.984  0.00  0.00    -0.499 OA
ATOM      5  H   UNL     1      41.365  23.953  19.209  0.00  0.00    +0.392 HD
ENDBRANCH   3   4
ENDBRANCH   9   8
ENDBRANCH  10   9
TORSDOF 6
ENDMDL
MODEL 5
REMARK VINA RESULT:      -5.9      2.237      3.034
REMARK  Name = ZINC14811038
REMARK  6 active torsions:
REMARK  status: ('A' for Active; 'I' for Inactive)
REMARK    1  A    between atoms: C3_3  and  O6_23
REMARK    2  A    between atoms: C6_6  and  C7_7
REMARK    3  A    between atoms: C7_7  and  C8_8
REMARK    4  A    between atoms: C12_14  and  O5_22
REMARK    5  A    between atoms: C13_15  and  O4_21
REMARK    6  A    between atoms: C14_16  and  O3_20
REMARK                            x       y       z     vdW  Elec       q    Type
REMARK                         _______ _______ _______ _____ _____    ______ ____
ROOT
ATOM     10  C   UNL     1      47.293  20.492  20.775  0.00  0.00    -0.048 C 
ATOM     11  C   UNL     1      46.873  21.935  21.092  0.00  0.00    +0.276 C 
ATOM     12  O   UNL     1      45.837  22.335  20.195  0.00  0.00    -0.299 OA
ATOM     13  C   UNL     1      44.743  21.546  20.073  0.00  0.00    +0.204 A 
ATOM     14  C   UNL     1      43.554  22.083  19.611  0.00  0.00    -0.034 A 
ATOM     15  C   UNL     1      42.429  21.280  19.478  0.00  0.00    +0.171 A 
ATOM     18  C   UNL     1      42.480  19.928  19.805  0.00  0.00    +0.008 A 
ATOM     21  C   UNL     1      43.660  19.371  20.272  0.00  0.00    +0.193 A 
ATOM     24  C   UNL     1      44.798  20.182  20.412  0.00  0.00    -0.275 A 
ATOM     25  C   UNL     1      46.056  19.623  20.919  0.00  0.00    +0.401 C 
ATOM     26  O   UNL     1      46.107  18.523  21.428  0.00  0.00    -0.411 OA
ENDROOT
BRANCH  15  16
ATOM     16  O   UNL     1      41.268  21.819  19.024  0.00  0.00    -0.479 OA
ATOM     17  H   UNL     1      41.029  22.652  19.449  0.00  0.00    +0.399 HD
ENDBRANCH  15  16
BRANCH  18  19
ATOM     19  O   UNL     1      41.369  19.152  19.666  0.00  0.00    -0.469 OA
ATOM     20  H   UNL     1      40.937  18.929  20.501  0.00  0.00    +0.383 HD
ENDBRANCH  18  19
BRANCH  21  22
ATOM     22  O   UNL     1      43.717  18.053  20.590  0.00  0.00    -0.463 OA
ATOM     23  H   UNL     1      44.614  17.718  20.722  0.00  0.00    +0.395 HD
ENDBRANCH  21  22
BRANCH  10   9
ATOM      9  C   UNL     1      47.825  20.407  19.343  0.00  0.00    +0.111 C 
BRANCH   9   8
ATOM      1  C   UNL     1      50.013  20.692  20.525  0.00  0.00    +0.034 A 
ATOM      2  C   UNL     1      51.367  20.960  20.523  0.00  0.00    -0.011 A 
ATOM      3  C   UNL     1      52.014  21.253  19.331  0.00  0.00    +0.107 A 
ATOM      6  C   UNL     1      51.298  21.272  18.143  0.00  0.00    -0.011 A 
ATOM      7  C   UNL     1      49.944  20.998  18.150  0.00  0.00    +0.024 A 
ATOM      8  C   UNL     1      49.302  20.705  19.339  0.00  0.00    -0.100 A 
BRANCH   3   4
ATOM      4  O   UNL     1      53.346  21.523  19.328  0.00  0.00    -0.499 OA
ATOM      5  H   UNL     1      53.861  20.954  18.740  0.00  0.00    +0.392 HD
ENDBRANCH   3   4
ENDBRANCH   9   8
ENDBRANCH  10   9
TORSDOF 6
ENDMDL
MODEL 6
REMARK VINA RESULT:      -5.9      4.329      5.003
REMARK  Name = ZINC14811038
REMARK  6 active torsions:
REMARK  status: ('A' for Active; 'I' for Inactive)
REMARK    1  A    between atoms: C3_3  and  O6_23
REMARK    2  A    between atoms: C6_6  and  C7_7
REMARK    3  A    between atoms: C7_7  and  C8_8
REMARK    4  A    between atoms: C12_14  and  O5_22
REMARK    5  A    between atoms: C13_15  and  O4_21
REMARK    6  A    between atoms: C14_16  and  O3_20
REMARK                            x       y       z     vdW  Elec       q    Type
REMARK                         _______ _______ _______ _____ _____    ______ ____
ROOT
ATOM     10  C   UNL     1      44.497  18.166  20.930  0.00  0.00    -0.048 C 
ATOM     11  C   UNL     1      44.888  18.695  22.318  0.00  0.00    +0.276 C 
ATOM     12  O   UNL     1      45.611  19.917  22.174  0.00  0.00    -0.299 OA
ATOM     13  C   UNL     1      45.065  20.910  21.432  0.00  0.00    +0.204 A 
ATOM     14  C   UNL     1      45.465  22.220  21.633  0.00  0.00    -0.034 A 
ATOM     15  C   UNL     1      44.914  23.243  20.873  0.00  0.00    +0.171 A 
ATOM     18  C   UNL     1      43.956  22.969  19.901  0.00  0.00    +0.008 A 
ATOM     21  C   UNL     1      43.540  21.665  19.686  0.00  0.00    +0.193 A 
ATOM     24  C   UNL     1      44.091  20.628  20.456  0.00  0.00    -0.275 A 
ATOM     25  C   UNL     1      43.658  19.241  20.261  0.00  0.00    +0.401 C 
ATOM     26  O   UNL     1      42.680  18.964  19.599  0.00  0.00    -0.411 OA
ENDROOT
BRANCH  15  16
ATOM     16  O   UNL     1      45.314  24.525  21.080  0.00  0.00    -0.479 OA
ATOM     17  H   UNL     1      45.659  24.961  20.290  0.00  0.00    +0.399 HD
ENDBRANCH  15  16
BRANCH  18  19
ATOM     19  O   UNL     1      43.428  23.984  19.161  0.00  0.00    -0.469 OA
ATOM     20  H   UNL     1      43.863  24.836  19.294  0.00  0.00    +0.383 HD
ENDBRANCH  18  19
BRANCH  21  22
ATOM     22  O   UNL     1      42.608  21.391  18.737  0.00  0.00    -0.463 OA
ATOM     23  H   UNL     1      42.582  20.463  18.469  0.00  0.00    +0.395 HD
ENDBRANCH  21  22
BRANCH  10   9
ATOM      9  C   UNL     1      45.755  17.896  20.103  0.00  0.00    +0.111 C 
BRANCH   9   8
ATOM      1  C   UNL     1      46.309  16.146  18.402  0.00  0.00    +0.034 A 
ATOM      2  C   UNL     1      46.302  14.838  17.960  0.00  0.00    -0.011 A 
ATOM      3  C   UNL     1      45.715  13.848  18.735  0.00  0.00    +0.107 A 
ATOM      6  C   UNL     1      45.140  14.175  19.954  0.00  0.00    -0.011 A 
ATOM      7  C   UNL     1      45.155  15.484  20.394  0.00  0.00    +0.024 A 
ATOM      8  C   UNL     1      45.741  16.469  19.621  0.00  0.00    -0.100 A 
BRANCH   3   4
ATOM      4  O   UNL     1      45.702  12.561  18.299  0.00  0.00    -0.499 OA
ATOM      5  H   UNL     1      45.771  12.470  17.339  0.00  0.00    +0.392 HD
ENDBRANCH   3   4
ENDBRANCH   9   8
ENDBRANCH  10   9
TORSDOF 6
ENDMDL
MODEL 7
REMARK VINA RESULT:      -5.8      2.939      3.828
REMARK  Name = ZINC14811038
REMARK  6 active torsions:
REMARK  status: ('A' for Active; 'I' for Inactive)
REMARK    1  A    between atoms: C3_3  and  O6_23
REMARK    2  A    between atoms: C6_6  and  C7_7
REMARK    3  A    between atoms: C7_7  and  C8_8
REMARK    4  A    between atoms: C12_14  and  O5_22
REMARK    5  A    between atoms: C13_15  and  O4_21
REMARK    6  A    between atoms: C14_16  and  O3_20
REMARK                            x       y       z     vdW  Elec       q    Type
REMARK                         _______ _______ _______ _____ _____    ______ ____
ROOT
ATOM     10  C   UNL     1      46.297  17.082  19.754  0.00  0.00    -0.048 C 
ATOM     11  C   UNL     1      45.479  16.008  20.487  0.00  0.00    +0.276 C 
ATOM     12  O   UNL     1      44.629  16.634  21.448  0.00  0.00    -0.299 OA
ATOM     13  C   UNL     1      43.819  17.640  21.040  0.00  0.00    +0.204 A 
ATOM     14  C   UNL     1      42.686  17.952  21.771  0.00  0.00    -0.034 A 
ATOM     15  C   UNL     1      41.853  18.986  21.363  0.00  0.00    +0.171 A 
ATOM     18  C   UNL     1      42.145  19.722  20.219  0.00  0.00    +0.008 A 
ATOM     21  C   UNL     1      43.274  19.425  19.472  0.00  0.00    +0.193 A 
ATOM     24  C   UNL     1      44.115  18.376  19.878  0.00  0.00    -0.275 A 
ATOM     25  C   UNL     1      45.307  18.029  19.098  0.00  0.00    +0.401 C 
ATOM     26  O   UNL     1      45.494  18.475  17.985  0.00  0.00    -0.411 OA
ENDROOT
BRANCH  15  16
ATOM     16  O   UNL     1      40.744  19.281  22.089  0.00  0.00    -0.479 OA
ATOM     17  H   UNL     1      40.173  18.521  22.262  0.00  0.00    +0.399 HD
ENDBRANCH  15  16
BRANCH  18  19
ATOM     19  O   UNL     1      41.321  20.736  19.833  0.00  0.00    -0.469 OA
ATOM     20  H   UNL     1      41.513  21.583  20.259  0.00  0.00    +0.383 HD
ENDBRANCH  18  19
BRANCH  21  22
ATOM     22  O   UNL     1      43.565  20.141  18.356  0.00  0.00    -0.463 OA
ATOM     23  H   UNL     1      43.024  19.911  17.589  0.00  0.00    +0.395 HD
ENDBRANCH  21  22
BRANCH  10   9
ATOM      9  C   UNL     1      47.166  17.847  20.753  0.00  0.00    +0.111 C 
BRANCH   9   8
ATOM      1  C   UNL     1      48.100  20.091  20.157  0.00  0.00    +0.034 A 
ATOM      2  C   UNL     1      48.996  20.891  19.477  0.00  0.00    -0.011 A 
ATOM      3  C   UNL     1      49.934  20.316  18.632  0.00  0.00    +0.107 A 
ATOM      6  C   UNL     1      49.972  18.938  18.476  0.00  0.00    -0.011 A 
ATOM      7  C   UNL     1      49.076  18.143  19.163  0.00  0.00    +0.024 A 
ATOM      8  C   UNL     1      48.143  18.718  20.005  0.00  0.00    -0.100 A 
BRANCH   3   4
ATOM      4  O   UNL     1      50.814  21.101  17.956  0.00  0.00    -0.499 OA
ATOM      5  H   UNL     1      51.566  20.620  17.584  0.00  0.00    +0.392 HD
ENDBRANCH   3   4
ENDBRANCH   9   8
ENDBRANCH  10   9
TORSDOF 6
ENDMDL
MODEL 8
REMARK VINA RESULT:      -5.7      3.513      4.391
REMARK  Name = ZINC14811038
REMARK  6 active torsions:
REMARK  status: ('A' for Active; 'I' for Inactive)
REMARK    1  A    between atoms: C3_3  and  O6_23
REMARK    2  A    between atoms: C6_6  and  C7_7
REMARK    3  A    between atoms: C7_7  and  C8_8
REMARK    4  A    between atoms: C12_14  and  O5_22
REMARK    5  A    between atoms: C13_15  and  O4_21
REMARK    6  A    between atoms: C14_16  and  O3_20
REMARK                            x       y       z     vdW  Elec       q    Type
REMARK                         _______ _______ _______ _____ _____    ______ ____
ROOT
ATOM     10  C   UNL     1      49.130  16.359  17.513  0.00  0.00    -0.048 C 
ATOM     11  C   UNL     1      48.857  14.956  18.075  0.00  0.00    +0.276 C 
ATOM     12  O   UNL     1      48.226  15.071  19.350  0.00  0.00    -0.299 OA
ATOM     13  C   UNL     1      47.117  15.841  19.459  0.00  0.00    +0.204 A 
ATOM     14  C   UNL     1      46.227  15.627  20.497  0.00  0.00    -0.034 A 
ATOM     15  C   UNL     1      45.092  16.416  20.619  0.00  0.00    +0.171 A 
ATOM     18  C   UNL     1      44.831  17.432  19.703  0.00  0.00    +0.008 A 
ATOM     21  C   UNL     1      45.709  17.662  18.655  0.00  0.00    +0.193 A 
ATOM     24  C   UNL     1      46.856  16.862  18.526  0.00  0.00    -0.275 A 
ATOM     25  C   UNL     1      47.793  17.072  17.417  0.00  0.00    +0.401 C 
ATOM     26  O   UNL     1      47.515  17.779  16.471  0.00  0.00    -0.411 OA
ENDROOT
BRANCH  15  16
ATOM     16  O   UNL     1      44.226  16.196  21.642  0.00  0.00    -0.479 OA
ATOM     17  H   UNL     1      44.576  16.430  22.511  0.00  0.00    +0.399 HD
ENDBRANCH  15  16
BRANCH  18  19
ATOM     19  O   UNL     1      43.715  18.201  19.838  0.00  0.00    -0.469 OA
ATOM     20  H   UNL     1      43.196  18.287  19.026  0.00  0.00    +0.383 HD
ENDBRANCH  18  19
BRANCH  21  22
ATOM     22  O   UNL     1      45.462  18.653  17.760  0.00  0.00    -0.463 OA
ATOM     23  H   UNL     1      45.977  19.456  17.912  0.00  0.00    +0.395 HD
ENDBRANCH  21  22
BRANCH  10   9
ATOM      9  C   UNL     1      50.062  17.124  18.454  0.00  0.00    +0.111 C 
BRANCH   9   8
ATOM      1  C   UNL     1      50.521  19.576  18.257  0.00  0.00    +0.034 A 
ATOM      2  C   UNL     1      51.063  20.660  17.595  0.00  0.00    -0.011 A 
ATOM      3  C   UNL     1      51.727  20.475  16.391  0.00  0.00    +0.107 A 
ATOM      6  C   UNL     1      51.849  19.200  15.857  0.00  0.00    -0.011 A 
ATOM      7  C   UNL     1      51.310  18.119  16.527  0.00  0.00    +0.024 A 
ATOM      8  C   UNL     1      50.650  18.306  17.727  0.00  0.00    -0.100 A 
BRANCH   3   4
ATOM      4  O   UNL     1      52.255  21.541  15.734  0.00  0.00    -0.499 OA
ATOM      5  H   UNL     1      51.749  21.815  14.957  0.00  0.00    +0.392 HD
ENDBRANCH   3   4
ENDBRANCH   9   8
ENDBRANCH  10   9
TORSDOF 6
ENDMDL
MODEL 9
REMARK VINA RESULT:      -5.4     18.578     21.693
REMARK  Name = ZINC14811038
REMARK  6 active torsions:
REMARK  status: ('A' for Active; 'I' for Inactive)
REMARK    1  A    between atoms: C3_3  and  O6_23
REMARK    2  A    between atoms: C6_6  and  C7_7
REMARK    3  A    between atoms: C7_7  and  C8_8
REMARK    4  A    between atoms: C12_14  and  O5_22
REMARK    5  A    between atoms: C13_15  and  O4_21
REMARK    6  A    between atoms: C14_16  and  O3_20
REMARK                            x       y       z     vdW  Elec       q    Type
REMARK                         _______ _______ _______ _____ _____    ______ ____
ROOT
ATOM     10  C   UNL     1      56.027  34.102   5.077  0.00  0.00    -0.048 C 
ATOM     11  C   UNL     1      57.548  34.292   5.169  0.00  0.00    +0.276 C 
ATOM     12  O   UNL     1      58.192  33.023   5.053  0.00  0.00    -0.299 OA
ATOM     13  C   UNL     1      57.882  32.233   3.996  0.00  0.00    +0.204 A 
ATOM     14  C   UNL     1      58.770  31.255   3.584  0.00  0.00    -0.034 A 
ATOM     15  C   UNL     1      58.458  30.437   2.506  0.00  0.00    +0.171 A 
ATOM     18  C   UNL     1      57.253  30.587   1.827  0.00  0.00    +0.008 A 
ATOM     21  C   UNL     1      56.351  31.562   2.223  0.00  0.00    +0.193 A 
ATOM     24  C   UNL     1      56.665  32.394   3.309  0.00  0.00    -0.275 A 
ATOM     25  C   UNL     1      55.737  33.445   3.739  0.00  0.00    +0.401 C 
ATOM     26  O   UNL     1      54.785  33.773   3.061  0.00  0.00    -0.411 OA
ENDROOT
BRANCH  15  16
ATOM     16  O   UNL     1      59.338  29.481   2.111  0.00  0.00    -0.479 OA
ATOM     17  H   UNL     1      60.113  29.827   1.648  0.00  0.00    +0.399 HD
ENDBRANCH  15  16
BRANCH  18  19
ATOM     19  O   UNL     1      56.959  29.775   0.774  0.00  0.00    -0.469 OA
ATOM     20  H   UNL     1      56.952  30.226  -0.081  0.00  0.00    +0.383 HD
ENDBRANCH  18  19
BRANCH  21  22
ATOM     22  O   UNL     1      55.172  31.711   1.566  0.00  0.00    -0.463 OA
ATOM     23  H   UNL     1      55.269  31.932   0.630  0.00  0.00    +0.395 HD
ENDBRANCH  21  22
BRANCH  10   9
ATOM      9  C   UNL     1      55.544  33.202   6.215  0.00  0.00    +0.111 C 
BRANCH   9   8
ATOM      1  C   UNL     1      53.502  34.430   6.978  0.00  0.00    +0.034 A 
ATOM      2  C   UNL     1      52.132  34.548   7.102  0.00  0.00    -0.011 A 
ATOM      3  C   UNL     1      51.304  33.550   6.608  0.00  0.00    +0.107 A 
ATOM      6  C   UNL     1      51.855  32.439   5.987  0.00  0.00    -0.011 A 
ATOM      7  C   UNL     1      53.226  32.329   5.862  0.00  0.00    +0.024 A 
ATOM      8  C   UNL     1      54.049  33.325   6.354  0.00  0.00    -0.100 A 
BRANCH   3   4
ATOM      4  O   UNL     1      49.955  33.661   6.734  0.00  0.00    -0.499 OA
ATOM      5  H   UNL     1      49.530  34.142   6.011  0.00  0.00    +0.392 HD
ENDBRANCH   3   4
ENDBRANCH   9   8
ENDBRANCH  10   9
TORSDOF 6
ENDMDL
