MODEL 1
REMARK VINA RESULT:      -6.3      0.000      0.000
REMARK  Name = ZINC01530775
REMARK  10 active torsions:
REMARK  status: ('A' for Active; 'I' for Inactive)
REMARK    1  A    between atoms: C3_3  and  O1_10
REMARK    2  A    between atoms: C6_6  and  C7_7
REMARK    3  A    between atoms: O1_10  and  C8_11
REMARK    4  A    between atoms: C8_11  and  C9_12
REMARK    5  A    between atoms: C9_12  and  C10_13
REMARK    6  A    between atoms: C10_13  and  C11_14
REMARK    7  A    between atoms: C11_14  and  C12_15
REMARK    8  A    between atoms: C12_15  and  O2_16
REMARK    9  A    between atoms: O2_16  and  C13_17
REMARK   10  A    between atoms: C16_20  and  C19_23
REMARK                            x       y       z     vdW  Elec       q    Type
REMARK                         _______ _______ _______ _____ _____    ______ ____
ROOT
ATOM      7  C   UNL     1      45.648  15.770  20.277  0.00  0.00    +0.032 C 
ENDROOT
BRANCH   7   6
ATOM      6  C   UNL     1      44.444  15.948  21.204  0.00  0.00    +0.044 C 
BRANCH   6   5
ATOM      5  C   UNL     1      44.338  17.415  21.628  0.00  0.00    +0.199 C 
BRANCH   5   4
ATOM      4  O   UNL     1      42.971  17.740  21.885  0.00  0.00    -0.296 OA
BRANCH   4   3
ATOM      1  C   UNL     1      42.543  20.167  19.213  0.00  0.00    +0.131 A 
ATOM      2  C   UNL     1      43.129  19.239  20.047  0.00  0.00    +0.008 A 
ATOM      3  C   UNL     1      42.389  18.652  21.066  0.00  0.00    +0.205 A 
ATOM     24  C   UNL     1      41.056  18.997  21.249  0.00  0.00    -0.061 A 
ATOM     25  C   UNL     1      40.463  19.924  20.420  0.00  0.00    +0.129 A 
ATOM     26  C   UNL     1      41.203  20.516  19.394  0.00  0.00    -0.202 A 
BRANCH  26  27
ATOM     27  C   UNL     1      40.570  21.510  18.503  0.00  0.00    +0.604 C 
ATOM     28  N   UNL     1      39.350  21.287  18.016  0.00  0.00    -0.764 N 
ATOM     29  H   UNL     1      38.934  21.940  17.431  0.00  0.00    +0.434 HD
ATOM     30  H   UNL     1      38.877  20.472  18.246  0.00  0.00    +0.444 HD
ATOM     31  N   UNL     1      41.219  22.630  18.188  0.00  0.00    -0.766 N 
ATOM     32  H   UNL     1      40.803  23.283  17.602  0.00  0.00    +0.434 HD
ATOM     33  H   UNL     1      42.107  22.793  18.542  0.00  0.00    +0.442 HD
ENDBRANCH  26  27
ENDBRANCH   4   3
ENDBRANCH   5   4
ENDBRANCH   6   5
ENDBRANCH   7   6
BRANCH   7   8
ATOM      8  C   UNL     1      45.789  17.005  19.384  0.00  0.00    +0.044 C 
BRANCH   8   9
ATOM      9  C   UNL     1      47.207  17.566  19.511  0.00  0.00    +0.199 C 
BRANCH   9  10
ATOM     10  O   UNL     1      47.296  18.802  18.799  0.00  0.00    -0.296 OA
BRANCH  10  11
ATOM     11  C   UNL     1      46.766  19.898  19.399  0.00  0.00    +0.205 A 
ATOM     12  C   UNL     1      46.136  20.871  18.631  0.00  0.00    -0.061 A 
ATOM     13  C   UNL     1      45.598  21.985  19.236  0.00  0.00    +0.129 A 
ATOM     14  C   UNL     1      45.684  22.136  20.621  0.00  0.00    -0.202 A 
ATOM     22  C   UNL     1      46.316  21.156  21.389  0.00  0.00    +0.131 A 
ATOM     23  C   UNL     1      46.849  20.042  20.778  0.00  0.00    +0.008 A 
BRANCH  14  15
ATOM     15  C   UNL     1      45.107  23.329  21.274  0.00  0.00    +0.604 C 
ATOM     16  N   UNL     1      45.610  24.537  21.018  0.00  0.00    -0.766 N 
ATOM     17  H   UNL     1      45.232  25.321  21.447  0.00  0.00    +0.434 HD
ATOM     18  H   UNL     1      46.354  24.632  20.404  0.00  0.00    +0.442 HD
ATOM     19  N   UNL     1      44.084  23.199  22.119  0.00  0.00    -0.764 N 
ATOM     20  H   UNL     1      43.706  23.982  22.548  0.00  0.00    +0.434 HD
ATOM     21  H   UNL     1      43.719  22.320  22.305  0.00  0.00    +0.444 HD
ENDBRANCH  14  15
ENDBRANCH  10  11
ENDBRANCH   9  10
ENDBRANCH   8   9
ENDBRANCH   7   8
TORSDOF 10
ENDMDL
MODEL 2
REMARK VINA RESULT:      -5.8      3.070      6.766
REMARK  Name = ZINC01530775
REMARK  10 active torsions:
REMARK  status: ('A' for Active; 'I' for Inactive)
REMARK    1  A    between atoms: C3_3  and  O1_10
REMARK    2  A    between atoms: C6_6  and  C7_7
REMARK    3  A    between atoms: O1_10  and  C8_11
REMARK    4  A    between atoms: C8_11  and  C9_12
REMARK    5  A    between atoms: C9_12  and  C10_13
REMARK    6  A    between atoms: C10_13  and  C11_14
REMARK    7  A    between atoms: C11_14  and  C12_15
REMARK    8  A    between atoms: C12_15  and  O2_16
REMARK    9  A    between atoms: O2_16  and  C13_17
REMARK   10  A    between atoms: C16_20  and  C19_23
REMARK                            x       y       z     vdW  Elec       q    Type
REMARK                         _______ _______ _______ _____ _____    ______ ____
ROOT
ATOM      7  C   UNL     1      45.497  15.492  20.081  0.00  0.00    +0.032 C 
ENDROOT
BRANCH   7   6
ATOM      6  C   UNL     1      46.986  15.727  20.340  0.00  0.00    +0.044 C 
BRANCH   6   5
ATOM      5  C   UNL     1      47.648  16.257  19.066  0.00  0.00    +0.199 C 
BRANCH   5   4
ATOM      4  O   UNL     1      47.410  17.661  18.953  0.00  0.00    -0.296 OA
BRANCH   4   3
ATOM      1  C   UNL     1      50.519  18.735  17.405  0.00  0.00    +0.131 A 
ATOM      2  C   UNL     1      49.443  17.947  17.754  0.00  0.00    +0.008 A 
ATOM      3  C   UNL     1      48.468  18.440  18.611  0.00  0.00    +0.205 A 
ATOM     24  C   UNL     1      48.572  19.729  19.120  0.00  0.00    -0.061 A 
ATOM     25  C   UNL     1      49.644  20.522  18.776  0.00  0.00    +0.129 A 
ATOM     26  C   UNL     1      50.627  20.030  17.915  0.00  0.00    -0.202 A 
BRANCH  26  27
ATOM     27  C   UNL     1      51.779  20.878  17.544  0.00  0.00    +0.604 C 
ATOM     28  N   UNL     1      52.659  21.248  18.473  0.00  0.00    -0.764 N 
ATOM     29  H   UNL     1      53.417  21.805  18.229  0.00  0.00    +0.434 HD
ATOM     30  H   UNL     1      52.545  20.962  19.393  0.00  0.00    +0.444 HD
ATOM     31  N   UNL     1      51.937  21.271  16.281  0.00  0.00    -0.766 N 
ATOM     32  H   UNL     1      52.694  21.828  16.038  0.00  0.00    +0.434 HD
ATOM     33  H   UNL     1      51.296  21.002  15.604  0.00  0.00    +0.442 HD
ENDBRANCH  26  27
ENDBRANCH   4   3
ENDBRANCH   5   4
ENDBRANCH   6   5
ENDBRANCH   7   6
BRANCH   7   8
ATOM      8  C   UNL     1      44.684  16.025  21.263  0.00  0.00    +0.044 C 
BRANCH   8   9
ATOM      9  C   UNL     1      44.553  17.545  21.147  0.00  0.00    +0.199 C 
BRANCH   9  10
ATOM     10  O   UNL     1      43.236  17.941  21.534  0.00  0.00    -0.296 OA
BRANCH  10  11
ATOM     11  C   UNL     1      42.636  18.902  20.787  0.00  0.00    +0.205 A 
ATOM     12  C   UNL     1      43.410  19.774  20.029  0.00  0.00    -0.061 A 
ATOM     13  C   UNL     1      42.805  20.751  19.270  0.00  0.00    +0.129 A 
ATOM     14  C   UNL     1      41.413  20.865  19.262  0.00  0.00    -0.202 A 
ATOM     22  C   UNL     1      40.640  19.987  20.024  0.00  0.00    +0.131 A 
ATOM     23  C   UNL     1      41.251  19.009  20.777  0.00  0.00    +0.008 A 
BRANCH  14  15
ATOM     15  C   UNL     1      40.761  21.912  18.449  0.00  0.00    +0.604 C 
ATOM     16  N   UNL     1      41.425  23.026  18.140  0.00  0.00    -0.766 N 
ATOM     17  H   UNL     1      40.996  23.714  17.607  0.00  0.00    +0.434 HD
ATOM     18  H   UNL     1      42.335  23.149  18.448  0.00  0.00    +0.442 HD
ATOM     19  N   UNL     1      39.508  21.743  18.025  0.00  0.00    -0.764 N 
ATOM     20  H   UNL     1      39.080  22.431  17.492  0.00  0.00    +0.434 HD
ATOM     21  H   UNL     1      39.025  20.933  18.250  0.00  0.00    +0.444 HD
ENDBRANCH  14  15
ENDBRANCH  10  11
ENDBRANCH   9  10
ENDBRANCH   8   9
ENDBRANCH   7   8
TORSDOF 10
ENDMDL
MODEL 3
REMARK VINA RESULT:      -5.8      3.531      4.344
REMARK  Name = ZINC01530775
REMARK  10 active torsions:
REMARK  status: ('A' for Active; 'I' for Inactive)
REMARK    1  A    between atoms: C3_3  and  O1_10
REMARK    2  A    between atoms: C6_6  and  C7_7
REMARK    3  A    between atoms: O1_10  and  C8_11
REMARK    4  A    between atoms: C8_11  and  C9_12
REMARK    5  A    between atoms: C9_12  and  C10_13
REMARK    6  A    between atoms: C10_13  and  C11_14
REMARK    7  A    between atoms: C11_14  and  C12_15
REMARK    8  A    between atoms: C12_15  and  O2_16
REMARK    9  A    between atoms: O2_16  and  C13_17
REMARK   10  A    between atoms: C16_20  and  C19_23
REMARK                            x       y       z     vdW  Elec       q    Type
REMARK                         _______ _______ _______ _____ _____    ______ ____
ROOT
ATOM      7  C   UNL     1      46.388  15.966  21.031  0.00  0.00    +0.032 C 
ENDROOT
BRANCH   7   6
ATOM      6  C   UNL     1      44.879  16.150  21.204  0.00  0.00    +0.044 C 
BRANCH   6   5
ATOM      5  C   UNL     1      44.563  17.638  21.376  0.00  0.00    +0.199 C 
BRANCH   5   4
ATOM      4  O   UNL     1      43.150  17.814  21.499  0.00  0.00    -0.296 OA
BRANCH   4   3
ATOM      1  C   UNL     1      40.637  20.013  20.064  0.00  0.00    +0.131 A 
ATOM      2  C   UNL     1      41.213  19.009  20.811  0.00  0.00    +0.008 A 
ATOM      3  C   UNL     1      42.586  18.805  20.763  0.00  0.00    +0.205 A 
ATOM     24  C   UNL     1      43.385  19.614  19.964  0.00  0.00    -0.061 A 
ATOM     25  C   UNL     1      42.816  20.620  19.215  0.00  0.00    +0.129 A 
ATOM     26  C   UNL     1      41.436  20.828  19.260  0.00  0.00    -0.202 A 
BRANCH  26  27
ATOM     27  C   UNL     1      40.823  21.907  18.458  0.00  0.00    +0.604 C 
ATOM     28  N   UNL     1      39.574  21.776  18.011  0.00  0.00    -0.764 N 
ATOM     29  H   UNL     1      39.171  22.485  17.484  0.00  0.00    +0.434 HD
ATOM     30  H   UNL     1      39.067  20.974  18.212  0.00  0.00    +0.444 HD
ATOM     31  N   UNL     1      41.517  23.009  18.182  0.00  0.00    -0.766 N 
ATOM     32  H   UNL     1      41.115  23.718  17.655  0.00  0.00    +0.434 HD
ATOM     33  H   UNL     1      42.427  23.105  18.507  0.00  0.00    +0.442 HD
ENDBRANCH  26  27
ENDBRANCH   4   3
ENDBRANCH   5   4
ENDBRANCH   6   5
ENDBRANCH   7   6
BRANCH   7   8
ATOM      8  C   UNL     1      47.100  17.285  21.341  0.00  0.00    +0.044 C 
BRANCH   8   9
ATOM      9  C   UNL     1      48.304  17.444  20.410  0.00  0.00    +0.199 C 
BRANCH   9  10
ATOM     10  O   UNL     1      48.766  18.795  20.454  0.00  0.00    -0.296 OA
BRANCH  10  11
ATOM     11  C   UNL     1      49.505  19.229  19.402  0.00  0.00    +0.205 A 
ATOM     12  C   UNL     1      49.836  20.575  19.296  0.00  0.00    -0.061 A 
ATOM     13  C   UNL     1      50.585  21.020  18.230  0.00  0.00    +0.129 A 
ATOM     14  C   UNL     1      51.014  20.116  17.255  0.00  0.00    -0.202 A 
ATOM     22  C   UNL     1      50.681  18.765  17.365  0.00  0.00    +0.131 A 
ATOM     23  C   UNL     1      49.935  18.327  18.437  0.00  0.00    +0.008 A 
BRANCH  14  15
ATOM     15  C   UNL     1      51.818  20.589  16.109  0.00  0.00    +0.604 C 
ATOM     16  N   UNL     1      51.780  21.873  15.753  0.00  0.00    -0.766 N 
ATOM     17  H   UNL     1      52.307  22.183  15.000  0.00  0.00    +0.434 HD
ATOM     18  H   UNL     1      51.224  22.496  16.245  0.00  0.00    +0.442 HD
ATOM     19  N   UNL     1      52.582  19.732  15.432  0.00  0.00    -0.764 N 
ATOM     20  H   UNL     1      53.110  20.042  14.679  0.00  0.00    +0.434 HD
ATOM     21  H   UNL     1      52.610  18.798  15.691  0.00  0.00    +0.444 HD
ENDBRANCH  14  15
ENDBRANCH  10  11
ENDBRANCH   9  10
ENDBRANCH   8   9
ENDBRANCH   7   8
TORSDOF 10
ENDMDL
MODEL 4
REMARK VINA RESULT:      -5.7      3.672      7.144
REMARK  Name = ZINC01530775
REMARK  10 active torsions:
REMARK  status: ('A' for Active; 'I' for Inactive)
REMARK    1  A    between atoms: C3_3  and  O1_10
REMARK    2  A    between atoms: C6_6  and  C7_7
REMARK    3  A    between atoms: O1_10  and  C8_11
REMARK    4  A    between atoms: C8_11  and  C9_12
REMARK    5  A    between atoms: C9_12  and  C10_13
REMARK    6  A    between atoms: C10_13  and  C11_14
REMARK    7  A    between atoms: C11_14  and  C12_15
REMARK    8  A    between atoms: C12_15  and  O2_16
REMARK    9  A    between atoms: O2_16  and  C13_17
REMARK   10  A    between atoms: C16_20  and  C19_23
REMARK                            x       y       z     vdW  Elec       q    Type
REMARK                         _______ _______ _______ _____ _____    ______ ____
ROOT
ATOM      7  C   UNL     1      46.784  17.840  21.525  0.00  0.00    +0.032 C 
ENDROOT
BRANCH   7   6
ATOM      6  C   UNL     1      46.603  19.347  21.722  0.00  0.00    +0.044 C 
BRANCH   6   5
ATOM      5  C   UNL     1      47.326  20.098  20.601  0.00  0.00    +0.199 C 
BRANCH   5   4
ATOM      4  O   UNL     1      48.738  19.951  20.761  0.00  0.00    -0.296 OA
BRANCH   4   3
ATOM      1  C   UNL     1      50.283  18.552  17.784  0.00  0.00    +0.131 A 
ATOM      2  C   UNL     1      49.530  18.653  18.933  0.00  0.00    +0.008 A 
ATOM      3  C   UNL     1      49.479  19.855  19.629  0.00  0.00    +0.205 A 
ATOM     24  C   UNL     1      50.186  20.958  19.168  0.00  0.00    -0.061 A 
ATOM     25  C   UNL     1      50.941  20.865  18.020  0.00  0.00    +0.129 A 
ATOM     26  C   UNL     1      50.995  19.659  17.318  0.00  0.00    -0.202 A 
BRANCH  26  27
ATOM     27  C   UNL     1      51.803  19.554  16.086  0.00  0.00    +0.604 C 
ATOM     28  N   UNL     1      52.155  20.657  15.424  0.00  0.00    -0.764 N 
ATOM     29  H   UNL     1      52.687  20.588  14.616  0.00  0.00    +0.434 HD
ATOM     30  H   UNL     1      51.881  21.528  15.752  0.00  0.00    +0.444 HD
ATOM     31  N   UNL     1      52.181  18.359  15.636  0.00  0.00    -0.766 N 
ATOM     32  H   UNL     1      52.712  18.290  14.827  0.00  0.00    +0.434 HD
ATOM     33  H   UNL     1      51.926  17.556  16.117  0.00  0.00    +0.442 HD
ENDBRANCH  26  27
ENDBRANCH   4   3
ENDBRANCH   5   4
ENDBRANCH   6   5
ENDBRANCH   7   6
BRANCH   7   8
ATOM      8  C   UNL     1      45.571  17.103  22.096  0.00  0.00    +0.044 C 
BRANCH   8   9
ATOM      9  C   UNL     1      44.366  17.316  21.176  0.00  0.00    +0.199 C 
BRANCH   9  10
ATOM     10  O   UNL     1      43.451  18.225  21.792  0.00  0.00    -0.296 OA
BRANCH  10  11
ATOM     11  C   UNL     1      42.769  19.064  20.972  0.00  0.00    +0.205 A 
ATOM     12  C   UNL     1      43.458  20.003  20.214  0.00  0.00    -0.061 A 
ATOM     13  C   UNL     1      42.770  20.856  19.381  0.00  0.00    +0.129 A 
ATOM     14  C   UNL     1      41.378  20.777  19.298  0.00  0.00    -0.202 A 
ATOM     22  C   UNL     1      40.690  19.831  20.060  0.00  0.00    +0.131 A 
ATOM     23  C   UNL     1      41.386  18.978  20.888  0.00  0.00    +0.008 A 
BRANCH  14  15
ATOM     15  C   UNL     1      40.636  21.691  18.405  0.00  0.00    +0.604 C 
ATOM     16  N   UNL     1      41.181  22.850  18.037  0.00  0.00    -0.766 N 
ATOM     17  H   UNL     1      40.693  23.451  17.451  0.00  0.00    +0.434 HD
ATOM     18  H   UNL     1      42.063  23.093  18.354  0.00  0.00    +0.442 HD
ATOM     19  N   UNL     1      39.421  21.356  17.969  0.00  0.00    -0.764 N 
ATOM     20  H   UNL     1      38.934  21.957  17.383  0.00  0.00    +0.434 HD
ATOM     21  H   UNL     1      39.025  20.513  18.238  0.00  0.00    +0.444 HD
ENDBRANCH  14  15
ENDBRANCH  10  11
ENDBRANCH   9  10
ENDBRANCH   8   9
ENDBRANCH   7   8
TORSDOF 10
ENDMDL
MODEL 5
REMARK VINA RESULT:      -5.6      3.659      6.389
REMARK  Name = ZINC01530775
REMARK  10 active torsions:
REMARK  status: ('A' for Active; 'I' for Inactive)
REMARK    1  A    between atoms: C3_3  and  O1_10
REMARK    2  A    between atoms: C6_6  and  C7_7
REMARK    3  A    between atoms: O1_10  and  C8_11
REMARK    4  A    between atoms: C8_11  and  C9_12
REMARK    5  A    between atoms: C9_12  and  C10_13
REMARK    6  A    between atoms: C10_13  and  C11_14
REMARK    7  A    between atoms: C11_14  and  C12_15
REMARK    8  A    between atoms: C12_15  and  O2_16
REMARK    9  A    between atoms: O2_16  and  C13_17
REMARK   10  A    between atoms: C16_20  and  C19_23
REMARK                            x       y       z     vdW  Elec       q    Type
REMARK                         _______ _______ _______ _____ _____    ______ ____
ROOT
ATOM      7  C   UNL     1      46.493  16.447  20.006  0.00  0.00    +0.032 C 
ENDROOT
BRANCH   7   6
ATOM      6  C   UNL     1      47.015  17.505  20.979  0.00  0.00    +0.044 C 
BRANCH   6   5
ATOM      5  C   UNL     1      48.537  17.388  21.093  0.00  0.00    +0.199 C 
BRANCH   5   4
ATOM      4  O   UNL     1      49.118  18.694  21.089  0.00  0.00    -0.296 OA
BRANCH   4   3
ATOM      1  C   UNL     1      51.118  18.546  18.058  0.00  0.00    +0.131 A 
ATOM      2  C   UNL     1      50.470  18.156  19.210  0.00  0.00    +0.008 A 
ATOM      3  C   UNL     1      49.753  19.083  19.955  0.00  0.00    +0.205 A 
ATOM     24  C   UNL     1      49.686  20.408  19.543  0.00  0.00    -0.061 A 
ATOM     25  C   UNL     1      50.331  20.807  18.393  0.00  0.00    +0.129 A 
ATOM     26  C   UNL     1      51.053  19.877  17.641  0.00  0.00    -0.202 A 
BRANCH  26  27
ATOM     27  C   UNL     1      51.746  20.301  16.407  0.00  0.00    +0.604 C 
ATOM     28  N   UNL     1      52.446  19.416  15.699  0.00  0.00    -0.764 N 
ATOM     29  H   UNL     1      52.901  19.694  14.888  0.00  0.00    +0.434 HD
ATOM     30  H   UNL     1      52.501  18.493  15.993  0.00  0.00    +0.444 HD
ATOM     31  N   UNL     1      51.670  21.568  16.002  0.00  0.00    -0.766 N 
ATOM     32  H   UNL     1      52.125  21.846  15.191  0.00  0.00    +0.434 HD
ATOM     33  H   UNL     1      51.160  22.213  16.517  0.00  0.00    +0.442 HD
ENDBRANCH  26  27
ENDBRANCH   4   3
ENDBRANCH   5   4
ENDBRANCH   6   5
ENDBRANCH   7   6
BRANCH   7   8
ATOM      8  C   UNL     1      47.293  16.516  18.703  0.00  0.00    +0.044 C 
BRANCH   8   9
ATOM      9  C   UNL     1      46.937  17.802  17.954  0.00  0.00    +0.199 C 
BRANCH   9  10
ATOM     10  O   UNL     1      45.532  18.041  18.057  0.00  0.00    -0.296 OA
BRANCH  10  11
ATOM     11  C   UNL     1      45.145  19.261  18.508  0.00  0.00    +0.205 A 
ATOM     12  C   UNL     1      43.844  19.453  18.959  0.00  0.00    -0.061 A 
ATOM     13  C   UNL     1      43.448  20.690  19.416  0.00  0.00    +0.129 A 
ATOM     14  C   UNL     1      44.356  21.752  19.428  0.00  0.00    -0.202 A 
ATOM     22  C   UNL     1      45.662  21.555  18.975  0.00  0.00    +0.131 A 
ATOM     23  C   UNL     1      46.052  20.313  18.524  0.00  0.00    +0.008 A 
BRANCH  14  15
ATOM     15  C   UNL     1      43.935  23.081  19.918  0.00  0.00    +0.604 C 
ATOM     16  N   UNL     1      43.517  24.007  19.056  0.00  0.00    -0.766 N 
ATOM     17  H   UNL     1      43.241  24.880  19.377  0.00  0.00    +0.434 HD
ATOM     18  H   UNL     1      43.489  23.809  18.108  0.00  0.00    +0.442 HD
ATOM     19  N   UNL     1      43.973  23.353  21.223  0.00  0.00    -0.764 N 
ATOM     20  H   UNL     1      43.698  24.226  21.544  0.00  0.00    +0.434 HD
ATOM     21  H   UNL     1      44.278  22.679  21.849  0.00  0.00    +0.444 HD
ENDBRANCH  14  15
ENDBRANCH  10  11
ENDBRANCH   9  10
ENDBRANCH   8   9
ENDBRANCH   7   8
TORSDOF 10
ENDMDL
MODEL 6
REMARK VINA RESULT:      -5.5      6.777      8.907
REMARK  Name = ZINC01530775
REMARK  10 active torsions:
REMARK  status: ('A' for Active; 'I' for Inactive)
REMARK    1  A    between atoms: C3_3  and  O1_10
REMARK    2  A    between atoms: C6_6  and  C7_7
REMARK    3  A    between atoms: O1_10  and  C8_11
REMARK    4  A    between atoms: C8_11  and  C9_12
REMARK    5  A    between atoms: C9_12  and  C10_13
REMARK    6  A    between atoms: C10_13  and  C11_14
REMARK    7  A    between atoms: C11_14  and  C12_15
REMARK    8  A    between atoms: C12_15  and  O2_16
REMARK    9  A    between atoms: O2_16  and  C13_17
REMARK   10  A    between atoms: C16_20  and  C19_23
REMARK                            x       y       z     vdW  Elec       q    Type
REMARK                         _______ _______ _______ _____ _____    ______ ____
ROOT
ATOM      7  C   UNL     1      46.678  15.670  16.707  0.00  0.00    +0.032 C 
ENDROOT
BRANCH   7   6
ATOM      6  C   UNL     1      47.077  14.197  16.611  0.00  0.00    +0.044 C 
BRANCH   6   5
ATOM      5  C   UNL     1      48.603  14.078  16.643  0.00  0.00    +0.199 C 
BRANCH   5   4
ATOM      4  O   UNL     1      48.999  12.855  16.019  0.00  0.00    -0.296 OA
BRANCH   4   3
ATOM      1  C   UNL     1      49.204  13.017  12.394  0.00  0.00    +0.131 A 
ATOM      2  C   UNL     1      48.678  12.929  13.664  0.00  0.00    +0.008 A 
ATOM      3  C   UNL     1      49.520  12.942  14.769  0.00  0.00    +0.205 A 
ATOM     24  C   UNL     1      50.895  13.043  14.597  0.00  0.00    -0.061 A 
ATOM     25  C   UNL     1      51.428  13.131  13.330  0.00  0.00    +0.129 A 
ATOM     26  C   UNL     1      50.585  13.119  12.217  0.00  0.00    -0.202 A 
BRANCH  26  27
ATOM     27  C   UNL     1      51.153  13.212  10.857  0.00  0.00    +0.604 C 
ATOM     28  N   UNL     1      50.891  14.275  10.097  0.00  0.00    -0.764 N 
ATOM     29  H   UNL     1      51.264  14.337   9.203  0.00  0.00    +0.434 HD
ATOM     30  H   UNL     1      50.327  14.988  10.437  0.00  0.00    +0.444 HD
ATOM     31  N   UNL     1      51.928  12.235  10.390  0.00  0.00    -0.766 N 
ATOM     32  H   UNL     1      52.301  12.296   9.496  0.00  0.00    +0.434 HD
ATOM     33  H   UNL     1      52.120  11.461  10.942  0.00  0.00    +0.442 HD
ENDBRANCH  26  27
ENDBRANCH   4   3
ENDBRANCH   5   4
ENDBRANCH   6   5
ENDBRANCH   7   6
BRANCH   7   8
ATOM      8  C   UNL     1      47.556  16.368  17.748  0.00  0.00    +0.044 C 
BRANCH   8   9
ATOM      9  C   UNL     1      47.156  17.842  17.848  0.00  0.00    +0.199 C 
BRANCH   9  10
ATOM     10  O   UNL     1      45.780  17.938  18.221  0.00  0.00    -0.296 OA
BRANCH  10  11
ATOM     11  C   UNL     1      45.339  19.149  18.647  0.00  0.00    +0.205 A 
ATOM     12  C   UNL     1      46.148  20.270  18.504  0.00  0.00    -0.061 A 
ATOM     13  C   UNL     1      45.705  21.500  18.935  0.00  0.00    +0.129 A 
ATOM     14  C   UNL     1      44.441  21.620  19.517  0.00  0.00    -0.202 A 
ATOM     22  C   UNL     1      43.631  20.492  19.658  0.00  0.00    +0.131 A 
ATOM     23  C   UNL     1      44.079  19.265  19.219  0.00  0.00    +0.008 A 
BRANCH  14  15
ATOM     15  C   UNL     1      43.961  22.938  19.981  0.00  0.00    +0.604 C 
ATOM     16  N   UNL     1      43.992  23.239  21.279  0.00  0.00    -0.766 N 
ATOM     17  H   UNL     1      43.677  24.104  21.584  0.00  0.00    +0.434 HD
ATOM     18  H   UNL     1      44.329  22.593  21.918  0.00  0.00    +0.442 HD
ATOM     19  N   UNL     1      43.498  23.827  19.102  0.00  0.00    -0.764 N 
ATOM     20  H   UNL     1      43.183  24.692  19.407  0.00  0.00    +0.434 HD
ATOM     21  H   UNL     1      43.475  23.608  18.158  0.00  0.00    +0.444 HD
ENDBRANCH  14  15
ENDBRANCH  10  11
ENDBRANCH   9  10
ENDBRANCH   8   9
ENDBRANCH   7   8
TORSDOF 10
ENDMDL
MODEL 7
REMARK VINA RESULT:      -5.5      3.819      5.154
REMARK  Name = ZINC01530775
REMARK  10 active torsions:
REMARK  status: ('A' for Active; 'I' for Inactive)
REMARK    1  A    between atoms: C3_3  and  O1_10
REMARK    2  A    between atoms: C6_6  and  C7_7
REMARK    3  A    between atoms: O1_10  and  C8_11
REMARK    4  A    between atoms: C8_11  and  C9_12
REMARK    5  A    between atoms: C9_12  and  C10_13
REMARK    6  A    between atoms: C10_13  and  C11_14
REMARK    7  A    between atoms: C11_14  and  C12_15
REMARK    8  A    between atoms: C12_15  and  O2_16
REMARK    9  A    between atoms: O2_16  and  C13_17
REMARK   10  A    between atoms: C16_20  and  C19_23
REMARK                            x       y       z     vdW  Elec       q    Type
REMARK                         _______ _______ _______ _____ _____    ______ ____
ROOT
ATOM      7  C   UNL     1      46.999  16.838  21.145  0.00  0.00    +0.032 C 
ENDROOT
BRANCH   7   6
ATOM      6  C   UNL     1      45.996  16.795  19.991  0.00  0.00    +0.044 C 
BRANCH   6   5
ATOM      5  C   UNL     1      46.673  17.282  18.707  0.00  0.00    +0.199 C 
BRANCH   5   4
ATOM      4  O   UNL     1      45.731  18.010  17.918  0.00  0.00    -0.296 OA
BRANCH   4   3
ATOM      1  C   UNL     1      45.799  21.429  19.150  0.00  0.00    +0.131 A 
ATOM      2  C   UNL     1      46.225  20.217  18.651  0.00  0.00    +0.008 A 
ATOM      3  C   UNL     1      45.307  19.203  18.408  0.00  0.00    +0.205 A 
ATOM     24  C   UNL     1      43.957  19.406  18.665  0.00  0.00    -0.061 A 
ATOM     25  C   UNL     1      43.524  20.614  19.164  0.00  0.00    +0.129 A 
ATOM     26  C   UNL     1      44.443  21.637  19.410  0.00  0.00    -0.202 A 
BRANCH  26  27
ATOM     27  C   UNL     1      43.982  22.934  19.945  0.00  0.00    +0.604 C 
ATOM     28  N   UNL     1      43.425  23.830  19.130  0.00  0.00    -0.764 N 
ATOM     29  H   UNL     1      43.121  24.682  19.482  0.00  0.00    +0.434 HD
ATOM     30  H   UNL     1      43.322  23.630  18.186  0.00  0.00    +0.444 HD
ATOM     31  N   UNL     1      44.122  23.208  21.241  0.00  0.00    -0.766 N 
ATOM     32  H   UNL     1      43.819  24.061  21.592  0.00  0.00    +0.434 HD
ATOM     33  H   UNL     1      44.527  22.557  21.834  0.00  0.00    +0.442 HD
ENDBRANCH  26  27
ENDBRANCH   4   3
ENDBRANCH   5   4
ENDBRANCH   6   5
ENDBRANCH   7   6
BRANCH   7   8
ATOM      8  C   UNL     1      48.325  17.417  20.645  0.00  0.00    +0.044 C 
BRANCH   8   9
ATOM      9  C   UNL     1      48.622  18.724  21.385  0.00  0.00    +0.199 C 
BRANCH   9  10
ATOM     10  O   UNL     1      50.009  19.039  21.258  0.00  0.00    -0.296 OA
BRANCH  10  11
ATOM     11  C   UNL     1      50.441  19.443  20.037  0.00  0.00    +0.205 A 
ATOM     12  C   UNL     1      51.419  18.714  19.371  0.00  0.00    -0.061 A 
ATOM     13  C   UNL     1      51.859  19.121  18.132  0.00  0.00    +0.129 A 
ATOM     14  C   UNL     1      51.322  20.269  17.544  0.00  0.00    -0.202 A 
ATOM     22  C   UNL     1      50.339  20.998  18.216  0.00  0.00    +0.131 A 
ATOM     23  C   UNL     1      49.900  20.582  19.453  0.00  0.00    +0.008 A 
BRANCH  14  15
ATOM     15  C   UNL     1      51.792  20.709  16.214  0.00  0.00    +0.604 C 
ATOM     16  N   UNL     1      52.391  19.842  15.398  0.00  0.00    -0.766 N 
ATOM     17  H   UNL     1      52.700  20.132  14.526  0.00  0.00    +0.434 HD
ATOM     18  H   UNL     1      52.518  18.923  15.677  0.00  0.00    +0.442 HD
ATOM     19  N   UNL     1      51.618  21.974  15.831  0.00  0.00    -0.764 N 
ATOM     20  H   UNL     1      51.927  22.264  14.958  0.00  0.00    +0.434 HD
ATOM     21  H   UNL     1      51.183  22.605  16.425  0.00  0.00    +0.444 HD
ENDBRANCH  14  15
ENDBRANCH  10  11
ENDBRANCH   9  10
ENDBRANCH   8   9
ENDBRANCH   7   8
TORSDOF 10
ENDMDL
MODEL 8
REMARK VINA RESULT:      -5.4      3.382      6.115
REMARK  Name = ZINC01530775
REMARK  10 active torsions:
REMARK  status: ('A' for Active; 'I' for Inactive)
REMARK    1  A    between atoms: C3_3  and  O1_10
REMARK    2  A    between atoms: C6_6  and  C7_7
REMARK    3  A    between atoms: O1_10  and  C8_11
REMARK    4  A    between atoms: C8_11  and  C9_12
REMARK    5  A    between atoms: C9_12  and  C10_13
REMARK    6  A    between atoms: C10_13  and  C11_14
REMARK    7  A    between atoms: C11_14  and  C12_15
REMARK    8  A    between atoms: C12_15  and  O2_16
REMARK    9  A    between atoms: O2_16  and  C13_17
REMARK   10  A    between atoms: C16_20  and  C19_23
REMARK                            x       y       z     vdW  Elec       q    Type
REMARK                         _______ _______ _______ _____ _____    ______ ____
ROOT
ATOM      7  C   UNL     1      52.080  20.413  17.853  0.00  0.00    +0.032 C 
ENDROOT
BRANCH   7   6
ATOM      6  C   UNL     1      52.004  19.347  16.759  0.00  0.00    +0.044 C 
BRANCH   6   5
ATOM      5  C   UNL     1      51.699  17.987  17.391  0.00  0.00    +0.199 C 
BRANCH   5   4
ATOM      4  O   UNL     1      50.553  17.413  16.759  0.00  0.00    -0.296 OA
BRANCH   4   3
ATOM      1  C   UNL     1      48.491  16.666  19.656  0.00  0.00    +0.131 A 
ATOM      2  C   UNL     1      49.603  16.867  18.868  0.00  0.00    +0.008 A 
ATOM      3  C   UNL     1      49.455  17.217  17.532  0.00  0.00    +0.205 A 
ATOM     24  C   UNL     1      48.187  17.365  16.985  0.00  0.00    -0.061 A 
ATOM     25  C   UNL     1      47.071  17.166  17.766  0.00  0.00    +0.129 A 
ATOM     26  C   UNL     1      47.214  16.814  19.110  0.00  0.00    -0.202 A 
BRANCH  26  27
ATOM     27  C   UNL     1      46.019  16.599  19.951  0.00  0.00    +0.604 C 
ATOM     28  N   UNL     1      45.144  15.644  19.634  0.00  0.00    -0.764 N 
ATOM     29  H   UNL     1      44.360  15.503  20.187  0.00  0.00    +0.434 HD
ATOM     30  H   UNL     1      45.292  15.091  18.851  0.00  0.00    +0.444 HD
ATOM     31  N   UNL     1      45.816  17.358  21.027  0.00  0.00    -0.766 N 
ATOM     32  H   UNL     1      45.031  17.217  21.579  0.00  0.00    +0.434 HD
ATOM     33  H   UNL     1      46.452  18.053  21.258  0.00  0.00    +0.442 HD
ENDBRANCH  26  27
ENDBRANCH   4   3
ENDBRANCH   5   4
ENDBRANCH   6   5
ENDBRANCH   7   6
BRANCH   7   8
ATOM      8  C   UNL     1      50.709  21.075  18.015  0.00  0.00    +0.044 C 
BRANCH   8   9
ATOM      9  C   UNL     1      50.097  20.656  19.353  0.00  0.00    +0.199 C 
BRANCH   9  10
ATOM     10  O   UNL     1      48.829  20.038  19.125  0.00  0.00    -0.296 OA
BRANCH  10  11
ATOM     11  C   UNL     1      47.728  20.725  19.523  0.00  0.00    +0.205 A 
ATOM     12  C   UNL     1      47.729  21.388  20.744  0.00  0.00    -0.061 A 
ATOM     13  C   UNL     1      46.613  22.086  21.151  0.00  0.00    +0.129 A 
ATOM     14  C   UNL     1      45.481  22.127  20.335  0.00  0.00    -0.202 A 
ATOM     22  C   UNL     1      45.484  21.460  19.108  0.00  0.00    +0.131 A 
ATOM     23  C   UNL     1      46.606  20.768  18.705  0.00  0.00    +0.008 A 
BRANCH  14  15
ATOM     15  C   UNL     1      44.282  22.874  20.767  0.00  0.00    +0.604 C 
ATOM     16  N   UNL     1      43.281  23.081  19.912  0.00  0.00    -0.766 N 
ATOM     17  H   UNL     1      42.494  23.572  20.196  0.00  0.00    +0.434 HD
ATOM     18  H   UNL     1      43.340  22.741  19.006  0.00  0.00    +0.442 HD
ATOM     19  N   UNL     1      44.202  23.342  22.013  0.00  0.00    -0.764 N 
ATOM     20  H   UNL     1      43.415  23.833  22.297  0.00  0.00    +0.434 HD
ATOM     21  H   UNL     1      44.930  23.192  22.635  0.00  0.00    +0.444 HD
ENDBRANCH  14  15
ENDBRANCH  10  11
ENDBRANCH   9  10
ENDBRANCH   8   9
ENDBRANCH   7   8
TORSDOF 10
ENDMDL
MODEL 9
REMARK VINA RESULT:      -5.4      3.332      6.051
REMARK  Name = ZINC01530775
REMARK  10 active torsions:
REMARK  status: ('A' for Active; 'I' for Inactive)
REMARK    1  A    between atoms: C3_3  and  O1_10
REMARK    2  A    between atoms: C6_6  and  C7_7
REMARK    3  A    between atoms: O1_10  and  C8_11
REMARK    4  A    between atoms: C8_11  and  C9_12
REMARK    5  A    between atoms: C9_12  and  C10_13
REMARK    6  A    between atoms: C10_13  and  C11_14
REMARK    7  A    between atoms: C11_14  and  C12_15
REMARK    8  A    between atoms: C12_15  and  O2_16
REMARK    9  A    between atoms: O2_16  and  C13_17
REMARK   10  A    between atoms: C16_20  and  C19_23
REMARK                            x       y       z     vdW  Elec       q    Type
REMARK                         _______ _______ _______ _____ _____    ______ ____
ROOT
ATOM      7  C   UNL     1      50.432  20.895  18.089  0.00  0.00    +0.032 C 
ENDROOT
BRANCH   7   6
ATOM      6  C   UNL     1      51.332  19.821  17.475  0.00  0.00    +0.044 C 
BRANCH   6   5
ATOM      5  C   UNL     1      50.848  18.437  17.914  0.00  0.00    +0.199 C 
BRANCH   5   4
ATOM      4  O   UNL     1      49.794  18.005  17.052  0.00  0.00    -0.296 OA
BRANCH   4   3
ATOM      1  C   UNL     1      46.637  16.245  17.434  0.00  0.00    +0.131 A 
ATOM      2  C   UNL     1      47.709  16.881  16.847  0.00  0.00    +0.008 A 
ATOM      3  C   UNL     1      48.740  17.378  17.634  0.00  0.00    +0.205 A 
ATOM     24  C   UNL     1      48.695  17.237  19.015  0.00  0.00    -0.061 A 
ATOM     25  C   UNL     1      47.626  16.602  19.609  0.00  0.00    +0.129 A 
ATOM     26  C   UNL     1      46.588  16.101  18.821  0.00  0.00    -0.202 A 
BRANCH  26  27
ATOM     27  C   UNL     1      45.440  15.420  19.455  0.00  0.00    +0.604 C 
ATOM     28  N   UNL     1      45.153  14.159  19.133  0.00  0.00    -0.764 N 
ATOM     29  H   UNL     1      44.399  13.712  19.550  0.00  0.00    +0.434 HD
ATOM     30  H   UNL     1      45.697  13.688  18.483  0.00  0.00    +0.444 HD
ATOM     31  N   UNL     1      44.692  16.066  20.348  0.00  0.00    -0.766 N 
ATOM     32  H   UNL     1      43.938  15.619  20.765  0.00  0.00    +0.434 HD
ATOM     33  H   UNL     1      44.901  16.985  20.583  0.00  0.00    +0.442 HD
ENDBRANCH  26  27
ENDBRANCH   4   3
ENDBRANCH   5   4
ENDBRANCH   6   5
ENDBRANCH   7   6
BRANCH   7   8
ATOM      8  C   UNL     1      50.266  20.624  19.587  0.00  0.00    +0.044 C 
BRANCH   8   9
ATOM      9  C   UNL     1      48.788  20.746  19.965  0.00  0.00    +0.199 C 
BRANCH   9  10
ATOM     10  O   UNL     1      47.986  20.677  18.785  0.00  0.00    -0.296 OA
BRANCH  10  11
ATOM     11  C   UNL     1      46.639  20.719  18.951  0.00  0.00    +0.205 A 
ATOM     12  C   UNL     1      45.840  19.734  18.383  0.00  0.00    -0.061 A 
ATOM     13  C   UNL     1      44.474  19.775  18.549  0.00  0.00    +0.129 A 
ATOM     14  C   UNL     1      43.892  20.806  19.289  0.00  0.00    -0.202 A 
ATOM     22  C   UNL     1      44.699  21.793  19.859  0.00  0.00    +0.131 A 
ATOM     23  C   UNL     1      46.065  21.743  19.693  0.00  0.00    +0.008 A 
BRANCH  14  15
ATOM     15  C   UNL     1      42.426  20.853  19.469  0.00  0.00    +0.604 C 
ATOM     16  N   UNL     1      41.807  19.887  20.148  0.00  0.00    -0.766 N 
ATOM     17  H   UNL     1      40.845  19.917  20.266  0.00  0.00    +0.434 HD
ATOM     18  H   UNL     1      42.318  19.154  20.523  0.00  0.00    +0.442 HD
ATOM     19  N   UNL     1      41.723  21.861  18.953  0.00  0.00    -0.764 N 
ATOM     20  H   UNL     1      40.760  21.891  19.071  0.00  0.00    +0.434 HD
ATOM     21  H   UNL     1      42.173  22.563  18.459  0.00  0.00    +0.444 HD
ENDBRANCH  14  15
ENDBRANCH  10  11
ENDBRANCH   9  10
ENDBRANCH   8   9
ENDBRANCH   7   8
TORSDOF 10
ENDMDL
