MODEL 1
REMARK VINA RESULT:      -6.4      0.000      0.000
REMARK  Name = ZINC13382495
REMARK  10 active torsions:
REMARK  status: ('A' for Active; 'I' for Inactive)
REMARK    1  A    between atoms: C1_1  and  C2_2
REMARK    2  A    between atoms: C2_2  and  C24_30
REMARK    3  A    between atoms: C3_3  and  C4_4
REMARK    4  A    between atoms: C4_4  and  C5_5
REMARK    5  A    between atoms: C9_9  and  O2_13
REMARK    6  A    between atoms: C10_10  and  O1_11
REMARK    7  A    between atoms: O1_11  and  C11_12
REMARK    8  A    between atoms: C16_19  and  O5_23
REMARK    9  A    between atoms: C21_26  and  C22_28
REMARK   10  A    between atoms: C21_26  and  C23_29
REMARK                            x       y       z     vdW  Elec       q    Type
REMARK                         _______ _______ _______ _____ _____    ______ ____
ROOT
ATOM      6  C   UNL     1      45.857  14.694  18.626  0.00  0.00    +0.018 A 
ATOM      7  C   UNL     1      45.907  16.089  18.689  0.00  0.00    -0.224 A 
ATOM      8  C   UNL     1      46.350  16.836  17.586  0.00  0.00    +0.179 A 
ATOM      9  O   UNL     1      46.406  18.183  17.636  0.00  0.00    -0.223 OA
ATOM     10  C   UNL     1      46.040  18.905  18.716  0.00  0.00    +0.219 A 
ATOM     11  C   UNL     1      46.121  20.292  18.674  0.00  0.00    -0.030 A 
ATOM     12  C   UNL     1      45.761  21.045  19.774  0.00  0.00    +0.219 A 
ATOM     13  C   UNL     1      45.312  20.417  20.950  0.00  0.00    -0.195 A 
ATOM     14  C   UNL     1      44.942  21.263  22.104  0.00  0.00    +0.058 C 
ATOM     15  C   UNL     1      44.725  22.559  21.885  0.00  0.00    -0.049 C 
ATOM     16  C   UNL     1      44.848  23.118  20.493  0.00  0.00    +0.146 C 
ATOM     17  C   UNL     1      43.497  23.005  19.784  0.00  0.00    +0.039 C 
ATOM     18  C   UNL     1      45.252  24.592  20.575  0.00  0.00    +0.089 C 
ATOM     19  C   UNL     1      45.224  19.030  21.010  0.00  0.00    +0.251 A 
ATOM     22  O   UNL     1      45.833  22.401  19.748  0.00  0.00    -0.294 OA
ATOM     23  C   UNL     1      45.587  18.272  19.887  0.00  0.00    -0.287 A 
ATOM     24  C   UNL     1      46.729  16.171  16.426  0.00  0.00    -0.013 A 
ATOM     25  C   UNL     1      46.674  14.791  16.367  0.00  0.00    +0.164 A 
ATOM     28  C   UNL     1      45.502  16.803  19.915  0.00  0.00    +0.442 A 
ATOM     29  O   UNL     1      45.116  16.205  20.903  0.00  0.00    -0.424 OA
ATOM     30  C   UNL     1      46.236  14.050  17.467  0.00  0.00    +0.039 A 
ENDROOT
BRANCH  19  20
ATOM     20  O   UNL     1      44.790  18.418  22.140  0.00  0.00    -0.468 OA
ATOM     21  H   UNL     1      45.412  17.769  22.498  0.00  0.00    +0.403 HD
ENDBRANCH  19  20
BRANCH  25  26
ATOM     26  O   UNL     1      47.046  14.151  15.228  0.00  0.00    -0.477 OA
ATOM     27  H   UNL     1      46.489  14.351  14.463  0.00  0.00    +0.398 HD
ENDBRANCH  25  26
BRANCH  30  31
ATOM     31  O   UNL     1      46.185  12.692  17.396  0.00  0.00    -0.312 OA
ATOM     32  C   UNL     1      44.965  12.113  16.926  0.00  0.00    +0.221 C 
ENDBRANCH  30  31
BRANCH   6   5
ATOM      5  C   UNL     1      45.386  13.898  19.816  0.00  0.00    +0.131 C 
BRANCH   5   4
ATOM      1  C   UNL     1      45.170  13.084  22.504  0.00  0.00    +0.075 C 
ATOM      2  C   UNL     1      46.485  12.952  21.780  0.00  0.00    -0.129 C 
ATOM      3  C   UNL     1      47.696  12.425  22.505  0.00  0.00    +0.073 C 
ATOM      4  C   UNL     1      46.574  13.294  20.518  0.00  0.00    -0.037 C 
ENDBRANCH   5   4
ENDBRANCH   6   5
TORSDOF 5
ENDMDL
MODEL 2
REMARK VINA RESULT:      -5.9      3.848      5.152
REMARK  Name = ZINC13382495
REMARK  10 active torsions:
REMARK  status: ('A' for Active; 'I' for Inactive)
REMARK    1  A    between atoms: C1_1  and  C2_2
REMARK    2  A    between atoms: C2_2  and  C24_30
REMARK    3  A    between atoms: C3_3  and  C4_4
REMARK    4  A    between atoms: C4_4  and  C5_5
REMARK    5  A    between atoms: C9_9  and  O2_13
REMARK    6  A    between atoms: C10_10  and  O1_11
REMARK    7  A    between atoms: O1_11  and  C11_12
REMARK    8  A    between atoms: C16_19  and  O5_23
REMARK    9  A    between atoms: C21_26  and  C22_28
REMARK   10  A    between atoms: C21_26  and  C23_29
REMARK                            x       y       z     vdW  Elec       q    Type
REMARK                         _______ _______ _______ _____ _____    ______ ____
ROOT
ATOM      6  C   UNL     1      49.648  18.706  20.041  0.00  0.00    +0.018 A 
ATOM      7  C   UNL     1      48.395  19.287  19.828  0.00  0.00    -0.224 A 
ATOM      8  C   UNL     1      48.279  20.475  19.091  0.00  0.00    +0.179 A 
ATOM      9  O   UNL     1      47.075  21.048  18.881  0.00  0.00    -0.223 OA
ATOM     10  C   UNL     1      45.915  20.533  19.339  0.00  0.00    +0.219 A 
ATOM     11  C   UNL     1      44.718  21.186  19.065  0.00  0.00    -0.030 A 
ATOM     12  C   UNL     1      43.524  20.679  19.536  0.00  0.00    +0.219 A 
ATOM     13  C   UNL     1      43.504  19.497  20.300  0.00  0.00    -0.195 A 
ATOM     14  C   UNL     1      42.203  18.994  20.786  0.00  0.00    +0.058 C 
ATOM     15  C   UNL     1      41.096  19.467  20.216  0.00  0.00    -0.049 C 
ATOM     16  C   UNL     1      41.195  20.476  19.103  0.00  0.00    +0.146 C 
ATOM     17  C   UNL     1      41.298  19.741  17.765  0.00  0.00    +0.039 C 
ATOM     18  C   UNL     1      39.941  21.352  19.102  0.00  0.00    +0.089 C 
ATOM     19  C   UNL     1      44.691  18.830  20.583  0.00  0.00    +0.251 A 
ATOM     22  O   UNL     1      42.346  21.304  19.275  0.00  0.00    -0.294 OA
ATOM     23  C   UNL     1      45.900  19.349  20.099  0.00  0.00    -0.287 A 
ATOM     24  C   UNL     1      49.424  21.063  18.567  0.00  0.00    -0.013 A 
ATOM     25  C   UNL     1      50.661  20.483  18.776  0.00  0.00    +0.164 A 
ATOM     28  C   UNL     1      47.174  18.667  20.376  0.00  0.00    +0.442 A 
ATOM     29  O   UNL     1      47.219  17.639  21.028  0.00  0.00    -0.424 OA
ATOM     30  C   UNL     1      50.775  19.302  19.514  0.00  0.00    +0.039 A 
ENDROOT
BRANCH  19  20
ATOM     20  O   UNL     1      44.680  17.691  21.318  0.00  0.00    -0.468 OA
ATOM     21  H   UNL     1      44.973  16.906  20.834  0.00  0.00    +0.403 HD
ENDBRANCH  19  20
BRANCH  25  26
ATOM     26  O   UNL     1      51.774  21.065  18.261  0.00  0.00    -0.477 OA
ATOM     27  H   UNL     1      51.619  21.552  17.439  0.00  0.00    +0.398 HD
ENDBRANCH  25  26
BRANCH  30  31
ATOM     31  O   UNL     1      51.998  18.739  19.712  0.00  0.00    -0.312 OA
ATOM     32  C   UNL     1      52.613  18.110  18.585  0.00  0.00    +0.221 C 
ENDBRANCH  30  31
BRANCH   6   5
ATOM      5  C   UNL     1      49.767  17.432  20.837  0.00  0.00    +0.131 C 
BRANCH   5   4
ATOM      1  C   UNL     1      51.721  15.427  21.159  0.00  0.00    +0.075 C 
ATOM      2  C   UNL     1      50.734  15.343  20.024  0.00  0.00    -0.129 C 
ATOM      3  C   UNL     1      50.818  14.209  19.035  0.00  0.00    +0.073 C 
ATOM      4  C   UNL     1      49.801  16.254  19.898  0.00  0.00    -0.037 C 
ENDBRANCH   5   4
ENDBRANCH   6   5
TORSDOF 5
ENDMDL
MODEL 3
REMARK VINA RESULT:      -5.9      2.782      8.329
REMARK  Name = ZINC13382495
REMARK  10 active torsions:
REMARK  status: ('A' for Active; 'I' for Inactive)
REMARK    1  A    between atoms: C1_1  and  C2_2
REMARK    2  A    between atoms: C2_2  and  C24_30
REMARK    3  A    between atoms: C3_3  and  C4_4
REMARK    4  A    between atoms: C4_4  and  C5_5
REMARK    5  A    between atoms: C9_9  and  O2_13
REMARK    6  A    between atoms: C10_10  and  O1_11
REMARK    7  A    between atoms: O1_11  and  C11_12
REMARK    8  A    between atoms: C16_19  and  O5_23
REMARK    9  A    between atoms: C21_26  and  C22_28
REMARK   10  A    between atoms: C21_26  and  C23_29
REMARK                            x       y       z     vdW  Elec       q    Type
REMARK                         _______ _______ _______ _____ _____    ______ ____
ROOT
ATOM      6  C   UNL     1      46.830  19.554  19.312  0.00  0.00    +0.018 A 
ATOM      7  C   UNL     1      46.866  18.232  18.860  0.00  0.00    -0.224 A 
ATOM      8  C   UNL     1      45.751  17.395  19.017  0.00  0.00    +0.179 A 
ATOM      9  O   UNL     1      45.775  16.116  18.588  0.00  0.00    -0.223 OA
ATOM     10  C   UNL     1      46.840  15.555  17.977  0.00  0.00    +0.219 A 
ATOM     11  C   UNL     1      46.771  14.231  17.557  0.00  0.00    -0.030 A 
ATOM     12  C   UNL     1      47.856  13.639  16.941  0.00  0.00    +0.219 A 
ATOM     13  C   UNL     1      49.042  14.367  16.735  0.00  0.00    -0.195 A 
ATOM     14  C   UNL     1      50.178  13.690  16.075  0.00  0.00    +0.058 C 
ATOM     15  C   UNL     1      49.935  12.561  15.411  0.00  0.00    -0.049 C 
ATOM     16  C   UNL     1      48.533  12.017  15.341  0.00  0.00    +0.146 C 
ATOM     17  C   UNL     1      47.821  12.618  14.126  0.00  0.00    +0.039 C 
ATOM     18  C   UNL     1      48.588  10.496  15.191  0.00  0.00    +0.089 C 
ATOM     19  C   UNL     1      49.128  15.692  17.147  0.00  0.00    +0.251 A 
ATOM     22  O   UNL     1      47.804  12.347  16.524  0.00  0.00    -0.294 OA
ATOM     23  C   UNL     1      48.022  16.288  17.769  0.00  0.00    -0.287 A 
ATOM     24  C   UNL     1      44.605  17.900  19.620  0.00  0.00    -0.013 A 
ATOM     25  C   UNL     1      44.571  19.209  20.062  0.00  0.00    +0.164 A 
ATOM     28  C   UNL     1      48.077  17.690  18.214  0.00  0.00    +0.442 A 
ATOM     29  O   UNL     1      49.075  18.370  18.058  0.00  0.00    -0.424 OA
ATOM     30  C   UNL     1      45.684  20.039  19.908  0.00  0.00    +0.039 A 
ENDROOT
BRANCH  19  20
ATOM     20  O   UNL     1      50.268  16.400  16.951  0.00  0.00    -0.468 OA
ATOM     21  H   UNL     1      51.064  15.967  17.290  0.00  0.00    +0.403 HD
ENDBRANCH  19  20
BRANCH  25  26
ATOM     26  O   UNL     1      43.447  19.693  20.650  0.00  0.00    -0.477 OA
ATOM     27  H   UNL     1      43.613  20.217  21.446  0.00  0.00    +0.398 HD
ENDBRANCH  25  26
BRANCH  30  31
ATOM     31  O   UNL     1      45.639  21.327  20.346  0.00  0.00    -0.312 OA
ATOM     32  C   UNL     1      45.056  22.291  19.466  0.00  0.00    +0.221 C 
ENDBRANCH  30  31
BRANCH   6   5
ATOM      5  C   UNL     1      48.033  20.445  19.145  0.00  0.00    +0.131 C 
BRANCH   5   4
ATOM      1  C   UNL     1      50.794  21.006  19.201  0.00  0.00    +0.075 C 
ATOM      2  C   UNL     1      50.041  20.796  20.489  0.00  0.00    -0.129 C 
ATOM      3  C   UNL     1      50.772  20.842  21.806  0.00  0.00    +0.073 C 
ATOM      4  C   UNL     1      48.749  20.575  20.464  0.00  0.00    -0.037 C 
ENDBRANCH   5   4
ENDBRANCH   6   5
TORSDOF 5
ENDMDL
MODEL 4
REMARK VINA RESULT:      -5.8      4.238      6.340
REMARK  Name = ZINC13382495
REMARK  10 active torsions:
REMARK  status: ('A' for Active; 'I' for Inactive)
REMARK    1  A    between atoms: C1_1  and  C2_2
REMARK    2  A    between atoms: C2_2  and  C24_30
REMARK    3  A    between atoms: C3_3  and  C4_4
REMARK    4  A    between atoms: C4_4  and  C5_5
REMARK    5  A    between atoms: C9_9  and  O2_13
REMARK    6  A    between atoms: C10_10  and  O1_11
REMARK    7  A    between atoms: O1_11  and  C11_12
REMARK    8  A    between atoms: C16_19  and  O5_23
REMARK    9  A    between atoms: C21_26  and  C22_28
REMARK   10  A    between atoms: C21_26  and  C23_29
REMARK                            x       y       z     vdW  Elec       q    Type
REMARK                         _______ _______ _______ _____ _____    ______ ____
ROOT
ATOM      6  C   UNL     1      48.312  13.267  16.542  0.00  0.00    +0.018 A 
ATOM      7  C   UNL     1      48.565  14.510  17.128  0.00  0.00    -0.224 A 
ATOM      8  C   UNL     1      47.592  15.132  17.926  0.00  0.00    +0.179 A 
ATOM      9  O   UNL     1      47.824  16.333  18.494  0.00  0.00    -0.223 OA
ATOM     10  C   UNL     1      48.982  17.012  18.357  0.00  0.00    +0.219 A 
ATOM     11  C   UNL     1      49.136  18.241  18.989  0.00  0.00    -0.030 A 
ATOM     12  C   UNL     1      50.310  18.954  18.849  0.00  0.00    +0.219 A 
ATOM     13  C   UNL     1      51.362  18.446  18.064  0.00  0.00    -0.195 A 
ATOM     14  C   UNL     1      52.598  19.246  17.939  0.00  0.00    +0.058 C 
ATOM     15  C   UNL     1      52.803  20.224  18.821  0.00  0.00    -0.049 C 
ATOM     16  C   UNL     1      51.794  20.478  19.909  0.00  0.00    +0.146 C 
ATOM     17  C   UNL     1      52.139  19.617  21.126  0.00  0.00    +0.039 C 
ATOM     18  C   UNL     1      51.843  21.955  20.307  0.00  0.00    +0.089 C 
ATOM     19  C   UNL     1      51.225  17.218  17.425  0.00  0.00    +0.251 A 
ATOM     22  O   UNL     1      50.477  20.155  19.461  0.00  0.00    -0.294 OA
ATOM     23  C   UNL     1      50.031  16.499  17.574  0.00  0.00    -0.287 A 
ATOM     24  C   UNL     1      46.377  14.491  18.135  0.00  0.00    -0.013 A 
ATOM     25  C   UNL     1      46.132  13.260  17.556  0.00  0.00    +0.164 A 
ATOM     28  C   UNL     1      49.855  15.194  16.916  0.00  0.00    +0.442 A 
ATOM     29  O   UNL     1      50.732  14.703  16.228  0.00  0.00    -0.424 OA
ATOM     30  C   UNL     1      47.100  12.645  16.759  0.00  0.00    +0.039 A 
ENDROOT
BRANCH  19  20
ATOM     20  O   UNL     1      52.235  16.723  16.667  0.00  0.00    -0.468 OA
ATOM     21  H   UNL     1      52.005  16.602  15.736  0.00  0.00    +0.403 HD
ENDBRANCH  19  20
BRANCH  25  26
ATOM     26  O   UNL     1      44.941  12.642  17.766  0.00  0.00    -0.477 OA
ATOM     27  H   UNL     1      44.190  13.248  17.838  0.00  0.00    +0.398 HD
ENDBRANCH  25  26
BRANCH  30  31
ATOM     31  O   UNL     1      46.848  11.431  16.197  0.00  0.00    -0.312 OA
ATOM     32  C   UNL     1      47.087  10.278  17.008  0.00  0.00    +0.221 C 
ENDBRANCH  30  31
BRANCH   6   5
ATOM      5  C   UNL     1      49.359  12.607  15.682  0.00  0.00    +0.131 C 
BRANCH   5   4
ATOM      1  C   UNL     1      51.412  12.511  13.754  0.00  0.00    +0.075 C 
ATOM      2  C   UNL     1      50.002  12.843  13.339  0.00  0.00    -0.129 C 
ATOM      3  C   UNL     1      49.696  13.167  11.899  0.00  0.00    +0.073 C 
ATOM      4  C   UNL     1      49.040  12.849  14.229  0.00  0.00    -0.037 C 
ENDBRANCH   5   4
ENDBRANCH   6   5
TORSDOF 5
ENDMDL
MODEL 5
REMARK VINA RESULT:      -5.7      3.048      3.653
REMARK  Name = ZINC13382495
REMARK  10 active torsions:
REMARK  status: ('A' for Active; 'I' for Inactive)
REMARK    1  A    between atoms: C1_1  and  C2_2
REMARK    2  A    between atoms: C2_2  and  C24_30
REMARK    3  A    between atoms: C3_3  and  C4_4
REMARK    4  A    between atoms: C4_4  and  C5_5
REMARK    5  A    between atoms: C9_9  and  O2_13
REMARK    6  A    between atoms: C10_10  and  O1_11
REMARK    7  A    between atoms: O1_11  and  C11_12
REMARK    8  A    between atoms: C16_19  and  O5_23
REMARK    9  A    between atoms: C21_26  and  C22_28
REMARK   10  A    between atoms: C21_26  and  C23_29
REMARK                            x       y       z     vdW  Elec       q    Type
REMARK                         _______ _______ _______ _____ _____    ______ ____
ROOT
ATOM      6  C   UNL     1      48.592  15.821  19.433  0.00  0.00    +0.018 A 
ATOM      7  C   UNL     1      47.587  16.765  19.205  0.00  0.00    -0.224 A 
ATOM      8  C   UNL     1      47.741  17.741  18.209  0.00  0.00    +0.179 A 
ATOM      9  O   UNL     1      46.779  18.660  17.981  0.00  0.00    -0.223 OA
ATOM     10  C   UNL     1      45.616  18.707  18.664  0.00  0.00    +0.219 A 
ATOM     11  C   UNL     1      44.677  19.684  18.354  0.00  0.00    -0.030 A 
ATOM     12  C   UNL     1      43.488  19.754  19.052  0.00  0.00    +0.219 A 
ATOM     13  C   UNL     1      43.215  18.839  20.086  0.00  0.00    -0.195 A 
ATOM     14  C   UNL     1      41.931  18.955  20.809  0.00  0.00    +0.058 C 
ATOM     15  C   UNL     1      40.961  19.676  20.249  0.00  0.00    -0.049 C 
ATOM     16  C   UNL     1      41.187  20.335  18.914  0.00  0.00    +0.146 C 
ATOM     17  C   UNL     1      40.796  19.362  17.801  0.00  0.00    +0.039 C 
ATOM     18  C   UNL     1      40.317  21.589  18.816  0.00  0.00    +0.089 C 
ATOM     19  C   UNL     1      44.143  17.855  20.410  0.00  0.00    +0.251 A 
ATOM     22  O   UNL     1      42.559  20.700  18.760  0.00  0.00    -0.294 OA
ATOM     23  C   UNL     1      45.347  17.789  19.695  0.00  0.00    -0.287 A 
ATOM     24  C   UNL     1      48.901  17.752  17.444  0.00  0.00    -0.013 A 
ATOM     25  C   UNL     1      49.891  16.814  17.670  0.00  0.00    +0.164 A 
ATOM     28  C   UNL     1      46.349  16.758  20.008  0.00  0.00    +0.442 A 
ATOM     29  O   UNL     1      46.167  15.937  20.890  0.00  0.00    -0.424 OA
ATOM     30  C   UNL     1      49.737  15.846  18.666  0.00  0.00    +0.039 A 
ENDROOT
BRANCH  19  20
ATOM     20  O   UNL     1      43.887  16.970  21.405  0.00  0.00    -0.468 OA
ATOM     21  H   UNL     1      42.953  16.917  21.653  0.00  0.00    +0.403 HD
ENDBRANCH  19  20
BRANCH  25  26
ATOM     26  O   UNL     1      51.022  16.833  16.918  0.00  0.00    -0.477 OA
ATOM     27  H   UNL     1      50.890  17.162  16.018  0.00  0.00    +0.398 HD
ENDBRANCH  25  26
BRANCH  30  31
ATOM     31  O   UNL     1      50.718  14.927  18.878  0.00  0.00    -0.312 OA
ATOM     32  C   UNL     1      51.792  15.312  19.739  0.00  0.00    +0.221 C 
ENDBRANCH  30  31
BRANCH   6   5
ATOM      5  C   UNL     1      48.423  14.779  20.508  0.00  0.00    +0.131 C 
BRANCH   5   4
ATOM      1  C   UNL     1      49.881  12.541  21.405  0.00  0.00    +0.075 C 
ATOM      2  C   UNL     1      48.911  12.399  20.262  0.00  0.00    -0.129 C 
ATOM      3  C   UNL     1      48.751  11.071  19.568  0.00  0.00    +0.073 C 
ATOM      4  C   UNL     1      48.203  13.431  19.871  0.00  0.00    -0.037 C 
ENDBRANCH   5   4
ENDBRANCH   6   5
TORSDOF 5
ENDMDL
MODEL 6
REMARK VINA RESULT:      -5.5      4.011      5.544
REMARK  Name = ZINC13382495
REMARK  10 active torsions:
REMARK  status: ('A' for Active; 'I' for Inactive)
REMARK    1  A    between atoms: C1_1  and  C2_2
REMARK    2  A    between atoms: C2_2  and  C24_30
REMARK    3  A    between atoms: C3_3  and  C4_4
REMARK    4  A    between atoms: C4_4  and  C5_5
REMARK    5  A    between atoms: C9_9  and  O2_13
REMARK    6  A    between atoms: C10_10  and  O1_11
REMARK    7  A    between atoms: O1_11  and  C11_12
REMARK    8  A    between atoms: C16_19  and  O5_23
REMARK    9  A    between atoms: C21_26  and  C22_28
REMARK   10  A    between atoms: C21_26  and  C23_29
REMARK                            x       y       z     vdW  Elec       q    Type
REMARK                         _______ _______ _______ _____ _____    ______ ____
ROOT
ATOM      6  C   UNL     1      50.060  12.639  16.043  0.00  0.00    +0.018 A 
ATOM      7  C   UNL     1      49.313  13.758  16.420  0.00  0.00    -0.224 A 
ATOM      8  C   UNL     1      47.913  13.746  16.317  0.00  0.00    +0.179 A 
ATOM      9  O   UNL     1      47.181  14.822  16.675  0.00  0.00    -0.223 OA
ATOM     10  C   UNL     1      47.718  15.962  17.158  0.00  0.00    +0.219 A 
ATOM     11  C   UNL     1      46.884  17.017  17.512  0.00  0.00    -0.030 A 
ATOM     12  C   UNL     1      47.418  18.194  17.997  0.00  0.00    +0.219 A 
ATOM     13  C   UNL     1      48.811  18.340  18.136  0.00  0.00    -0.195 A 
ATOM     14  C   UNL     1      49.337  19.619  18.656  0.00  0.00    +0.058 C 
ATOM     15  C   UNL     1      48.490  20.438  19.278  0.00  0.00    -0.049 C 
ATOM     16  C   UNL     1      47.047  20.043  19.443  0.00  0.00    +0.146 C 
ATOM     17  C   UNL     1      46.887  19.257  20.746  0.00  0.00    +0.039 C 
ATOM     18  C   UNL     1      46.183  21.304  19.507  0.00  0.00    +0.089 C 
ATOM     19  C   UNL     1      49.660  17.295  17.788  0.00  0.00    +0.251 A 
ATOM     22  O   UNL     1      46.618  19.233  18.348  0.00  0.00    -0.294 OA
ATOM     23  C   UNL     1      49.110  16.101  17.299  0.00  0.00    -0.287 A 
ATOM     24  C   UNL     1      47.278  12.604  15.846  0.00  0.00    -0.013 A 
ATOM     25  C   UNL     1      48.020  11.497  15.478  0.00  0.00    +0.164 A 
ATOM     28  C   UNL     1      49.979  14.973  16.926  0.00  0.00    +0.442 A 
ATOM     29  O   UNL     1      51.191  15.040  17.029  0.00  0.00    -0.424 OA
ATOM     30  C   UNL     1      49.414  11.513  15.577  0.00  0.00    +0.039 A 
ENDROOT
BRANCH  19  20
ATOM     20  O   UNL     1      51.003  17.428  17.920  0.00  0.00    -0.468 OA
ATOM     21  H   UNL     1      51.502  17.191  17.126  0.00  0.00    +0.403 HD
ENDBRANCH  19  20
BRANCH  25  26
ATOM     26  O   UNL     1      47.390  10.386  15.019  0.00  0.00    -0.477 OA
ATOM     27  H   UNL     1      47.976   9.755  14.577  0.00  0.00    +0.398 HD
ENDBRANCH  25  26
BRANCH  30  31
ATOM     31  O   UNL     1      50.134  10.417  15.214  0.00  0.00    -0.312 OA
ATOM     32  C   UNL     1      50.586  10.358  13.859  0.00  0.00    +0.221 C 
ENDBRANCH  30  31
BRANCH   6   5
ATOM      5  C   UNL     1      51.563  12.660  16.150  0.00  0.00    +0.131 C 
BRANCH   5   4
ATOM      1  C   UNL     1      53.459  10.576  16.102  0.00  0.00    +0.075 C 
ATOM      2  C   UNL     1      52.836  10.998  17.407  0.00  0.00    -0.129 C 
ATOM      3  C   UNL     1      53.193  10.277  18.681  0.00  0.00    +0.073 C 
ATOM      4  C   UNL     1      51.984  11.994  17.434  0.00  0.00    -0.037 C 
ENDBRANCH   5   4
ENDBRANCH   6   5
TORSDOF 5
ENDMDL
MODEL 7
REMARK VINA RESULT:      -5.5      2.063      4.199
REMARK  Name = ZINC13382495
REMARK  10 active torsions:
REMARK  status: ('A' for Active; 'I' for Inactive)
REMARK    1  A    between atoms: C1_1  and  C2_2
REMARK    2  A    between atoms: C2_2  and  C24_30
REMARK    3  A    between atoms: C3_3  and  C4_4
REMARK    4  A    between atoms: C4_4  and  C5_5
REMARK    5  A    between atoms: C9_9  and  O2_13
REMARK    6  A    between atoms: C10_10  and  O1_11
REMARK    7  A    between atoms: O1_11  and  C11_12
REMARK    8  A    between atoms: C16_19  and  O5_23
REMARK    9  A    between atoms: C21_26  and  C22_28
REMARK   10  A    between atoms: C21_26  and  C23_29
REMARK                            x       y       z     vdW  Elec       q    Type
REMARK                         _______ _______ _______ _____ _____    ______ ____
ROOT
ATOM      6  C   UNL     1      47.604  13.294  18.703  0.00  0.00    +0.018 A 
ATOM      7  C   UNL     1      47.228  14.478  19.342  0.00  0.00    -0.224 A 
ATOM      8  C   UNL     1      47.309  14.588  20.739  0.00  0.00    +0.179 A 
ATOM      9  O   UNL     1      46.946  15.725  21.369  0.00  0.00    -0.223 OA
ATOM     10  C   UNL     1      46.498  16.823  20.725  0.00  0.00    +0.219 A 
ATOM     11  C   UNL     1      46.156  17.955  21.456  0.00  0.00    -0.030 A 
ATOM     12  C   UNL     1      45.685  19.083  20.814  0.00  0.00    +0.219 A 
ATOM     13  C   UNL     1      45.544  19.098  19.414  0.00  0.00    -0.195 A 
ATOM     14  C   UNL     1      45.032  20.326  18.770  0.00  0.00    +0.058 C 
ATOM     15  C   UNL     1      45.047  21.456  19.476  0.00  0.00    -0.049 C 
ATOM     16  C   UNL     1      45.585  21.457  20.882  0.00  0.00    +0.146 C 
ATOM     17  C   UNL     1      47.090  21.728  20.844  0.00  0.00    +0.039 C 
ATOM     18  C   UNL     1      44.895  22.561  21.685  0.00  0.00    +0.089 C 
ATOM     19  C   UNL     1      45.882  17.975  18.666  0.00  0.00    +0.251 A 
ATOM     22  O   UNL     1      45.348  20.198  21.513  0.00  0.00    -0.294 OA
ATOM     23  C   UNL     1      46.363  16.834  19.325  0.00  0.00    -0.287 A 
ATOM     24  C   UNL     1      47.779  13.509  21.478  0.00  0.00    -0.013 A 
ATOM     25  C   UNL     1      48.154  12.341  20.841  0.00  0.00    +0.164 A 
ATOM     28  C   UNL     1      46.733  15.630  18.565  0.00  0.00    +0.442 A 
ATOM     29  O   UNL     1      46.637  15.586  17.352  0.00  0.00    -0.424 OA
ATOM     30  C   UNL     1      48.068  12.232  19.451  0.00  0.00    +0.039 A 
ENDROOT
BRANCH  19  20
ATOM     20  O   UNL     1      45.749  17.982  17.317  0.00  0.00    -0.468 OA
ATOM     21  H   UNL     1      44.848  18.155  17.011  0.00  0.00    +0.403 HD
ENDBRANCH  19  20
BRANCH  25  26
ATOM     26  O   UNL     1      48.611  11.292  21.572  0.00  0.00    -0.477 OA
ATOM     27  H   UNL     1      48.729  11.489  22.512  0.00  0.00    +0.398 HD
ENDBRANCH  25  26
BRANCH  30  31
ATOM     31  O   UNL     1      48.442  11.078  18.835  0.00  0.00    -0.312 OA
ATOM     32  C   UNL     1      49.825  10.940  18.499  0.00  0.00    +0.221 C 
ENDBRANCH  30  31
BRANCH   6   5
ATOM      5  C   UNL     1      47.509  13.179  17.203  0.00  0.00    +0.131 C 
BRANCH   5   4
ATOM      1  C   UNL     1      47.837  11.169  15.256  0.00  0.00    +0.075 C 
ATOM      2  C   UNL     1      46.494  11.377  15.906  0.00  0.00    -0.129 C 
ATOM      3  C   UNL     1      45.313  10.540  15.485  0.00  0.00    +0.073 C 
ATOM      4  C   UNL     1      46.351  12.286  16.840  0.00  0.00    -0.037 C 
ENDBRANCH   5   4
ENDBRANCH   6   5
TORSDOF 5
ENDMDL
MODEL 8
REMARK VINA RESULT:      -5.5      2.982      3.859
REMARK  Name = ZINC13382495
REMARK  10 active torsions:
REMARK  status: ('A' for Active; 'I' for Inactive)
REMARK    1  A    between atoms: C1_1  and  C2_2
REMARK    2  A    between atoms: C2_2  and  C24_30
REMARK    3  A    between atoms: C3_3  and  C4_4
REMARK    4  A    between atoms: C4_4  and  C5_5
REMARK    5  A    between atoms: C9_9  and  O2_13
REMARK    6  A    between atoms: C10_10  and  O1_11
REMARK    7  A    between atoms: O1_11  and  C11_12
REMARK    8  A    between atoms: C16_19  and  O5_23
REMARK    9  A    between atoms: C21_26  and  C22_28
REMARK   10  A    between atoms: C21_26  and  C23_29
REMARK                            x       y       z     vdW  Elec       q    Type
REMARK                         _______ _______ _______ _____ _____    ______ ____
ROOT
ATOM      6  C   UNL     1      49.373  14.763  16.973  0.00  0.00    +0.018 A 
ATOM      7  C   UNL     1      48.474  15.783  17.296  0.00  0.00    -0.224 A 
ATOM      8  C   UNL     1      47.134  15.706  16.887  0.00  0.00    +0.179 A 
ATOM      9  O   UNL     1      46.257  16.686  17.189  0.00  0.00    -0.223 OA
ATOM     10  C   UNL     1      46.584  17.785  17.902  0.00  0.00    +0.219 A 
ATOM     11  C   UNL     1      45.611  18.740  18.176  0.00  0.00    -0.030 A 
ATOM     12  C   UNL     1      45.932  19.875  18.894  0.00  0.00    +0.219 A 
ATOM     13  C   UNL     1      47.246  20.079  19.352  0.00  0.00    -0.195 A 
ATOM     14  C   UNL     1      47.544  21.311  20.112  0.00  0.00    +0.058 C 
ATOM     15  C   UNL     1      46.520  21.998  20.618  0.00  0.00    -0.049 C 
ATOM     16  C   UNL     1      45.112  21.505  20.416  0.00  0.00    +0.146 C 
ATOM     17  C   UNL     1      44.744  20.554  21.557  0.00  0.00    +0.039 C 
ATOM     18  C   UNL     1      44.154  22.698  20.426  0.00  0.00    +0.089 C 
ATOM     19  C   UNL     1      48.232  19.135  19.088  0.00  0.00    +0.251 A 
ATOM     22  O   UNL     1      44.993  20.816  19.171  0.00  0.00    -0.294 OA
ATOM     23  C   UNL     1      47.899  17.983  18.361  0.00  0.00    -0.287 A 
ATOM     24  C   UNL     1      46.709  14.598  16.164  0.00  0.00    -0.013 A 
ATOM     25  C   UNL     1      47.601  13.589  15.851  0.00  0.00    +0.164 A 
ATOM     28  C   UNL     1      48.916  16.961  18.067  0.00  0.00    +0.442 A 
ATOM     29  O   UNL     1      50.069  17.082  18.442  0.00  0.00    -0.424 OA
ATOM     30  C   UNL     1      48.935  13.670  16.256  0.00  0.00    +0.039 A 
ENDROOT
BRANCH  19  20
ATOM     20  O   UNL     1      49.501  19.325  19.527  0.00  0.00    -0.468 OA
ATOM     21  H   UNL     1      49.608  19.211  20.482  0.00  0.00    +0.403 HD
ENDBRANCH  19  20
BRANCH  25  26
ATOM     26  O   UNL     1      47.175  12.510  15.144  0.00  0.00    -0.477 OA
ATOM     27  H   UNL     1      47.493  12.488  14.230  0.00  0.00    +0.398 HD
ENDBRANCH  25  26
BRANCH  30  31
ATOM     31  O   UNL     1      49.803  12.670  15.942  0.00  0.00    -0.312 OA
ATOM     32  C   UNL     1      50.450  12.748  14.670  0.00  0.00    +0.221 C 
ENDBRANCH  30  31
BRANCH   6   5
ATOM      5  C   UNL     1      50.812  14.854  17.411  0.00  0.00    +0.131 C 
BRANCH   5   4
ATOM      1  C   UNL     1      53.002  15.273  19.134  0.00  0.00    +0.075 C 
ATOM      2  C   UNL     1      52.082  14.101  19.356  0.00  0.00    -0.129 C 
ATOM      3  C   UNL     1      52.357  13.127  20.472  0.00  0.00    +0.073 C 
ATOM      4  C   UNL     1      51.041  13.929  18.578  0.00  0.00    -0.037 C 
ENDBRANCH   5   4
ENDBRANCH   6   5
TORSDOF 5
ENDMDL
MODEL 9
REMARK VINA RESULT:      -5.5      4.181      5.678
REMARK  Name = ZINC13382495
REMARK  10 active torsions:
REMARK  status: ('A' for Active; 'I' for Inactive)
REMARK    1  A    between atoms: C1_1  and  C2_2
REMARK    2  A    between atoms: C2_2  and  C24_30
REMARK    3  A    between atoms: C3_3  and  C4_4
REMARK    4  A    between atoms: C4_4  and  C5_5
REMARK    5  A    between atoms: C9_9  and  O2_13
REMARK    6  A    between atoms: C10_10  and  O1_11
REMARK    7  A    between atoms: O1_11  and  C11_12
REMARK    8  A    between atoms: C16_19  and  O5_23
REMARK    9  A    between atoms: C21_26  and  C22_28
REMARK   10  A    between atoms: C21_26  and  C23_29
REMARK                            x       y       z     vdW  Elec       q    Type
REMARK                         _______ _______ _______ _____ _____    ______ ____
ROOT
ATOM      6  C   UNL     1      50.866  18.014  19.244  0.00  0.00    +0.018 A 
ATOM      7  C   UNL     1      49.520  18.275  18.971  0.00  0.00    -0.224 A 
ATOM      8  C   UNL     1      48.847  17.561  17.968  0.00  0.00    +0.179 A 
ATOM      9  O   UNL     1      47.549  17.805  17.693  0.00  0.00    -0.223 OA
ATOM     10  C   UNL     1      46.808  18.723  18.350  0.00  0.00    +0.219 A 
ATOM     11  C   UNL     1      45.472  18.900  18.005  0.00  0.00    -0.030 A 
ATOM     12  C   UNL     1      44.703  19.842  18.659  0.00  0.00    +0.219 A 
ATOM     13  C   UNL     1      45.264  20.635  19.678  0.00  0.00    -0.195 A 
ATOM     14  C   UNL     1      44.404  21.634  20.347  0.00  0.00    +0.058 C 
ATOM     15  C   UNL     1      43.084  21.518  20.208  0.00  0.00    -0.049 C 
ATOM     16  C   UNL     1      42.510  20.387  19.396  0.00  0.00    +0.146 C 
ATOM     17  C   UNL     1      42.292  19.176  20.306  0.00  0.00    +0.039 C 
ATOM     18  C   UNL     1      41.168  20.820  18.805  0.00  0.00    +0.089 C 
ATOM     19  C   UNL     1      46.597  20.471  20.036  0.00  0.00    +0.251 A 
ATOM     22  O   UNL     1      43.397  20.027  18.337  0.00  0.00    -0.294 OA
ATOM     23  C   UNL     1      47.371  19.510  19.370  0.00  0.00    -0.287 A 
ATOM     24  C   UNL     1      49.531  16.583  17.256  0.00  0.00    -0.013 A 
ATOM     25  C   UNL     1      50.861  16.326  17.532  0.00  0.00    +0.164 A 
ATOM     28  C   UNL     1      48.785  19.307  19.726  0.00  0.00    +0.442 A 
ATOM     29  O   UNL     1      49.322  19.960  20.603  0.00  0.00    -0.424 OA
ATOM     30  C   UNL     1      51.531  17.041  18.528  0.00  0.00    +0.039 A 
ENDROOT
BRANCH  19  20
ATOM     20  O   UNL     1      47.144  21.231  21.017  0.00  0.00    -0.468 OA
ATOM     21  H   UNL     1      46.684  21.168  21.866  0.00  0.00    +0.403 HD
ENDBRANCH  19  20
BRANCH  25  26
ATOM     26  O   UNL     1      51.522  15.369  16.829  0.00  0.00    -0.477 OA
ATOM     27  H   UNL     1      51.115  15.154  15.979  0.00  0.00    +0.398 HD
ENDBRANCH  25  26
BRANCH  30  31
ATOM     31  O   UNL     1      52.840  16.778  18.791  0.00  0.00    -0.312 OA
ATOM     32  C   UNL     1      53.116  15.697  19.686  0.00  0.00    +0.221 C 
ENDBRANCH  30  31
BRANCH   6   5
ATOM      5  C   UNL     1      51.585  18.788  20.318  0.00  0.00    +0.131 C 
BRANCH   5   4
ATOM      1  C   UNL     1      52.450  20.889  21.985  0.00  0.00    +0.075 C 
ATOM      2  C   UNL     1      52.578  21.012  20.489  0.00  0.00    -0.129 C 
ATOM      3  C   UNL     1      53.128  22.276  19.880  0.00  0.00    +0.073 C 
ATOM      4  C   UNL     1      52.212  20.019  19.716  0.00  0.00    -0.037 C 
ENDBRANCH   5   4
ENDBRANCH   6   5
TORSDOF 5
ENDMDL
