MODEL 1
REMARK VINA RESULT:      -7.8      0.000      0.000
REMARK  Name = ZINC95486263
REMARK  10 active torsions:
REMARK  status: ('A' for Active; 'I' for Inactive)
REMARK    1  A    between atoms: C3_3  and  O11_41
REMARK    2  A    between atoms: C4_4  and  O5_20
REMARK    3  A    between atoms: C6_6  and  C7_7
REMARK    4  A    between atoms: C11_12  and  O4_19
REMARK    5  A    between atoms: C13_14  and  O3_18
REMARK    6  A    between atoms: O5_20  and  C16_21
REMARK    7  A    between atoms: C19_24  and  C22_28
REMARK    8  A    between atoms: C21_26  and  O6_27
REMARK    9  A    between atoms: C26_33  and  O10_40
REMARK   10  A    between atoms: C28_35  and  O9_39
REMARK                            x       y       z     vdW  Elec       q    Type
REMARK                         _______ _______ _______ _____ _____    ______ ____
ROOT
ATOM      7  O   UNL     1      46.826  14.788  18.001  0.00  0.00    -0.239 OA
ENDROOT
BRANCH   7   6
ATOM      1  C   UNL     1      44.557  16.522  20.998  0.00  0.00    +0.054 A 
ATOM      2  C   UNL     1      44.883  15.185  21.066  0.00  0.00    +0.043 A 
ATOM      3  C   UNL     1      45.643  14.599  20.063  0.00  0.00    +0.115 A 
ATOM      6  C   UNL     1      46.081  15.363  18.981  0.00  0.00    +0.100 A 
ATOM     31  C   UNL     1      45.757  16.704  18.906  0.00  0.00    +0.004 A 
ATOM     32  C   UNL     1      44.992  17.293  19.917  0.00  0.00    -0.044 A 
BRANCH  32  33
ATOM     33  C   UNL     1      44.643  18.724  19.842  0.00  0.00    +0.205 A 
ATOM     34  C   UNL     1      45.561  19.643  20.245  0.00  0.00    -0.138 A 
ATOM     35  C   UNL     1      45.245  21.020  20.180  0.00  0.00    +0.423 A 
ATOM     36  C   UNL     1      43.913  21.386  19.669  0.00  0.00    -0.266 A 
ATOM     37  C   UNL     1      43.515  22.725  19.569  0.00  0.00    +0.220 A 
ATOM     40  C   UNL     1      42.256  23.028  19.082  0.00  0.00    -0.054 A 
ATOM     41  C   UNL     1      41.394  22.008  18.697  0.00  0.00    +0.193 A 
ATOM     44  C   UNL     1      41.780  20.680  18.793  0.00  0.00    -0.032 A 
ATOM     45  C   UNL     1      43.039  20.357  19.277  0.00  0.00    +0.184 A 
ATOM     46  O   UNL     1      46.044  21.873  20.534  0.00  0.00    -0.451 OA
ATOM     47  O   UNL     1      43.434  19.070  19.373  0.00  0.00    -0.218 OA
BRANCH  37  38
ATOM     38  O   UNL     1      44.358  23.719  19.947  0.00  0.00    -0.472 OA
ATOM     39  H   UNL     1      44.518  23.759  20.899  0.00  0.00    +0.403 HD
ENDBRANCH  37  38
BRANCH  41  42
ATOM     42  O   UNL     1      40.160  22.315  18.221  0.00  0.00    -0.487 OA
ATOM     43  H   UNL     1      40.100  23.192  17.819  0.00  0.00    +0.403 HD
ENDBRANCH  41  42
ENDBRANCH  32  33
BRANCH   3   4
ATOM      4  O   UNL     1      45.962  13.282  20.135  0.00  0.00    -0.482 OA
ATOM      5  H   UNL     1      46.232  12.895  19.290  0.00  0.00    +0.395 HD
ENDBRANCH   3   4
ENDBRANCH   7   6
BRANCH   7   8
ATOM      8  C   UNL     1      48.140  14.548  18.254  0.00  0.00    +0.073 A 
ATOM      9  C   UNL     1      48.985  15.601  18.579  0.00  0.00    +0.043 A 
ATOM     10  C   UNL     1      50.317  15.363  18.836  0.00  0.00    +0.073 A 
ATOM     11  C   UNL     1      50.820  14.062  18.772  0.00  0.00    -0.047 A 
ATOM     27  C   UNL     1      49.970  13.001  18.446  0.00  0.00    +0.055 A 
ATOM     28  C   UNL     1      48.634  13.246  18.194  0.00  0.00    +0.106 A 
BRANCH  11  12
ATOM     12  C   UNL     1      52.247  13.805  19.047  0.00  0.00    +0.201 A 
ATOM     13  C   UNL     1      52.693  12.520  19.043  0.00  0.00    -0.133 A 
ATOM     14  C   UNL     1      54.058  12.255  19.305  0.00  0.00    +0.422 A 
ATOM     15  C   UNL     1      54.933  13.409  19.573  0.00  0.00    -0.266 A 
ATOM     16  C   UNL     1      56.298  13.239  19.842  0.00  0.00    +0.220 A 
ATOM     19  C   UNL     1      57.086  14.348  20.089  0.00  0.00    -0.053 A 
ATOM     20  C   UNL     1      56.526  15.621  20.070  0.00  0.00    +0.194 A 
ATOM     23  C   UNL     1      55.177  15.796  19.804  0.00  0.00    -0.029 A 
ATOM     24  C   UNL     1      54.371  14.696  19.554  0.00  0.00    +0.183 A 
ATOM     25  O   UNL     1      54.493  11.115  19.307  0.00  0.00    -0.449 OA
ATOM     26  O   UNL     1      53.056  14.849  19.289  0.00  0.00    -0.218 OA
BRANCH  16  17
ATOM     17  O   UNL     1      56.842  11.996  19.861  0.00  0.00    -0.472 OA
ATOM     18  H   UNL     1      56.489  11.403  19.184  0.00  0.00    +0.404 HD
ENDBRANCH  16  17
BRANCH  20  21
ATOM     21  O   UNL     1      57.308  16.703  20.314  0.00  0.00    -0.487 OA
ATOM     22  H   UNL     1      56.975  17.525  19.930  0.00  0.00    +0.404 HD
ENDBRANCH  20  21
ENDBRANCH  11  12
BRANCH  28  29
ATOM     29  O   UNL     1      47.801  12.217  17.881  0.00  0.00    -0.484 OA
ATOM     30  H   UNL     1      46.967  12.495  17.479  0.00  0.00    +0.401 HD
ENDBRANCH  28  29
ENDBRANCH   7   8
TORSDOF 10
ENDMDL
MODEL 2
REMARK VINA RESULT:      -7.7      3.128      5.170
REMARK  Name = ZINC95486263
REMARK  10 active torsions:
REMARK  status: ('A' for Active; 'I' for Inactive)
REMARK    1  A    between atoms: C3_3  and  O11_41
REMARK    2  A    between atoms: C4_4  and  O5_20
REMARK    3  A    between atoms: C6_6  and  C7_7
REMARK    4  A    between atoms: C11_12  and  O4_19
REMARK    5  A    between atoms: C13_14  and  O3_18
REMARK    6  A    between atoms: O5_20  and  C16_21
REMARK    7  A    between atoms: C19_24  and  C22_28
REMARK    8  A    between atoms: C21_26  and  O6_27
REMARK    9  A    between atoms: C26_33  and  O10_40
REMARK   10  A    between atoms: C28_35  and  O9_39
REMARK                            x       y       z     vdW  Elec       q    Type
REMARK                         _______ _______ _______ _____ _____    ______ ____
ROOT
ATOM      7  O   UNL     1      49.633  20.189  18.400  0.00  0.00    -0.239 OA
ENDROOT
BRANCH   7   6
ATOM      1  C   UNL     1      47.401  20.778  21.837  0.00  0.00    +0.054 A 
ATOM      2  C   UNL     1      48.758  21.017  21.847  0.00  0.00    +0.043 A 
ATOM      3  C   UNL     1      49.510  20.821  20.696  0.00  0.00    +0.115 A 
ATOM      6  C   UNL     1      48.895  20.380  19.525  0.00  0.00    +0.100 A 
ATOM     31  C   UNL     1      47.534  20.137  19.509  0.00  0.00    +0.004 A 
ATOM     32  C   UNL     1      46.777  20.336  20.667  0.00  0.00    -0.044 A 
BRANCH  32  33
ATOM     33  C   UNL     1      45.325  20.079  20.655  0.00  0.00    +0.205 A 
ATOM     34  C   UNL     1      44.832  19.072  21.425  0.00  0.00    -0.138 A 
ATOM     35  C   UNL     1      43.442  18.812  21.427  0.00  0.00    +0.423 A 
ATOM     36  C   UNL     1      42.592  19.663  20.578  0.00  0.00    -0.266 A 
ATOM     37  C   UNL     1      41.205  19.477  20.518  0.00  0.00    +0.220 A 
ATOM     40  C   UNL     1      40.441  20.298  19.709  0.00  0.00    -0.054 A 
ATOM     41  C   UNL     1      41.049  21.300  18.961  0.00  0.00    +0.193 A 
ATOM     44  C   UNL     1      42.420  21.490  19.014  0.00  0.00    -0.032 A 
ATOM     45  C   UNL     1      43.203  20.677  19.820  0.00  0.00    +0.184 A 
ATOM     46  O   UNL     1      42.965  17.916  22.106  0.00  0.00    -0.451 OA
ATOM     47  O   UNL     1      44.540  20.852  19.888  0.00  0.00    -0.218 OA
BRANCH  37  38
ATOM     38  O   UNL     1      40.615  18.498  21.249  0.00  0.00    -0.472 OA
ATOM     39  H   UNL     1      39.873  18.067  20.803  0.00  0.00    +0.403 HD
ENDBRANCH  37  38
BRANCH  41  42
ATOM     42  O   UNL     1      40.290  22.101  18.169  0.00  0.00    -0.487 OA
ATOM     43  H   UNL     1      39.508  22.461  18.608  0.00  0.00    +0.403 HD
ENDBRANCH  41  42
ENDBRANCH  32  33
BRANCH   3   4
ATOM      4  O   UNL     1      50.847  21.058  20.711  0.00  0.00    -0.482 OA
ATOM      5  H   UNL     1      51.386  20.285  20.491  0.00  0.00    +0.395 HD
ENDBRANCH   3   4
ENDBRANCH   7   6
BRANCH   7   8
ATOM      8  C   UNL     1      50.016  18.922  18.095  0.00  0.00    +0.073 A 
ATOM      9  C   UNL     1      49.072  17.997  17.667  0.00  0.00    +0.043 A 
ATOM     10  C   UNL     1      49.456  16.711  17.357  0.00  0.00    +0.073 A 
ATOM     11  C   UNL     1      50.797  16.334  17.472  0.00  0.00    -0.047 A 
ATOM     27  C   UNL     1      51.747  17.265  17.902  0.00  0.00    +0.055 A 
ATOM     28  C   UNL     1      51.356  18.554  18.206  0.00  0.00    +0.106 A 
BRANCH  11  12
ATOM     12  C   UNL     1      51.209  14.957  17.141  0.00  0.00    +0.201 A 
ATOM     13  C   UNL     1      51.870  14.228  18.081  0.00  0.00    -0.133 A 
ATOM     14  C   UNL     1      52.274  12.906  17.781  0.00  0.00    +0.422 A 
ATOM     15  C   UNL     1      51.949  12.386  16.442  0.00  0.00    -0.266 A 
ATOM     16  C   UNL     1      52.311  11.087  16.059  0.00  0.00    +0.220 A 
ATOM     19  C   UNL     1      51.987  10.636  14.793  0.00  0.00    -0.053 A 
ATOM     20  C   UNL     1      51.309  11.466  13.907  0.00  0.00    +0.194 A 
ATOM     23  C   UNL     1      50.949  12.751  14.279  0.00  0.00    -0.029 A 
ATOM     24  C   UNL     1      51.264  13.222  15.545  0.00  0.00    +0.183 A 
ATOM     25  O   UNL     1      52.867  12.223  18.600  0.00  0.00    -0.449 OA
ATOM     26  O   UNL     1      50.916  14.470  15.925  0.00  0.00    -0.218 OA
BRANCH  16  17
ATOM     17  O   UNL     1      52.973  10.279  16.925  0.00  0.00    -0.472 OA
ATOM     18  H   UNL     1      52.396   9.800  17.536  0.00  0.00    +0.404 HD
ENDBRANCH  16  17
BRANCH  20  21
ATOM     21  O   UNL     1      50.998  11.013  12.666  0.00  0.00    -0.487 OA
ATOM     22  H   UNL     1      50.325  10.319  12.658  0.00  0.00    +0.404 HD
ENDBRANCH  20  21
ENDBRANCH  11  12
BRANCH  28  29
ATOM     29  O   UNL     1      52.278  19.465  18.620  0.00  0.00    -0.484 OA
ATOM     30  H   UNL     1      52.918  19.713  17.938  0.00  0.00    +0.401 HD
ENDBRANCH  28  29
ENDBRANCH   7   8
TORSDOF 10
ENDMDL
MODEL 3
REMARK VINA RESULT:      -7.5      3.880      5.858
REMARK  Name = ZINC95486263
REMARK  10 active torsions:
REMARK  status: ('A' for Active; 'I' for Inactive)
REMARK    1  A    between atoms: C3_3  and  O11_41
REMARK    2  A    between atoms: C4_4  and  O5_20
REMARK    3  A    between atoms: C6_6  and  C7_7
REMARK    4  A    between atoms: C11_12  and  O4_19
REMARK    5  A    between atoms: C13_14  and  O3_18
REMARK    6  A    between atoms: O5_20  and  C16_21
REMARK    7  A    between atoms: C19_24  and  C22_28
REMARK    8  A    between atoms: C21_26  and  O6_27
REMARK    9  A    between atoms: C26_33  and  O10_40
REMARK   10  A    between atoms: C28_35  and  O9_39
REMARK                            x       y       z     vdW  Elec       q    Type
REMARK                         _______ _______ _______ _____ _____    ______ ____
ROOT
ATOM      7  O   UNL     1      50.750  20.101  19.461  0.00  0.00    -0.239 OA
ENDROOT
BRANCH   7   6
ATOM      1  C   UNL     1      47.943  21.650  22.081  0.00  0.00    +0.054 A 
ATOM      2  C   UNL     1      49.236  21.433  22.505  0.00  0.00    +0.043 A 
ATOM      3  C   UNL     1      50.180  20.913  21.630  0.00  0.00    +0.115 A 
ATOM      6  C   UNL     1      49.824  20.609  20.316  0.00  0.00    +0.100 A 
ATOM     31  C   UNL     1      48.529  20.824  19.884  0.00  0.00    +0.004 A 
ATOM     32  C   UNL     1      47.579  21.348  20.766  0.00  0.00    -0.044 A 
BRANCH  32  33
ATOM     33  C   UNL     1      46.196  21.580  20.310  0.00  0.00    +0.205 A 
ATOM     34  C   UNL     1      45.850  22.821  19.873  0.00  0.00    -0.138 A 
ATOM     35  C   UNL     1      44.528  23.062  19.432  0.00  0.00    +0.423 A 
ATOM     36  C   UNL     1      43.584  21.932  19.471  0.00  0.00    -0.266 A 
ATOM     37  C   UNL     1      42.255  22.079  19.052  0.00  0.00    +0.220 A 
ATOM     40  C   UNL     1      41.400  20.994  19.104  0.00  0.00    -0.054 A 
ATOM     41  C   UNL     1      41.859  19.766  19.568  0.00  0.00    +0.193 A 
ATOM     44  C   UNL     1      43.171  19.612  19.984  0.00  0.00    -0.032 A 
ATOM     45  C   UNL     1      44.044  20.689  19.940  0.00  0.00    +0.184 A 
ATOM     46  O   UNL     1      44.182  24.163  19.034  0.00  0.00    -0.451 OA
ATOM     47  O   UNL     1      45.328  20.556  20.336  0.00  0.00    -0.218 OA
BRANCH  37  38
ATOM     38  O   UNL     1      41.810  23.279  18.600  0.00  0.00    -0.472 OA
ATOM     39  H   UNL     1      42.501  23.835  18.215  0.00  0.00    +0.403 HD
ENDBRANCH  37  38
BRANCH  41  42
ATOM     42  O   UNL     1      41.011  18.706  19.615  0.00  0.00    -0.487 OA
ATOM     43  H   UNL     1      40.455  18.612  18.830  0.00  0.00    +0.403 HD
ENDBRANCH  41  42
ENDBRANCH  32  33
BRANCH   3   4
ATOM      4  O   UNL     1      51.453  20.701  22.053  0.00  0.00    -0.482 OA
ATOM      5  H   UNL     1      51.631  19.788  22.322  0.00  0.00    +0.395 HD
ENDBRANCH   3   4
ENDBRANCH   7   6
BRANCH   7   8
ATOM      8  C   UNL     1      50.476  18.918  18.852  0.00  0.00    +0.073 A 
ATOM      9  C   UNL     1      49.985  17.854  19.597  0.00  0.00    +0.043 A 
ATOM     10  C   UNL     1      49.705  16.652  18.984  0.00  0.00    +0.073 A 
ATOM     11  C   UNL     1      49.916  16.502  17.611  0.00  0.00    -0.047 A 
ATOM     27  C   UNL     1      50.410  17.573  16.861  0.00  0.00    +0.055 A 
ATOM     28  C   UNL     1      50.683  18.777  17.481  0.00  0.00    +0.106 A 
BRANCH  11  12
ATOM     12  C   UNL     1      49.618  15.216  16.953  0.00  0.00    +0.201 A 
ATOM     13  C   UNL     1      48.346  14.735  17.003  0.00  0.00    -0.133 A 
ATOM     14  C   UNL     1      48.041  13.503  16.378  0.00  0.00    +0.422 A 
ATOM     15  C   UNL     1      49.141  12.799  15.697  0.00  0.00    -0.266 A 
ATOM     16  C   UNL     1      48.929  11.573  15.051  0.00  0.00    +0.220 A 
ATOM     19  C   UNL     1      49.987  10.943  14.422  0.00  0.00    -0.053 A 
ATOM     20  C   UNL     1      51.251  11.524  14.432  0.00  0.00    +0.194 A 
ATOM     23  C   UNL     1      51.467  12.736  15.069  0.00  0.00    -0.029 A 
ATOM     24  C   UNL     1      50.419  13.382  15.705  0.00  0.00    +0.183 A 
ATOM     25  O   UNL     1      46.911  13.042  16.402  0.00  0.00    -0.449 OA
ATOM     26  O   UNL     1      50.610  14.566  16.325  0.00  0.00    -0.218 OA
BRANCH  16  17
ATOM     17  O   UNL     1      47.695  11.008  15.043  0.00  0.00    -0.472 OA
ATOM     18  H   UNL     1      47.260  11.026  14.180  0.00  0.00    +0.404 HD
ENDBRANCH  16  17
BRANCH  20  21
ATOM     21  O   UNL     1      52.283  10.897  13.813  0.00  0.00    -0.487 OA
ATOM     22  H   UNL     1      52.842  10.377  14.407  0.00  0.00    +0.404 HD
ENDBRANCH  20  21
ENDBRANCH  11  12
BRANCH  28  29
ATOM     29  O   UNL     1      51.159  19.824  16.754  0.00  0.00    -0.484 OA
ATOM     30  H   UNL     1      51.557  19.568  15.911  0.00  0.00    +0.401 HD
ENDBRANCH  28  29
ENDBRANCH   7   8
TORSDOF 10
ENDMDL
MODEL 4
REMARK VINA RESULT:      -7.4      3.523      5.907
REMARK  Name = ZINC95486263
REMARK  10 active torsions:
REMARK  status: ('A' for Active; 'I' for Inactive)
REMARK    1  A    between atoms: C3_3  and  O11_41
REMARK    2  A    between atoms: C4_4  and  O5_20
REMARK    3  A    between atoms: C6_6  and  C7_7
REMARK    4  A    between atoms: C11_12  and  O4_19
REMARK    5  A    between atoms: C13_14  and  O3_18
REMARK    6  A    between atoms: O5_20  and  C16_21
REMARK    7  A    between atoms: C19_24  and  C22_28
REMARK    8  A    between atoms: C21_26  and  O6_27
REMARK    9  A    between atoms: C26_33  and  O10_40
REMARK   10  A    between atoms: C28_35  and  O9_39
REMARK                            x       y       z     vdW  Elec       q    Type
REMARK                         _______ _______ _______ _____ _____    ______ ____
ROOT
ATOM      7  O   UNL     1      51.650  19.599  19.618  0.00  0.00    -0.239 OA
ENDROOT
BRANCH   7   6
ATOM      1  C   UNL     1      48.809  21.314  22.094  0.00  0.00    +0.054 A 
ATOM      2  C   UNL     1      50.145  21.384  22.426  0.00  0.00    +0.043 A 
ATOM      3  C   UNL     1      51.100  20.809  21.598  0.00  0.00    +0.115 A 
ATOM      6  C   UNL     1      50.712  20.159  20.427  0.00  0.00    +0.100 A 
ATOM     31  C   UNL     1      49.374  20.085  20.089  0.00  0.00    +0.004 A 
ATOM     32  C   UNL     1      48.413  20.664  20.922  0.00  0.00    -0.044 A 
BRANCH  32  33
ATOM     33  C   UNL     1      46.984  20.588  20.566  0.00  0.00    +0.205 A 
ATOM     34  C   UNL     1      46.368  19.374  20.582  0.00  0.00    -0.138 A 
ATOM     35  C   UNL     1      44.998  19.283  20.244  0.00  0.00    +0.423 A 
ATOM     36  C   UNL     1      44.303  20.531  19.888  0.00  0.00    -0.266 A 
ATOM     37  C   UNL     1      42.946  20.534  19.540  0.00  0.00    +0.220 A 
ATOM     40  C   UNL     1      42.329  21.727  19.212  0.00  0.00    -0.054 A 
ATOM     41  C   UNL     1      43.053  22.914  19.228  0.00  0.00    +0.193 A 
ATOM     44  C   UNL     1      44.396  22.919  19.570  0.00  0.00    -0.032 A 
ATOM     45  C   UNL     1      45.032  21.733  19.903  0.00  0.00    +0.184 A 
ATOM     46  O   UNL     1      44.414  18.210  20.247  0.00  0.00    -0.451 OA
ATOM     47  O   UNL     1      46.338  21.720  20.244  0.00  0.00    -0.218 OA
BRANCH  37  38
ATOM     38  O   UNL     1      42.242  19.374  19.525  0.00  0.00    -0.472 OA
ATOM     39  H   UNL     1      41.612  19.306  18.794  0.00  0.00    +0.403 HD
ENDBRANCH  37  38
BRANCH  41  42
ATOM     42  O   UNL     1      42.438  24.081  18.904  0.00  0.00    -0.487 OA
ATOM     43  H   UNL     1      41.585  23.967  18.464  0.00  0.00    +0.403 HD
ENDBRANCH  41  42
ENDBRANCH  32  33
BRANCH   3   4
ATOM      4  O   UNL     1      52.415  20.881  21.929  0.00  0.00    -0.482 OA
ATOM      5  H   UNL     1      52.920  21.514  21.400  0.00  0.00    +0.395 HD
ENDBRANCH   3   4
ENDBRANCH   7   6
BRANCH   7   8
ATOM      8  C   UNL     1      51.316  18.470  18.940  0.00  0.00    +0.073 A 
ATOM      9  C   UNL     1      51.038  17.301  19.636  0.00  0.00    +0.043 A 
ATOM     10  C   UNL     1      50.698  16.154  18.952  0.00  0.00    +0.073 A 
ATOM     11  C   UNL     1      50.632  16.165  17.557  0.00  0.00    -0.047 A 
ATOM     27  C   UNL     1      50.912  17.342  16.856  0.00  0.00    +0.055 A 
ATOM     28  C   UNL     1      51.246  18.490  17.548  0.00  0.00    +0.106 A 
BRANCH  11  12
ATOM     12  C   UNL     1      50.269  14.938  16.824  0.00  0.00    +0.201 A 
ATOM     13  C   UNL     1      48.953  14.615  16.700  0.00  0.00    -0.133 A 
ATOM     14  C   UNL     1      48.586  13.441  16.001  0.00  0.00    +0.422 A 
ATOM     15  C   UNL     1      49.672  12.621  15.436  0.00  0.00    -0.266 A 
ATOM     16  C   UNL     1      49.399  11.443  14.727  0.00  0.00    +0.220 A 
ATOM     19  C   UNL     1      50.447  10.702  14.212  0.00  0.00    -0.053 A 
ATOM     20  C   UNL     1      51.759  11.124  14.397  0.00  0.00    +0.194 A 
ATOM     23  C   UNL     1      52.034  12.288  15.097  0.00  0.00    -0.029 A 
ATOM     24  C   UNL     1      50.998  13.045  15.621  0.00  0.00    +0.183 A 
ATOM     25  O   UNL     1      47.416  13.121  15.869  0.00  0.00    -0.449 OA
ATOM     26  O   UNL     1      51.249  14.185  16.300  0.00  0.00    -0.218 OA
BRANCH  16  17
ATOM     17  O   UNL     1      48.118  11.033  14.549  0.00  0.00    -0.472 OA
ATOM     18  H   UNL     1      47.862  10.288  15.108  0.00  0.00    +0.404 HD
ENDBRANCH  16  17
BRANCH  20  21
ATOM     21  O   UNL     1      52.779  10.388  13.888  0.00  0.00    -0.487 OA
ATOM     22  H   UNL     1      53.655  10.677  14.177  0.00  0.00    +0.404 HD
ENDBRANCH  20  21
ENDBRANCH  11  12
BRANCH  28  29
ATOM     29  O   UNL     1      51.513  19.639  16.870  0.00  0.00    -0.484 OA
ATOM     30  H   UNL     1      51.021  20.407  17.190  0.00  0.00    +0.401 HD
ENDBRANCH  28  29
ENDBRANCH   7   8
TORSDOF 10
ENDMDL
MODEL 5
REMARK VINA RESULT:      -7.4      1.392     11.411
REMARK  Name = ZINC95486263
REMARK  10 active torsions:
REMARK  status: ('A' for Active; 'I' for Inactive)
REMARK    1  A    between atoms: C3_3  and  O11_41
REMARK    2  A    between atoms: C4_4  and  O5_20
REMARK    3  A    between atoms: C6_6  and  C7_7
REMARK    4  A    between atoms: C11_12  and  O4_19
REMARK    5  A    between atoms: C13_14  and  O3_18
REMARK    6  A    between atoms: O5_20  and  C16_21
REMARK    7  A    between atoms: C19_24  and  C22_28
REMARK    8  A    between atoms: C21_26  and  O6_27
REMARK    9  A    between atoms: C26_33  and  O10_40
REMARK   10  A    between atoms: C28_35  and  O9_39
REMARK                            x       y       z     vdW  Elec       q    Type
REMARK                         _______ _______ _______ _____ _____    ______ ____
ROOT
ATOM      7  O   UNL     1      47.021  13.720  17.601  0.00  0.00    -0.239 OA
ENDROOT
BRANCH   7   6
ATOM      1  C   UNL     1      50.807  13.366  15.962  0.00  0.00    +0.054 A 
ATOM      2  C   UNL     1      49.695  13.098  15.193  0.00  0.00    +0.043 A 
ATOM      3  C   UNL     1      48.424  13.215  15.739  0.00  0.00    +0.115 A 
ATOM      6  C   UNL     1      48.266  13.605  17.069  0.00  0.00    +0.100 A 
ATOM     31  C   UNL     1      49.377  13.875  17.846  0.00  0.00    +0.004 A 
ATOM     32  C   UNL     1      50.656  13.757  17.296  0.00  0.00    -0.044 A 
BRANCH  32  33
ATOM     33  C   UNL     1      51.845  14.044  18.120  0.00  0.00    +0.205 A 
ATOM     34  C   UNL     1      52.067  15.323  18.526  0.00  0.00    -0.138 A 
ATOM     35  C   UNL     1      53.202  15.617  19.318  0.00  0.00    +0.423 A 
ATOM     36  C   UNL     1      54.094  14.498  19.664  0.00  0.00    -0.266 A 
ATOM     37  C   UNL     1      55.241  14.696  20.444  0.00  0.00    +0.220 A 
ATOM     40  C   UNL     1      56.053  13.619  20.748  0.00  0.00    -0.054 A 
ATOM     41  C   UNL     1      55.733  12.350  20.280  0.00  0.00    +0.193 A 
ATOM     44  C   UNL     1      54.601  12.146  19.508  0.00  0.00    -0.032 A 
ATOM     45  C   UNL     1      53.774  13.213  19.193  0.00  0.00    +0.184 A 
ATOM     46  O   UNL     1      53.432  16.753  19.700  0.00  0.00    -0.451 OA
ATOM     47  O   UNL     1      52.664  13.031  18.446  0.00  0.00    -0.218 OA
BRANCH  37  38
ATOM     38  O   UNL     1      55.552  15.936  20.899  0.00  0.00    -0.472 OA
ATOM     39  H   UNL     1      56.198  16.405  20.354  0.00  0.00    +0.403 HD
ENDBRANCH  37  38
BRANCH  41  42
ATOM     42  O   UNL     1      56.538  11.299  20.584  0.00  0.00    -0.487 OA
ATOM     43  H   UNL     1      56.307  10.481  20.124  0.00  0.00    +0.403 HD
ENDBRANCH  41  42
ENDBRANCH  32  33
BRANCH   3   4
ATOM      4  O   UNL     1      47.332  12.950  14.977  0.00  0.00    -0.482 OA
ATOM      5  H   UNL     1      47.539  12.595  14.102  0.00  0.00    +0.395 HD
ENDBRANCH   3   4
ENDBRANCH   7   6
BRANCH   7   8
ATOM      8  C   UNL     1      46.565  14.965  17.897  0.00  0.00    +0.073 A 
ATOM      9  C   UNL     1      46.767  16.007  17.002  0.00  0.00    +0.043 A 
ATOM     10  C   UNL     1      46.307  17.272  17.299  0.00  0.00    +0.073 A 
ATOM     11  C   UNL     1      45.637  17.508  18.501  0.00  0.00    -0.047 A 
ATOM     27  C   UNL     1      45.433  16.459  19.403  0.00  0.00    +0.055 A 
ATOM     28  C   UNL     1      45.892  15.193  19.096  0.00  0.00    +0.106 A 
BRANCH  11  12
ATOM     12  C   UNL     1      45.145  18.861  18.821  0.00  0.00    +0.201 A 
ATOM     13  C   UNL     1      45.996  19.746  19.407  0.00  0.00    -0.133 A 
ATOM     14  C   UNL     1      45.542  21.048  19.721  0.00  0.00    +0.422 A 
ATOM     15  C   UNL     1      44.145  21.377  19.388  0.00  0.00    -0.266 A 
ATOM     16  C   UNL     1      43.611  22.643  19.662  0.00  0.00    +0.220 A 
ATOM     19  C   UNL     1      42.295  22.912  19.334  0.00  0.00    -0.053 A 
ATOM     20  C   UNL     1      41.509  21.933  18.736  0.00  0.00    +0.194 A 
ATOM     23  C   UNL     1      42.032  20.679  18.462  0.00  0.00    -0.029 A 
ATOM     24  C   UNL     1      43.349  20.389  18.783  0.00  0.00    +0.183 A 
ATOM     25  O   UNL     1      46.278  21.868  20.246  0.00  0.00    -0.449 OA
ATOM     26  O   UNL     1      43.875  19.175  18.518  0.00  0.00    -0.218 OA
BRANCH  16  17
ATOM     17  O   UNL     1      44.379  23.597  20.247  0.00  0.00    -0.472 OA
ATOM     18  H   UNL     1      44.218  23.706  21.194  0.00  0.00    +0.404 HD
ENDBRANCH  16  17
BRANCH  20  21
ATOM     21  O   UNL     1      40.219  22.207  18.419  0.00  0.00    -0.487 OA
ATOM     22  H   UNL     1      39.588  21.540  18.722  0.00  0.00    +0.404 HD
ENDBRANCH  20  21
ENDBRANCH  11  12
BRANCH  28  29
ATOM     29  O   UNL     1      45.691  14.167  19.968  0.00  0.00    -0.484 OA
ATOM     30  H   UNL     1      45.069  14.373  20.679  0.00  0.00    +0.401 HD
ENDBRANCH  28  29
ENDBRANCH   7   8
TORSDOF 10
ENDMDL
MODEL 6
REMARK VINA RESULT:      -7.4      3.184     11.235
REMARK  Name = ZINC95486263
REMARK  10 active torsions:
REMARK  status: ('A' for Active; 'I' for Inactive)
REMARK    1  A    between atoms: C3_3  and  O11_41
REMARK    2  A    between atoms: C4_4  and  O5_20
REMARK    3  A    between atoms: C6_6  and  C7_7
REMARK    4  A    between atoms: C11_12  and  O4_19
REMARK    5  A    between atoms: C13_14  and  O3_18
REMARK    6  A    between atoms: O5_20  and  C16_21
REMARK    7  A    between atoms: C19_24  and  C22_28
REMARK    8  A    between atoms: C21_26  and  O6_27
REMARK    9  A    between atoms: C26_33  and  O10_40
REMARK   10  A    between atoms: C28_35  and  O9_39
REMARK                            x       y       z     vdW  Elec       q    Type
REMARK                         _______ _______ _______ _____ _____    ______ ____
ROOT
ATOM      7  O   UNL     1      50.212  19.177  18.019  0.00  0.00    -0.239 OA
ENDROOT
BRANCH   7   6
ATOM      1  C   UNL     1      52.143  15.518  18.160  0.00  0.00    +0.054 A 
ATOM      2  C   UNL     1      52.700  16.616  18.780  0.00  0.00    +0.043 A 
ATOM      3  C   UNL     1      52.056  17.845  18.734  0.00  0.00    +0.115 A 
ATOM      6  C   UNL     1      50.841  17.973  18.061  0.00  0.00    +0.100 A 
ATOM     31  C   UNL     1      50.277  16.876  17.437  0.00  0.00    +0.004 A 
ATOM     32  C   UNL     1      50.926  15.639  17.484  0.00  0.00    -0.044 A 
BRANCH  32  33
ATOM     33  C   UNL     1      50.329  14.466  16.820  0.00  0.00    +0.205 A 
ATOM     34  C   UNL     1      51.133  13.649  16.087  0.00  0.00    -0.138 A 
ATOM     35  C   UNL     1      50.578  12.518  15.444  0.00  0.00    +0.423 A 
ATOM     36  C   UNL     1      49.133  12.286  15.609  0.00  0.00    -0.266 A 
ATOM     37  C   UNL     1      48.499  11.191  15.008  0.00  0.00    +0.220 A 
ATOM     40  C   UNL     1      47.141  11.007  15.188  0.00  0.00    -0.054 A 
ATOM     41  C   UNL     1      46.411  11.904  15.960  0.00  0.00    +0.193 A 
ATOM     44  C   UNL     1      47.031  12.990  16.557  0.00  0.00    -0.032 A 
ATOM     45  C   UNL     1      48.393  13.191  16.388  0.00  0.00    +0.184 A 
ATOM     46  O   UNL     1      51.269  11.764  14.777  0.00  0.00    -0.451 OA
ATOM     47  O   UNL     1      49.014  14.241  16.967  0.00  0.00    -0.218 OA
BRANCH  37  38
ATOM     38  O   UNL     1      49.213  10.316  14.255  0.00  0.00    -0.472 OA
ATOM     39  H   UNL     1      49.195   9.407  14.584  0.00  0.00    +0.403 HD
ENDBRANCH  37  38
BRANCH  41  42
ATOM     42  O   UNL     1      45.078  11.715  16.130  0.00  0.00    -0.487 OA
ATOM     43  H   UNL     1      44.747  11.995  16.994  0.00  0.00    +0.403 HD
ENDBRANCH  41  42
ENDBRANCH  32  33
BRANCH   3   4
ATOM      4  O   UNL     1      52.608  18.923  19.346  0.00  0.00    -0.482 OA
ATOM      5  H   UNL     1      53.490  19.151  19.021  0.00  0.00    +0.395 HD
ENDBRANCH   3   4
ENDBRANCH   7   6
BRANCH   7   8
ATOM      8  C   UNL     1      48.910  19.232  18.406  0.00  0.00    +0.073 A 
ATOM      9  C   UNL     1      47.999  18.314  17.899  0.00  0.00    +0.043 A 
ATOM     10  C   UNL     1      46.679  18.365  18.289  0.00  0.00    +0.073 A 
ATOM     11  C   UNL     1      46.254  19.340  19.195  0.00  0.00    -0.047 A 
ATOM     27  C   UNL     1      47.171  20.263  19.705  0.00  0.00    +0.055 A 
ATOM     28  C   UNL     1      48.494  20.203  19.314  0.00  0.00    +0.106 A 
BRANCH  11  12
ATOM     12  C   UNL     1      44.840  19.396  19.612  0.00  0.00    +0.201 A 
ATOM     13  C   UNL     1      44.457  18.705  20.721  0.00  0.00    -0.133 A 
ATOM     14  C   UNL     1      43.106  18.747  21.136  0.00  0.00    +0.422 A 
ATOM     15  C   UNL     1      42.173  19.552  20.328  0.00  0.00    -0.266 A 
ATOM     16  C   UNL     1      40.817  19.650  20.667  0.00  0.00    +0.220 A 
ATOM     19  C   UNL     1      39.973  20.415  19.883  0.00  0.00    -0.053 A 
ATOM     20  C   UNL     1      40.470  21.082  18.768  0.00  0.00    +0.194 A 
ATOM     23  C   UNL     1      41.810  20.989  18.428  0.00  0.00    -0.029 A 
ATOM     24  C   UNL     1      42.671  20.226  19.201  0.00  0.00    +0.183 A 
ATOM     25  O   UNL     1      42.728  18.141  22.125  0.00  0.00    -0.449 OA
ATOM     26  O   UNL     1      43.981  20.129  18.887  0.00  0.00    -0.218 OA
BRANCH  16  17
ATOM     17  O   UNL     1      40.335  18.998  21.755  0.00  0.00    -0.472 OA
ATOM     18  H   UNL     1      40.895  19.076  22.540  0.00  0.00    +0.404 HD
ENDBRANCH  16  17
BRANCH  20  21
ATOM     21  O   UNL     1      39.633  21.830  18.005  0.00  0.00    -0.487 OA
ATOM     22  H   UNL     1      39.500  21.485  17.112  0.00  0.00    +0.404 HD
ENDBRANCH  20  21
ENDBRANCH  11  12
BRANCH  28  29
ATOM     29  O   UNL     1      49.392  21.096  19.812  0.00  0.00    -0.484 OA
ATOM     30  H   UNL     1      49.761  20.846  20.670  0.00  0.00    +0.401 HD
ENDBRANCH  28  29
ENDBRANCH   7   8
TORSDOF 10
ENDMDL
MODEL 7
REMARK VINA RESULT:      -7.3      3.955      6.276
REMARK  Name = ZINC95486263
REMARK  10 active torsions:
REMARK  status: ('A' for Active; 'I' for Inactive)
REMARK    1  A    between atoms: C3_3  and  O11_41
REMARK    2  A    between atoms: C4_4  and  O5_20
REMARK    3  A    between atoms: C6_6  and  C7_7
REMARK    4  A    between atoms: C11_12  and  O4_19
REMARK    5  A    between atoms: C13_14  and  O3_18
REMARK    6  A    between atoms: O5_20  and  C16_21
REMARK    7  A    between atoms: C19_24  and  C22_28
REMARK    8  A    between atoms: C21_26  and  O6_27
REMARK    9  A    between atoms: C26_33  and  O10_40
REMARK   10  A    between atoms: C28_35  and  O9_39
REMARK                            x       y       z     vdW  Elec       q    Type
REMARK                         _______ _______ _______ _____ _____    ______ ____
ROOT
ATOM      7  O   UNL     1      50.679  19.896  19.496  0.00  0.00    -0.239 OA
ENDROOT
BRANCH   7   6
ATOM      1  C   UNL     1      47.918  21.591  22.073  0.00  0.00    +0.054 A 
ATOM      2  C   UNL     1      49.202  21.343  22.505  0.00  0.00    +0.043 A 
ATOM      3  C   UNL     1      50.131  20.775  21.644  0.00  0.00    +0.115 A 
ATOM      6  C   UNL     1      49.768  20.452  20.337  0.00  0.00    +0.100 A 
ATOM     31  C   UNL     1      48.480  20.697  19.897  0.00  0.00    +0.004 A 
ATOM     32  C   UNL     1      47.546  21.270  20.765  0.00  0.00    -0.044 A 
BRANCH  32  33
ATOM     33  C   UNL     1      46.171  21.534  20.301  0.00  0.00    +0.205 A 
ATOM     34  C   UNL     1      45.851  22.788  19.884  0.00  0.00    -0.138 A 
ATOM     35  C   UNL     1      44.537  23.060  19.435  0.00  0.00    +0.423 A 
ATOM     36  C   UNL     1      43.574  21.946  19.445  0.00  0.00    -0.266 A 
ATOM     37  C   UNL     1      42.252  22.124  19.017  0.00  0.00    +0.220 A 
ATOM     40  C   UNL     1      41.378  21.053  19.041  0.00  0.00    -0.054 A 
ATOM     41  C   UNL     1      41.811  19.809  19.487  0.00  0.00    +0.193 A 
ATOM     44  C   UNL     1      43.117  19.625  19.912  0.00  0.00    -0.032 A 
ATOM     45  C   UNL     1      44.008  20.687  19.895  0.00  0.00    +0.184 A 
ATOM     46  O   UNL     1      44.214  24.174  19.055  0.00  0.00    -0.451 OA
ATOM     47  O   UNL     1      45.286  20.525  20.300  0.00  0.00    -0.218 OA
BRANCH  37  38
ATOM     38  O   UNL     1      41.831  23.339  18.583  0.00  0.00    -0.472 OA
ATOM     39  H   UNL     1      42.365  24.078  18.904  0.00  0.00    +0.403 HD
ENDBRANCH  37  38
BRANCH  41  42
ATOM     42  O   UNL     1      40.945  18.763  19.507  0.00  0.00    -0.487 OA
ATOM     43  H   UNL     1      40.151  18.899  18.971  0.00  0.00    +0.403 HD
ENDBRANCH  41  42
ENDBRANCH  32  33
BRANCH   3   4
ATOM      4  O   UNL     1      51.396  20.533  22.075  0.00  0.00    -0.482 OA
ATOM      5  H   UNL     1      51.881  19.895  21.532  0.00  0.00    +0.395 HD
ENDBRANCH   3   4
ENDBRANCH   7   6
BRANCH   7   8
ATOM      8  C   UNL     1      50.356  18.725  18.887  0.00  0.00    +0.073 A 
ATOM      9  C   UNL     1      49.797  17.692  19.628  0.00  0.00    +0.043 A 
ATOM     10  C   UNL     1      49.467  16.503  19.015  0.00  0.00    +0.073 A 
ATOM     11  C   UNL     1      49.694  16.334  17.647  0.00  0.00    -0.047 A 
ATOM     27  C   UNL     1      50.256  17.375  16.901  0.00  0.00    +0.055 A 
ATOM     28  C   UNL     1      50.579  18.566  17.521  0.00  0.00    +0.106 A 
BRANCH  11  12
ATOM     12  C   UNL     1      49.342  15.062  16.989  0.00  0.00    +0.201 A 
ATOM     13  C   UNL     1      50.307  14.390  16.305  0.00  0.00    -0.133 A 
ATOM     14  C   UNL     1      49.988  13.168  15.668  0.00  0.00    +0.422 A 
ATOM     15  C   UNL     1      48.601  12.685  15.785  0.00  0.00    -0.266 A 
ATOM     16  C   UNL     1      48.197  11.484  15.186  0.00  0.00    +0.220 A 
ATOM     19  C   UNL     1      46.886  11.065  15.320  0.00  0.00    -0.053 A 
ATOM     20  C   UNL     1      45.978  11.830  16.043  0.00  0.00    +0.194 A 
ATOM     23  C   UNL     1      46.372  13.018  16.638  0.00  0.00    -0.029 A 
ATOM     24  C   UNL     1      47.681  13.456  16.515  0.00  0.00    +0.183 A 
ATOM     25  O   UNL     1      50.828  12.538  15.046  0.00  0.00    -0.449 OA
ATOM     26  O   UNL     1      48.083  14.608  17.093  0.00  0.00    -0.218 OA
BRANCH  16  17
ATOM     17  O   UNL     1      49.085  10.739  14.480  0.00  0.00    -0.472 OA
ATOM     18  H   UNL     1      49.790  10.355  15.018  0.00  0.00    +0.404 HD
ENDBRANCH  16  17
BRANCH  20  21
ATOM     21  O   UNL     1      44.693  11.410  16.167  0.00  0.00    -0.487 OA
ATOM     22  H   UNL     1      44.601  10.545  16.590  0.00  0.00    +0.404 HD
ENDBRANCH  20  21
ENDBRANCH  11  12
BRANCH  28  29
ATOM     29  O   UNL     1      51.121  19.583  16.798  0.00  0.00    -0.484 OA
ATOM     30  H   UNL     1      51.510  19.305  15.957  0.00  0.00    +0.401 HD
ENDBRANCH  28  29
ENDBRANCH   7   8
TORSDOF 10
ENDMDL
MODEL 8
REMARK VINA RESULT:      -7.3      1.641     10.951
REMARK  Name = ZINC95486263
REMARK  10 active torsions:
REMARK  status: ('A' for Active; 'I' for Inactive)
REMARK    1  A    between atoms: C3_3  and  O11_41
REMARK    2  A    between atoms: C4_4  and  O5_20
REMARK    3  A    between atoms: C6_6  and  C7_7
REMARK    4  A    between atoms: C11_12  and  O4_19
REMARK    5  A    between atoms: C13_14  and  O3_18
REMARK    6  A    between atoms: O5_20  and  C16_21
REMARK    7  A    between atoms: C19_24  and  C22_28
REMARK    8  A    between atoms: C21_26  and  O6_27
REMARK    9  A    between atoms: C26_33  and  O10_40
REMARK   10  A    between atoms: C28_35  and  O9_39
REMARK                            x       y       z     vdW  Elec       q    Type
REMARK                         _______ _______ _______ _____ _____    ______ ____
ROOT
ATOM      7  O   UNL     1      46.782  13.754  17.771  0.00  0.00    -0.239 OA
ENDROOT
BRANCH   7   6
ATOM      1  C   UNL     1      50.486  13.241  15.994  0.00  0.00    +0.054 A 
ATOM      2  C   UNL     1      49.337  12.968  15.283  0.00  0.00    +0.043 A 
ATOM      3  C   UNL     1      48.093  13.138  15.876  0.00  0.00    +0.115 A 
ATOM      6  C   UNL     1      48.001  13.587  17.193  0.00  0.00    +0.100 A 
ATOM     31  C   UNL     1      49.149  13.862  17.911  0.00  0.00    +0.004 A 
ATOM     32  C   UNL     1      50.401  13.690  17.314  0.00  0.00    -0.044 A 
BRANCH  32  33
ATOM     33  C   UNL     1      51.630  13.982  18.075  0.00  0.00    +0.205 A 
ATOM     34  C   UNL     1      51.913  15.275  18.390  0.00  0.00    -0.138 A 
ATOM     35  C   UNL     1      53.087  15.574  19.121  0.00  0.00    +0.423 A 
ATOM     36  C   UNL     1      53.951  14.445  19.506  0.00  0.00    -0.266 A 
ATOM     37  C   UNL     1      55.133  14.648  20.231  0.00  0.00    +0.220 A 
ATOM     40  C   UNL     1      55.917  13.562  20.574  0.00  0.00    -0.054 A 
ATOM     41  C   UNL     1      55.533  12.279  20.201  0.00  0.00    +0.193 A 
ATOM     44  C   UNL     1      54.366  12.070  19.483  0.00  0.00    -0.032 A 
ATOM     45  C   UNL     1      53.566  13.147  19.131  0.00  0.00    +0.184 A 
ATOM     46  O   UNL     1      53.373  16.722  19.420  0.00  0.00    -0.451 OA
ATOM     47  O   UNL     1      52.423  12.961  18.437  0.00  0.00    -0.218 OA
BRANCH  37  38
ATOM     38  O   UNL     1      55.506  15.901  20.593  0.00  0.00    -0.472 OA
ATOM     39  H   UNL     1      54.872  16.349  21.170  0.00  0.00    +0.403 HD
ENDBRANCH  37  38
BRANCH  41  42
ATOM     42  O   UNL     1      56.310  11.219  20.542  0.00  0.00    -0.487 OA
ATOM     43  H   UNL     1      57.097  11.114  19.991  0.00  0.00    +0.403 HD
ENDBRANCH  41  42
ENDBRANCH  32  33
BRANCH   3   4
ATOM      4  O   UNL     1      46.964  12.869  15.172  0.00  0.00    -0.482 OA
ATOM      5  H   UNL     1      47.049  12.121  14.563  0.00  0.00    +0.395 HD
ENDBRANCH   3   4
ENDBRANCH   7   6
BRANCH   7   8
ATOM      8  C   UNL     1      46.405  15.014  18.115  0.00  0.00    +0.073 A 
ATOM      9  C   UNL     1      46.593  16.060  17.221  0.00  0.00    +0.043 A 
ATOM     10  C   UNL     1      46.213  17.339  17.566  0.00  0.00    +0.073 A 
ATOM     11  C   UNL     1      45.638  17.585  18.815  0.00  0.00    -0.047 A 
ATOM     27  C   UNL     1      45.448  16.532  19.714  0.00  0.00    +0.055 A 
ATOM     28  C   UNL     1      45.826  15.251  19.360  0.00  0.00    +0.106 A 
BRANCH  11  12
ATOM     12  C   UNL     1      45.231  18.954  19.186  0.00  0.00    +0.201 A 
ATOM     13  C   UNL     1      44.011  19.405  18.785  0.00  0.00    -0.133 A 
ATOM     14  C   UNL     1      43.604  20.715  19.131  0.00  0.00    +0.422 A 
ATOM     15  C   UNL     1      44.543  21.530  19.920  0.00  0.00    -0.266 A 
ATOM     16  C   UNL     1      44.222  22.838  20.307  0.00  0.00    +0.220 A 
ATOM     19  C   UNL     1      45.131  23.571  21.047  0.00  0.00    -0.053 A 
ATOM     20  C   UNL     1      46.354  23.012  21.404  0.00  0.00    +0.194 A 
ATOM     23  C   UNL     1      46.677  21.720  21.025  0.00  0.00    -0.029 A 
ATOM     24  C   UNL     1      45.779  20.969  20.282  0.00  0.00    +0.183 A 
ATOM     25  O   UNL     1      42.517  21.152  18.789  0.00  0.00    -0.449 OA
ATOM     26  O   UNL     1      46.076  19.705  19.909  0.00  0.00    -0.218 OA
BRANCH  16  17
ATOM     17  O   UNL     1      43.029  23.381  19.957  0.00  0.00    -0.472 OA
ATOM     18  H   UNL     1      43.015  23.758  19.066  0.00  0.00    +0.404 HD
ENDBRANCH  16  17
BRANCH  20  21
ATOM     21  O   UNL     1      47.239  23.741  22.130  0.00  0.00    -0.487 OA
ATOM     22  H   UNL     1      47.087  24.695  22.095  0.00  0.00    +0.404 HD
ENDBRANCH  20  21
ENDBRANCH  11  12
BRANCH  28  29
ATOM     29  O   UNL     1      45.638  14.222  20.230  0.00  0.00    -0.484 OA
ATOM     30  H   UNL     1      46.455  13.891  20.630  0.00  0.00    +0.401 HD
ENDBRANCH  28  29
ENDBRANCH   7   8
TORSDOF 10
ENDMDL
MODEL 9
REMARK VINA RESULT:      -7.3      3.602      6.241
REMARK  Name = ZINC95486263
REMARK  10 active torsions:
REMARK  status: ('A' for Active; 'I' for Inactive)
REMARK    1  A    between atoms: C3_3  and  O11_41
REMARK    2  A    between atoms: C4_4  and  O5_20
REMARK    3  A    between atoms: C6_6  and  C7_7
REMARK    4  A    between atoms: C11_12  and  O4_19
REMARK    5  A    between atoms: C13_14  and  O3_18
REMARK    6  A    between atoms: O5_20  and  C16_21
REMARK    7  A    between atoms: C19_24  and  C22_28
REMARK    8  A    between atoms: C21_26  and  O6_27
REMARK    9  A    between atoms: C26_33  and  O10_40
REMARK   10  A    between atoms: C28_35  and  O9_39
REMARK                            x       y       z     vdW  Elec       q    Type
REMARK                         _______ _______ _______ _____ _____    ______ ____
ROOT
ATOM      7  O   UNL     1      51.655  19.685  19.683  0.00  0.00    -0.239 OA
ENDROOT
BRANCH   7   6
ATOM      1  C   UNL     1      48.814  21.410  22.152  0.00  0.00    +0.054 A 
ATOM      2  C   UNL     1      50.151  21.488  22.479  0.00  0.00    +0.043 A 
ATOM      3  C   UNL     1      51.106  20.911  21.654  0.00  0.00    +0.115 A 
ATOM      6  C   UNL     1      50.718  20.249  20.490  0.00  0.00    +0.100 A 
ATOM     31  C   UNL     1      49.379  20.166  20.157  0.00  0.00    +0.004 A 
ATOM     32  C   UNL     1      48.417  20.748  20.987  0.00  0.00    -0.044 A 
BRANCH  32  33
ATOM     33  C   UNL     1      46.988  20.663  20.636  0.00  0.00    +0.205 A 
ATOM     34  C   UNL     1      46.370  19.452  20.692  0.00  0.00    -0.138 A 
ATOM     35  C   UNL     1      45.000  19.352  20.360  0.00  0.00    +0.423 A 
ATOM     36  C   UNL     1      44.306  20.589  19.965  0.00  0.00    -0.266 A 
ATOM     37  C   UNL     1      42.948  20.584  19.620  0.00  0.00    +0.220 A 
ATOM     40  C   UNL     1      42.332  21.767  19.256  0.00  0.00    -0.054 A 
ATOM     41  C   UNL     1      43.058  22.953  19.232  0.00  0.00    +0.193 A 
ATOM     44  C   UNL     1      44.402  22.967  19.572  0.00  0.00    -0.032 A 
ATOM     45  C   UNL     1      45.036  21.790  19.941  0.00  0.00    +0.184 A 
ATOM     46  O   UNL     1      44.414  18.281  20.398  0.00  0.00    -0.451 OA
ATOM     47  O   UNL     1      46.343  21.786  20.280  0.00  0.00    -0.218 OA
BRANCH  37  38
ATOM     38  O   UNL     1      42.242  19.425  19.642  0.00  0.00    -0.472 OA
ATOM     39  H   UNL     1      42.606  18.754  20.235  0.00  0.00    +0.403 HD
ENDBRANCH  37  38
BRANCH  41  42
ATOM     42  O   UNL     1      42.444  24.109  18.873  0.00  0.00    -0.487 OA
ATOM     43  H   UNL     1      41.591  23.983  18.437  0.00  0.00    +0.403 HD
ENDBRANCH  41  42
ENDBRANCH  32  33
BRANCH   3   4
ATOM      4  O   UNL     1      52.422  20.991  21.981  0.00  0.00    -0.482 OA
ATOM      5  H   UNL     1      52.679  20.421  22.719  0.00  0.00    +0.395 HD
ENDBRANCH   3   4
ENDBRANCH   7   6
BRANCH   7   8
ATOM      8  C   UNL     1      51.315  18.563  18.997  0.00  0.00    +0.073 A 
ATOM      9  C   UNL     1      51.034  17.389  19.684  0.00  0.00    +0.043 A 
ATOM     10  C   UNL     1      50.688  16.249  18.992  0.00  0.00    +0.073 A 
ATOM     11  C   UNL     1      50.620  16.272  17.597  0.00  0.00    -0.047 A 
ATOM     27  C   UNL     1      50.902  17.453  16.905  0.00  0.00    +0.055 A 
ATOM     28  C   UNL     1      51.243  18.594  17.605  0.00  0.00    +0.106 A 
BRANCH  11  12
ATOM     12  C   UNL     1      50.251  15.051  16.854  0.00  0.00    +0.201 A 
ATOM     13  C   UNL     1      51.202  14.426  16.109  0.00  0.00    -0.133 A 
ATOM     14  C   UNL     1      50.866  13.255  15.390  0.00  0.00    +0.422 A 
ATOM     15  C   UNL     1      49.478  12.771  15.493  0.00  0.00    -0.266 A 
ATOM     16  C   UNL     1      49.058  11.619  14.815  0.00  0.00    +0.220 A 
ATOM     19  C   UNL     1      47.747  11.198  14.937  0.00  0.00    -0.053 A 
ATOM     20  C   UNL     1      46.854  11.914  15.727  0.00  0.00    +0.194 A 
ATOM     23  C   UNL     1      47.264  13.053  16.400  0.00  0.00    -0.029 A 
ATOM     24  C   UNL     1      48.574  13.492  16.290  0.00  0.00    +0.183 A 
ATOM     25  O   UNL     1      51.694  12.668  14.712  0.00  0.00    -0.449 OA
ATOM     26  O   UNL     1      48.991  14.598  16.944  0.00  0.00    -0.218 OA
BRANCH  16  17
ATOM     17  O   UNL     1      49.932  10.923  14.044  0.00  0.00    -0.472 OA
ATOM     18  H   UNL     1      49.574  10.658  13.185  0.00  0.00    +0.404 HD
ENDBRANCH  16  17
BRANCH  20  21
ATOM     21  O   UNL     1      45.569  11.491  15.840  0.00  0.00    -0.487 OA
ATOM     22  H   UNL     1      45.413  10.607  15.482  0.00  0.00    +0.404 HD
ENDBRANCH  20  21
ENDBRANCH  11  12
BRANCH  28  29
ATOM     29  O   UNL     1      51.513  19.747  16.936  0.00  0.00    -0.484 OA
ATOM     30  H   UNL     1      51.073  20.526  17.303  0.00  0.00    +0.401 HD
ENDBRANCH  28  29
ENDBRANCH   7   8
TORSDOF 10
ENDMDL
