MODEL 1
REMARK VINA RESULT:      -6.8      0.000      0.000
REMARK  Name = ZINC95486047
REMARK  10 active torsions:
REMARK  status: ('A' for Active; 'I' for Inactive)
REMARK    1  A    between atoms: C1_1  and  O1_2
REMARK    2  A    between atoms: O1_2  and  C2_3
REMARK    3  A    between atoms: C4_5  and  C8_10
REMARK    4  A    between atoms: C7_8  and  O2_9
REMARK    5  A    between atoms: C8_10  and  C9_11
REMARK    6  A    between atoms: C10_12  and  C11_13
REMARK    7  A    between atoms: C11_13  and  C12_14
REMARK    8  A    between atoms: C12_14  and  C13_16
REMARK    9  A    between atoms: C16_19  and  O5_23
REMARK   10  A    between atoms: C18_21  and  O4_22
REMARK                            x       y       z     vdW  Elec       q    Type
REMARK                         _______ _______ _______ _____ _____    ______ ____
ROOT
ATOM      7  C   UNL     1      47.739  20.107  19.362  0.00  0.00    -0.035 C 
ATOM      8  C   UNL     1      46.700  20.814  18.994  0.00  0.00    -0.026 C 
ENDROOT
BRANCH   7   6
ATOM      6  C   UNL     1      49.078  20.773  19.544  0.00  0.00    +0.113 C 
BRANCH   6   5
ATOM      3  C   UNL     1      50.948  18.556  17.124  0.00  0.00    +0.104 A 
ATOM      4  C   UNL     1      50.084  18.978  18.121  0.00  0.00    -0.060 A 
ATOM      5  C   UNL     1      50.018  20.316  18.459  0.00  0.00    -0.047 A 
ATOM     22  C   UNL     1      50.813  21.238  17.802  0.00  0.00    -0.003 A 
ATOM     23  C   UNL     1      51.677  20.823  16.806  0.00  0.00    +0.033 A 
ATOM     24  C   UNL     1      51.752  19.482  16.467  0.00  0.00    +0.070 A 
BRANCH   3   2
ATOM      1  C   UNL     1      51.627  16.360  17.737  0.00  0.00    +0.238 C 
ATOM      2  O   UNL     1      51.014  17.239  16.791  0.00  0.00    -0.308 OA
ENDBRANCH   3   2
BRANCH  24  25
ATOM     25  O   UNL     1      52.606  19.072  15.491  0.00  0.00    -0.487 OA
ATOM     26  H   UNL     1      53.137  18.301  15.731  0.00  0.00    +0.386 HD
ENDBRANCH  24  25
ENDBRANCH   6   5
ENDBRANCH   7   6
BRANCH   8   9
ATOM      9  C   UNL     1      45.360  20.149  18.811  0.00  0.00    +0.074 C 
BRANCH   9  10
ATOM     10  C   UNL     1      44.342  20.819  19.698  0.00  0.00    +0.397 C 
ATOM     21  O   UNL     1      44.671  21.246  20.785  0.00  0.00    -0.431 OA
BRANCH  10  11
ATOM     11  C   UNL     1      42.955  20.954  19.247  0.00  0.00    -0.213 A 
ATOM     12  C   UNL     1      42.174  19.813  19.014  0.00  0.00    +0.100 A 
ATOM     13  C   UNL     1      40.884  19.942  18.594  0.00  0.00    -0.029 A 
ATOM     14  C   UNL     1      40.330  21.204  18.394  0.00  0.00    +0.159 A 
ATOM     17  C   UNL     1      41.087  22.345  18.619  0.00  0.00    -0.049 A 
ATOM     18  C   UNL     1      42.397  22.231  19.050  0.00  0.00    +0.188 A 
BRANCH  14  15
ATOM     15  O   UNL     1      39.044  21.319  17.975  0.00  0.00    -0.496 OA
ATOM     16  H   UNL     1      38.389  21.138  18.663  0.00  0.00    +0.400 HD
ENDBRANCH  14  15
BRANCH  18  19
ATOM     19  O   UNL     1      43.140  23.342  19.277  0.00  0.00    -0.478 OA
ATOM     20  H   UNL     1      42.619  24.122  19.511  0.00  0.00    +0.399 HD
ENDBRANCH  18  19
ENDBRANCH  10  11
ENDBRANCH   9  10
ENDBRANCH   8   9
TORSDOF 9
ENDMDL
MODEL 2
REMARK VINA RESULT:      -6.4      1.941      8.297
REMARK  Name = ZINC95486047
REMARK  10 active torsions:
REMARK  status: ('A' for Active; 'I' for Inactive)
REMARK    1  A    between atoms: C1_1  and  O1_2
REMARK    2  A    between atoms: O1_2  and  C2_3
REMARK    3  A    between atoms: C4_5  and  C8_10
REMARK    4  A    between atoms: C7_8  and  O2_9
REMARK    5  A    between atoms: C8_10  and  C9_11
REMARK    6  A    between atoms: C10_12  and  C11_13
REMARK    7  A    between atoms: C11_13  and  C12_14
REMARK    8  A    between atoms: C12_14  and  C13_16
REMARK    9  A    between atoms: C16_19  and  O5_23
REMARK   10  A    between atoms: C18_21  and  O4_22
REMARK                            x       y       z     vdW  Elec       q    Type
REMARK                         _______ _______ _______ _____ _____    ______ ____
ROOT
ATOM      7  C   UNL     1      47.015  18.043  18.638  0.00  0.00    -0.035 C 
ATOM      8  C   UNL     1      48.017  17.422  18.067  0.00  0.00    -0.026 C 
ENDROOT
BRANCH   7   6
ATOM      6  C   UNL     1      45.869  18.551  17.803  0.00  0.00    +0.113 C 
BRANCH   6   5
ATOM      3  C   UNL     1      43.354  20.905  19.355  0.00  0.00    +0.104 A 
ATOM      4  C   UNL     1      43.912  19.791  18.748  0.00  0.00    -0.060 A 
ATOM      5  C   UNL     1      45.264  19.763  18.464  0.00  0.00    -0.047 A 
ATOM     22  C   UNL     1      46.064  20.844  18.786  0.00  0.00    -0.003 A 
ATOM     23  C   UNL     1      45.514  21.958  19.392  0.00  0.00    +0.033 A 
ATOM     24  C   UNL     1      44.158  21.995  19.673  0.00  0.00    +0.070 A 
BRANCH   3   2
ATOM      1  C   UNL     1      41.127  20.972  18.521  0.00  0.00    +0.238 C 
ATOM      2  O   UNL     1      42.023  20.934  19.634  0.00  0.00    -0.308 OA
ENDBRANCH   3   2
BRANCH  24  25
ATOM     25  O   UNL     1      43.614  23.092  20.264  0.00  0.00    -0.487 OA
ATOM     26  H   UNL     1      43.447  22.987  21.211  0.00  0.00    +0.386 HD
ENDBRANCH  24  25
ENDBRANCH   6   5
ENDBRANCH   7   6
BRANCH   8   9
ATOM      9  C   UNL     1      49.164  16.914  18.902  0.00  0.00    +0.074 C 
BRANCH   9  10
ATOM     10  C   UNL     1      49.977  18.081  19.402  0.00  0.00    +0.397 C 
ATOM     21  O   UNL     1      50.109  18.261  20.595  0.00  0.00    -0.431 OA
BRANCH  10  11
ATOM     11  C   UNL     1      50.608  18.996  18.448  0.00  0.00    -0.213 A 
ATOM     12  C   UNL     1      51.470  18.501  17.460  0.00  0.00    +0.100 A 
ATOM     13  C   UNL     1      52.056  19.355  16.574  0.00  0.00    -0.029 A 
ATOM     14  C   UNL     1      51.804  20.723  16.641  0.00  0.00    +0.159 A 
ATOM     17  C   UNL     1      50.953  21.232  17.612  0.00  0.00    -0.049 A 
ATOM     18  C   UNL     1      50.347  20.377  18.516  0.00  0.00    +0.188 A 
BRANCH  14  15
ATOM     15  O   UNL     1      52.394  21.563  15.754  0.00  0.00    -0.496 OA
ATOM     16  H   UNL     1      53.360  21.511  15.746  0.00  0.00    +0.400 HD
ENDBRANCH  14  15
BRANCH  18  19
ATOM     19  O   UNL     1      49.511  20.867  19.463  0.00  0.00    -0.478 OA
ATOM     20  H   UNL     1      49.927  21.498  20.066  0.00  0.00    +0.399 HD
ENDBRANCH  18  19
ENDBRANCH  10  11
ENDBRANCH   9  10
ENDBRANCH   8   9
TORSDOF 9
ENDMDL
MODEL 3
REMARK VINA RESULT:      -6.3      1.878      9.066
REMARK  Name = ZINC95486047
REMARK  10 active torsions:
REMARK  status: ('A' for Active; 'I' for Inactive)
REMARK    1  A    between atoms: C1_1  and  O1_2
REMARK    2  A    between atoms: O1_2  and  C2_3
REMARK    3  A    between atoms: C4_5  and  C8_10
REMARK    4  A    between atoms: C7_8  and  O2_9
REMARK    5  A    between atoms: C8_10  and  C9_11
REMARK    6  A    between atoms: C10_12  and  C11_13
REMARK    7  A    between atoms: C11_13  and  C12_14
REMARK    8  A    between atoms: C12_14  and  C13_16
REMARK    9  A    between atoms: C16_19  and  O5_23
REMARK   10  A    between atoms: C18_21  and  O4_22
REMARK                            x       y       z     vdW  Elec       q    Type
REMARK                         _______ _______ _______ _____ _____    ______ ____
ROOT
ATOM      7  C   UNL     1      46.205  19.691  19.630  0.00  0.00    -0.035 C 
ATOM      8  C   UNL     1      47.090  20.560  19.208  0.00  0.00    -0.026 C 
ENDROOT
BRANCH   7   6
ATOM      6  C   UNL     1      45.058  19.290  18.740  0.00  0.00    +0.113 C 
BRANCH   6   5
ATOM      3  C   UNL     1      41.488  19.917  19.803  0.00  0.00    +0.104 A 
ATOM      4  C   UNL     1      42.661  19.930  19.067  0.00  0.00    -0.060 A 
ATOM      5  C   UNL     1      43.781  19.274  19.540  0.00  0.00    -0.047 A 
ATOM     22  C   UNL     1      43.734  18.600  20.747  0.00  0.00    -0.003 A 
ATOM     23  C   UNL     1      42.565  18.582  21.485  0.00  0.00    +0.033 A 
ATOM     24  C   UNL     1      41.441  19.244  21.020  0.00  0.00    +0.070 A 
BRANCH   3   2
ATOM      1  C   UNL     1      40.603  21.757  18.583  0.00  0.00    +0.238 C 
ATOM      2  O   UNL     1      40.385  20.564  19.338  0.00  0.00    -0.308 OA
ENDBRANCH   3   2
BRANCH  24  25
ATOM     25  O   UNL     1      40.292  19.233  21.748  0.00  0.00    -0.487 OA
ATOM     26  H   UNL     1      40.319  18.645  22.515  0.00  0.00    +0.386 HD
ENDBRANCH  24  25
ENDBRANCH   6   5
ENDBRANCH   7   6
BRANCH   8   9
ATOM      9  C   UNL     1      48.237  20.962  20.099  0.00  0.00    +0.074 C 
BRANCH   9  10
ATOM     10  C   UNL     1      49.368  19.979  19.935  0.00  0.00    +0.397 C 
ATOM     21  O   UNL     1      49.635  19.207  20.831  0.00  0.00    -0.431 OA
BRANCH  10  11
ATOM     11  C   UNL     1      50.144  19.957  18.692  0.00  0.00    -0.213 A 
ATOM     12  C   UNL     1      50.763  21.125  18.227  0.00  0.00    +0.100 A 
ATOM     13  C   UNL     1      51.485  21.102  17.070  0.00  0.00    -0.029 A 
ATOM     14  C   UNL     1      51.614  19.921  16.343  0.00  0.00    +0.159 A 
ATOM     17  C   UNL     1      51.008  18.755  16.789  0.00  0.00    -0.049 A 
ATOM     18  C   UNL     1      50.276  18.761  17.964  0.00  0.00    +0.188 A 
BRANCH  14  15
ATOM     15  O   UNL     1      52.334  19.911  15.193  0.00  0.00    -0.496 OA
ATOM     16  H   UNL     1      51.795  19.845  14.393  0.00  0.00    +0.400 HD
ENDBRANCH  14  15
BRANCH  18  19
ATOM     19  O   UNL     1      49.687  17.624  18.406  0.00  0.00    -0.478 OA
ATOM     20  H   UNL     1      48.830  17.440  17.997  0.00  0.00    +0.399 HD
ENDBRANCH  18  19
ENDBRANCH  10  11
ENDBRANCH   9  10
ENDBRANCH   8   9
TORSDOF 9
ENDMDL
MODEL 4
REMARK VINA RESULT:      -6.2      1.859      2.179
REMARK  Name = ZINC95486047
REMARK  10 active torsions:
REMARK  status: ('A' for Active; 'I' for Inactive)
REMARK    1  A    between atoms: C1_1  and  O1_2
REMARK    2  A    between atoms: O1_2  and  C2_3
REMARK    3  A    between atoms: C4_5  and  C8_10
REMARK    4  A    between atoms: C7_8  and  O2_9
REMARK    5  A    between atoms: C8_10  and  C9_11
REMARK    6  A    between atoms: C10_12  and  C11_13
REMARK    7  A    between atoms: C11_13  and  C12_14
REMARK    8  A    between atoms: C12_14  and  C13_16
REMARK    9  A    between atoms: C16_19  and  O5_23
REMARK   10  A    between atoms: C18_21  and  O4_22
REMARK                            x       y       z     vdW  Elec       q    Type
REMARK                         _______ _______ _______ _____ _____    ______ ____
ROOT
ATOM      7  C   UNL     1      48.050  20.990  19.223  0.00  0.00    -0.035 C 
ATOM      8  C   UNL     1      47.129  20.058  19.222  0.00  0.00    -0.026 C 
ENDROOT
BRANCH   7   6
ATOM      6  C   UNL     1      49.444  20.671  19.697  0.00  0.00    +0.113 C 
BRANCH   6   5
ATOM      3  C   UNL     1      51.116  18.380  17.201  0.00  0.00    +0.104 A 
ATOM      4  C   UNL     1      50.357  18.830  18.269  0.00  0.00    -0.060 A 
ATOM      5  C   UNL     1      50.270  20.183  18.534  0.00  0.00    -0.047 A 
ATOM     22  C   UNL     1      50.939  21.092  17.735  0.00  0.00    -0.003 A 
ATOM     23  C   UNL     1      51.698  20.649  16.667  0.00  0.00    +0.033 A 
ATOM     24  C   UNL     1      51.794  19.293  16.400  0.00  0.00    +0.070 A 
BRANCH   3   2
ATOM      1  C   UNL     1      51.917  16.246  17.883  0.00  0.00    +0.238 C 
ATOM      2  O   UNL     1      51.203  17.048  16.940  0.00  0.00    -0.308 OA
ENDBRANCH   3   2
BRANCH  24  25
ATOM     25  O   UNL     1      52.545  18.855  15.354  0.00  0.00    -0.487 OA
ATOM     26  H   UNL     1      52.515  17.898  15.222  0.00  0.00    +0.386 HD
ENDBRANCH  24  25
ENDBRANCH   6   5
ENDBRANCH   7   6
BRANCH   8   9
ATOM      9  C   UNL     1      45.734  20.376  18.749  0.00  0.00    +0.074 C 
BRANCH   9  10
ATOM     10  C   UNL     1      44.875  19.142  18.852  0.00  0.00    +0.397 C 
ATOM     21  O   UNL     1      45.195  18.130  18.264  0.00  0.00    -0.431 OA
BRANCH  10  11
ATOM     11  C   UNL     1      43.656  19.164  19.663  0.00  0.00    -0.213 A 
ATOM     12  C   UNL     1      43.656  18.613  20.952  0.00  0.00    +0.100 A 
ATOM     13  C   UNL     1      42.520  18.635  21.705  0.00  0.00    -0.029 A 
ATOM     14  C   UNL     1      41.352  19.204  21.203  0.00  0.00    +0.159 A 
ATOM     17  C   UNL     1      41.332  19.754  19.929  0.00  0.00    -0.049 A 
ATOM     18  C   UNL     1      42.479  19.744  19.154  0.00  0.00    +0.188 A 
BRANCH  14  15
ATOM     15  O   UNL     1      40.227  19.218  21.961  0.00  0.00    -0.496 OA
ATOM     16  H   UNL     1      39.467  18.786  21.546  0.00  0.00    +0.400 HD
ENDBRANCH  14  15
BRANCH  18  19
ATOM     19  O   UNL     1      42.468  20.285  17.912  0.00  0.00    -0.478 OA
ATOM     20  H   UNL     1      41.604  20.254  17.477  0.00  0.00    +0.399 HD
ENDBRANCH  18  19
ENDBRANCH  10  11
ENDBRANCH   9  10
ENDBRANCH   8   9
TORSDOF 9
ENDMDL
MODEL 5
REMARK VINA RESULT:      -6.2      1.629      2.278
REMARK  Name = ZINC95486047
REMARK  10 active torsions:
REMARK  status: ('A' for Active; 'I' for Inactive)
REMARK    1  A    between atoms: C1_1  and  O1_2
REMARK    2  A    between atoms: O1_2  and  C2_3
REMARK    3  A    between atoms: C4_5  and  C8_10
REMARK    4  A    between atoms: C7_8  and  O2_9
REMARK    5  A    between atoms: C8_10  and  C9_11
REMARK    6  A    between atoms: C10_12  and  C11_13
REMARK    7  A    between atoms: C11_13  and  C12_14
REMARK    8  A    between atoms: C12_14  and  C13_16
REMARK    9  A    between atoms: C16_19  and  O5_23
REMARK   10  A    between atoms: C18_21  and  O4_22
REMARK                            x       y       z     vdW  Elec       q    Type
REMARK                         _______ _______ _______ _____ _____    ______ ____
ROOT
ATOM      7  C   UNL     1      47.624  20.431  19.718  0.00  0.00    -0.035 C 
ATOM      8  C   UNL     1      46.390  19.994  19.667  0.00  0.00    -0.026 C 
ENDROOT
BRANCH   7   6
ATOM      6  C   UNL     1      48.687  19.607  20.397  0.00  0.00    +0.113 C 
BRANCH   6   5
ATOM      3  C   UNL     1      51.864  20.611  18.617  0.00  0.00    +0.104 A 
ATOM      4  C   UNL     1      50.619  20.061  18.873  0.00  0.00    -0.060 A 
ATOM      5  C   UNL     1      50.041  20.207  20.120  0.00  0.00    -0.047 A 
ATOM     22  C   UNL     1      50.703  20.905  21.114  0.00  0.00    -0.003 A 
ATOM     23  C   UNL     1      51.945  21.457  20.865  0.00  0.00    +0.033 A 
ATOM     24  C   UNL     1      52.532  21.308  19.619  0.00  0.00    +0.070 A 
BRANCH   3   2
ATOM      1  C   UNL     1      51.712  20.989  16.273  0.00  0.00    +0.238 C 
ATOM      2  O   UNL     1      52.434  20.467  17.391  0.00  0.00    -0.308 OA
ENDBRANCH   3   2
BRANCH  24  25
ATOM     25  O   UNL     1      53.758  21.846  19.374  0.00  0.00    -0.487 OA
ATOM     26  H   UNL     1      54.467  21.193  19.306  0.00  0.00    +0.386 HD
ENDBRANCH  24  25
ENDBRANCH   6   5
ENDBRANCH   7   6
BRANCH   8   9
ATOM      9  C   UNL     1      45.326  20.817  18.988  0.00  0.00    +0.074 C 
BRANCH   9  10
ATOM     10  C   UNL     1      44.153  20.988  19.919  0.00  0.00    +0.397 C 
ATOM     21  O   UNL     1      44.337  21.096  21.114  0.00  0.00    -0.431 OA
BRANCH  10  11
ATOM     11  C   UNL     1      42.791  21.025  19.382  0.00  0.00    -0.213 A 
ATOM     12  C   UNL     1      42.070  19.835  19.207  0.00  0.00    +0.100 A 
ATOM     13  C   UNL     1      40.802  19.872  18.706  0.00  0.00    -0.029 A 
ATOM     14  C   UNL     1      40.213  21.087  18.366  0.00  0.00    +0.159 A 
ATOM     17  C   UNL     1      40.911  22.275  18.533  0.00  0.00    -0.049 A 
ATOM     18  C   UNL     1      42.197  22.254  19.044  0.00  0.00    +0.188 A 
BRANCH  14  15
ATOM     15  O   UNL     1      38.951  21.110  17.868  0.00  0.00    -0.496 OA
ATOM     16  H   UNL     1      38.279  21.372  18.513  0.00  0.00    +0.400 HD
ENDBRANCH  14  15
BRANCH  18  19
ATOM     19  O   UNL     1      42.881  23.412  19.214  0.00  0.00    -0.478 OA
ATOM     20  H   UNL     1      43.842  23.312  19.164  0.00  0.00    +0.399 HD
ENDBRANCH  18  19
ENDBRANCH  10  11
ENDBRANCH   9  10
ENDBRANCH   8   9
TORSDOF 9
ENDMDL
MODEL 6
REMARK VINA RESULT:      -5.9      3.725      4.924
REMARK  Name = ZINC95486047
REMARK  10 active torsions:
REMARK  status: ('A' for Active; 'I' for Inactive)
REMARK    1  A    between atoms: C1_1  and  O1_2
REMARK    2  A    between atoms: O1_2  and  C2_3
REMARK    3  A    between atoms: C4_5  and  C8_10
REMARK    4  A    between atoms: C7_8  and  O2_9
REMARK    5  A    between atoms: C8_10  and  C9_11
REMARK    6  A    between atoms: C10_12  and  C11_13
REMARK    7  A    between atoms: C11_13  and  C12_14
REMARK    8  A    between atoms: C12_14  and  C13_16
REMARK    9  A    between atoms: C16_19  and  O5_23
REMARK   10  A    between atoms: C18_21  and  O4_22
REMARK                            x       y       z     vdW  Elec       q    Type
REMARK                         _______ _______ _______ _____ _____    ______ ____
ROOT
ATOM      7  C   UNL     1      44.287  16.827  21.291  0.00  0.00    -0.035 C 
ATOM      8  C   UNL     1      44.733  17.873  21.942  0.00  0.00    -0.026 C 
ENDROOT
BRANCH   7   6
ATOM      6  C   UNL     1      45.042  15.525  21.347  0.00  0.00    +0.113 C 
BRANCH   6   5
ATOM      3  C   UNL     1      46.265  15.720  17.778  0.00  0.00    +0.104 A 
ATOM      4  C   UNL     1      45.883  16.086  19.059  0.00  0.00    -0.060 A 
ATOM      5  C   UNL     1      45.458  15.125  19.955  0.00  0.00    -0.047 A 
ATOM     22  C   UNL     1      45.414  13.795  19.579  0.00  0.00    -0.003 A 
ATOM     23  C   UNL     1      45.795  13.423  18.303  0.00  0.00    +0.033 A 
ATOM     24  C   UNL     1      46.216  14.383  17.397  0.00  0.00    +0.070 A 
BRANCH   3   2
ATOM      1  C   UNL     1      48.028  17.129  17.028  0.00  0.00    +0.238 C 
ATOM      2  O   UNL     1      46.683  16.665  16.895  0.00  0.00    -0.308 OA
ENDBRANCH   3   2
BRANCH  24  25
ATOM     25  O   UNL     1      46.585  14.019  16.140  0.00  0.00    -0.487 OA
ATOM     26  H   UNL     1      46.065  13.290  15.773  0.00  0.00    +0.386 HD
ENDBRANCH  24  25
ENDBRANCH   6   5
ENDBRANCH   7   6
BRANCH   8   9
ATOM      9  C   UNL     1      43.978  19.176  21.886  0.00  0.00    +0.074 C 
BRANCH   9  10
ATOM     10  C   UNL     1      44.046  19.736  20.489  0.00  0.00    +0.397 C 
ATOM     21  O   UNL     1      45.094  19.713  19.876  0.00  0.00    -0.431 OA
BRANCH  10  11
ATOM     11  C   UNL     1      42.848  20.308  19.870  0.00  0.00    -0.213 A 
ATOM     12  C   UNL     1      41.663  19.561  19.805  0.00  0.00    +0.100 A 
ATOM     13  C   UNL     1      40.549  20.094  19.228  0.00  0.00    -0.029 A 
ATOM     14  C   UNL     1      40.578  21.383  18.700  0.00  0.00    +0.159 A 
ATOM     17  C   UNL     1      41.741  22.137  18.755  0.00  0.00    -0.049 A 
ATOM     18  C   UNL     1      42.879  21.611  19.342  0.00  0.00    +0.188 A 
BRANCH  14  15
ATOM     15  O   UNL     1      39.463  21.903  18.128  0.00  0.00    -0.496 OA
ATOM     16  H   UNL     1      39.084  21.349  17.431  0.00  0.00    +0.400 HD
ENDBRANCH  14  15
BRANCH  18  19
ATOM     19  O   UNL     1      44.016  22.345  19.403  0.00  0.00    -0.478 OA
ATOM     20  H   UNL     1      43.878  23.295  19.283  0.00  0.00    +0.399 HD
ENDBRANCH  18  19
ENDBRANCH  10  11
ENDBRANCH   9  10
ENDBRANCH   8   9
TORSDOF 9
ENDMDL
MODEL 7
REMARK VINA RESULT:      -5.7      1.963      8.201
REMARK  Name = ZINC95486047
REMARK  10 active torsions:
REMARK  status: ('A' for Active; 'I' for Inactive)
REMARK    1  A    between atoms: C1_1  and  O1_2
REMARK    2  A    between atoms: O1_2  and  C2_3
REMARK    3  A    between atoms: C4_5  and  C8_10
REMARK    4  A    between atoms: C7_8  and  O2_9
REMARK    5  A    between atoms: C8_10  and  C9_11
REMARK    6  A    between atoms: C10_12  and  C11_13
REMARK    7  A    between atoms: C11_13  and  C12_14
REMARK    8  A    between atoms: C12_14  and  C13_16
REMARK    9  A    between atoms: C16_19  and  O5_23
REMARK   10  A    between atoms: C18_21  and  O4_22
REMARK                            x       y       z     vdW  Elec       q    Type
REMARK                         _______ _______ _______ _____ _____    ______ ____
ROOT
ATOM      7  C   UNL     1      48.213  20.237  21.430  0.00  0.00    -0.035 C 
ATOM      8  C   UNL     1      48.453  18.950  21.493  0.00  0.00    -0.026 C 
ENDROOT
BRANCH   7   6
ATOM      6  C   UNL     1      47.153  20.849  22.308  0.00  0.00    +0.113 C 
BRANCH   6   5
ATOM      3  C   UNL     1      44.368  21.541  19.852  0.00  0.00    +0.104 A 
ATOM      4  C   UNL     1      45.288  20.870  20.640  0.00  0.00    -0.060 A 
ATOM      5  C   UNL     1      46.151  21.581  21.452  0.00  0.00    -0.047 A 
ATOM     22  C   UNL     1      46.098  22.962  21.483  0.00  0.00    -0.003 A 
ATOM     23  C   UNL     1      45.181  23.638  20.699  0.00  0.00    +0.033 A 
ATOM     24  C   UNL     1      44.318  22.931  19.878  0.00  0.00    +0.070 A 
BRANCH   3   2
ATOM      1  C   UNL     1      42.522  20.049  19.698  0.00  0.00    +0.238 C 
ATOM      2  O   UNL     1      43.519  20.843  19.051  0.00  0.00    -0.308 OA
ENDBRANCH   3   2
BRANCH  24  25
ATOM     25  O   UNL     1      43.419  23.595  19.102  0.00  0.00    -0.487 OA
ATOM     26  H   UNL     1      42.720  24.039  19.601  0.00  0.00    +0.386 HD
ENDBRANCH  24  25
ENDBRANCH   6   5
ENDBRANCH   7   6
BRANCH   8   9
ATOM      9  C   UNL     1      49.512  18.337  20.614  0.00  0.00    +0.074 C 
BRANCH   9  10
ATOM     10  C   UNL     1      49.133  18.520  19.167  0.00  0.00    +0.397 C 
ATOM     21  O   UNL     1      48.096  18.048  18.747  0.00  0.00    -0.431 OA
BRANCH  10  11
ATOM     11  C   UNL     1      50.014  19.268  18.268  0.00  0.00    -0.213 A 
ATOM     12  C   UNL     1      50.222  20.640  18.466  0.00  0.00    +0.100 A 
ATOM     13  C   UNL     1      51.043  21.335  17.627  0.00  0.00    -0.029 A 
ATOM     14  C   UNL     1      51.681  20.690  16.570  0.00  0.00    +0.159 A 
ATOM     17  C   UNL     1      51.487  19.333  16.359  0.00  0.00    -0.049 A 
ATOM     18  C   UNL     1      50.660  18.613  17.204  0.00  0.00    +0.188 A 
BRANCH  14  15
ATOM     15  O   UNL     1      52.494  21.392  15.742  0.00  0.00    -0.496 OA
ATOM     16  H   UNL     1      52.146  21.498  14.846  0.00  0.00    +0.400 HD
ENDBRANCH  14  15
BRANCH  18  19
ATOM     19  O   UNL     1      50.472  17.285  17.006  0.00  0.00    -0.478 OA
ATOM     20  H   UNL     1      49.901  17.077  16.253  0.00  0.00    +0.399 HD
ENDBRANCH  18  19
ENDBRANCH  10  11
ENDBRANCH   9  10
ENDBRANCH   8   9
TORSDOF 9
ENDMDL
MODEL 8
REMARK VINA RESULT:      -5.7      3.898      5.185
REMARK  Name = ZINC95486047
REMARK  10 active torsions:
REMARK  status: ('A' for Active; 'I' for Inactive)
REMARK    1  A    between atoms: C1_1  and  O1_2
REMARK    2  A    between atoms: O1_2  and  C2_3
REMARK    3  A    between atoms: C4_5  and  C8_10
REMARK    4  A    between atoms: C7_8  and  O2_9
REMARK    5  A    between atoms: C8_10  and  C9_11
REMARK    6  A    between atoms: C10_12  and  C11_13
REMARK    7  A    between atoms: C11_13  and  C12_14
REMARK    8  A    between atoms: C12_14  and  C13_16
REMARK    9  A    between atoms: C16_19  and  O5_23
REMARK   10  A    between atoms: C18_21  and  O4_22
REMARK                            x       y       z     vdW  Elec       q    Type
REMARK                         _______ _______ _______ _____ _____    ______ ____
ROOT
ATOM      7  C   UNL     1      46.736  18.811  18.775  0.00  0.00    -0.035 C 
ATOM      8  C   UNL     1      46.173  19.940  18.423  0.00  0.00    -0.026 C 
ENDROOT
BRANCH   7   6
ATOM      6  C   UNL     1      46.746  17.645  17.821  0.00  0.00    +0.113 C 
BRANCH   6   5
ATOM      3  C   UNL     1      46.060  14.026  18.660  0.00  0.00    +0.104 A 
ATOM      4  C   UNL     1      46.518  15.160  18.010  0.00  0.00    -0.060 A 
ATOM      5  C   UNL     1      46.248  16.412  18.530  0.00  0.00    -0.047 A 
ATOM     22  C   UNL     1      45.522  16.535  19.700  0.00  0.00    -0.003 A 
ATOM     23  C   UNL     1      45.063  15.407  20.354  0.00  0.00    +0.033 A 
ATOM     24  C   UNL     1      45.325  14.150  19.834  0.00  0.00    +0.070 A 
BRANCH   3   2
ATOM      1  C   UNL     1      45.501  12.348  17.069  0.00  0.00    +0.238 C 
ATOM      2  O   UNL     1      46.325  12.794  18.148  0.00  0.00    -0.308 OA
ENDBRANCH   3   2
BRANCH  24  25
ATOM     25  O   UNL     1      44.869  13.039  20.473  0.00  0.00    -0.487 OA
ATOM     26  H   UNL     1      45.556  12.386  20.665  0.00  0.00    +0.386 HD
ENDBRANCH  24  25
ENDBRANCH   6   5
ENDBRANCH   7   6
BRANCH   8   9
ATOM      9  C   UNL     1      46.162  21.107  19.377  0.00  0.00    +0.074 C 
BRANCH   9  10
ATOM     10  C   UNL     1      44.950  21.017  20.267  0.00  0.00    +0.397 C 
ATOM     21  O   UNL     1      45.075  20.707  21.434  0.00  0.00    -0.431 OA
BRANCH  10  11
ATOM     11  C   UNL     1      43.620  21.304  19.725  0.00  0.00    -0.213 A 
ATOM     12  C   UNL     1      43.260  22.619  19.399  0.00  0.00    +0.100 A 
ATOM     13  C   UNL     1      42.022  22.884  18.894  0.00  0.00    -0.029 A 
ATOM     14  C   UNL     1      41.105  21.853  18.697  0.00  0.00    +0.159 A 
ATOM     17  C   UNL     1      41.443  20.546  19.014  0.00  0.00    -0.049 A 
ATOM     18  C   UNL     1      42.699  20.260  19.523  0.00  0.00    +0.188 A 
BRANCH  14  15
ATOM     15  O   UNL     1      39.875  22.130  18.195  0.00  0.00    -0.496 OA
ATOM     16  H   UNL     1      39.376  21.346  17.926  0.00  0.00    +0.400 HD
ENDBRANCH  14  15
BRANCH  18  19
ATOM     19  O   UNL     1      43.036  18.984  19.829  0.00  0.00    -0.478 OA
ATOM     20  H   UNL     1      43.681  18.908  20.545  0.00  0.00    +0.399 HD
ENDBRANCH  18  19
ENDBRANCH  10  11
ENDBRANCH   9  10
ENDBRANCH   8   9
TORSDOF 9
ENDMDL
MODEL 9
REMARK VINA RESULT:      -5.7      2.320      8.662
REMARK  Name = ZINC95486047
REMARK  10 active torsions:
REMARK  status: ('A' for Active; 'I' for Inactive)
REMARK    1  A    between atoms: C1_1  and  O1_2
REMARK    2  A    between atoms: O1_2  and  C2_3
REMARK    3  A    between atoms: C4_5  and  C8_10
REMARK    4  A    between atoms: C7_8  and  O2_9
REMARK    5  A    between atoms: C8_10  and  C9_11
REMARK    6  A    between atoms: C10_12  and  C11_13
REMARK    7  A    between atoms: C11_13  and  C12_14
REMARK    8  A    between atoms: C12_14  and  C13_16
REMARK    9  A    between atoms: C16_19  and  O5_23
REMARK   10  A    between atoms: C18_21  and  O4_22
REMARK                            x       y       z     vdW  Elec       q    Type
REMARK                         _______ _______ _______ _____ _____    ______ ____
ROOT
ATOM      7  C   UNL     1      47.752  17.712  18.559  0.00  0.00    -0.035 C 
ATOM      8  C   UNL     1      48.841  17.478  17.868  0.00  0.00    -0.026 C 
ENDROOT
BRANCH   7   6
ATOM      6  C   UNL     1      46.676  18.601  17.992  0.00  0.00    +0.113 C 
BRANCH   6   5
ATOM      3  C   UNL     1      44.579  21.110  19.883  0.00  0.00    +0.104 A 
ATOM      4  C   UNL     1      45.224  20.449  18.851  0.00  0.00    -0.060 A 
ATOM      5  C   UNL     1      45.974  19.319  19.116  0.00  0.00    -0.047 A 
ATOM     22  C   UNL     1      46.081  18.843  20.410  0.00  0.00    -0.003 A 
ATOM     23  C   UNL     1      45.438  19.498  21.444  0.00  0.00    +0.033 A 
ATOM     24  C   UNL     1      44.691  20.636  21.186  0.00  0.00    +0.070 A 
BRANCH   3   2
ATOM      1  C   UNL     1      44.549  23.460  19.513  0.00  0.00    +0.238 C 
ATOM      2  O   UNL     1      43.842  22.223  19.624  0.00  0.00    -0.308 OA
ENDBRANCH   3   2
BRANCH  24  25
ATOM     25  O   UNL     1      44.063  21.284  22.204  0.00  0.00    -0.487 OA
ATOM     26  H   UNL     1      44.152  20.848  23.062  0.00  0.00    +0.386 HD
ENDBRANCH  24  25
ENDBRANCH   6   5
ENDBRANCH   7   6
BRANCH   8   9
ATOM      9  C   UNL     1      49.917  16.588  18.434  0.00  0.00    +0.074 C 
BRANCH   9  10
ATOM     10  C   UNL     1      51.240  17.310  18.390  0.00  0.00    +0.397 C 
ATOM     21  O   UNL     1      52.204  16.845  18.962  0.00  0.00    -0.431 OA
BRANCH  10  11
ATOM     11  C   UNL     1      51.361  18.571  17.656  0.00  0.00    -0.213 A 
ATOM     12  C   UNL     1      51.009  19.781  18.271  0.00  0.00    +0.100 A 
ATOM     13  C   UNL     1      51.123  20.955  17.585  0.00  0.00    -0.029 A 
ATOM     14  C   UNL     1      51.589  20.962  16.273  0.00  0.00    +0.159 A 
ATOM     17  C   UNL     1      51.941  19.775  15.648  0.00  0.00    -0.049 A 
ATOM     18  C   UNL     1      51.836  18.576  16.332  0.00  0.00    +0.188 A 
BRANCH  14  15
ATOM     15  O   UNL     1      51.696  22.136  15.601  0.00  0.00    -0.496 OA
ATOM     16  H   UNL     1      51.955  22.885  16.157  0.00  0.00    +0.400 HD
ENDBRANCH  14  15
BRANCH  18  19
ATOM     19  O   UNL     1      52.185  17.414  15.728  0.00  0.00    -0.478 OA
ATOM     20  H   UNL     1      52.678  17.531  14.905  0.00  0.00    +0.399 HD
ENDBRANCH  18  19
ENDBRANCH  10  11
ENDBRANCH   9  10
ENDBRANCH   8   9
TORSDOF 9
ENDMDL
