MODEL 1
REMARK VINA RESULT:      -7.4      0.000      0.000
REMARK  Name = ZINC95486140
REMARK  10 active torsions:
REMARK  status: ('A' for Active; 'I' for Inactive)
REMARK    1  A    between atoms: C1_1  and  C2_2
REMARK    2  A    between atoms: C2_2  and  C4_4
REMARK    3  A    between atoms: C7_8  and  C32_40
REMARK    4  A    between atoms: C13_17  and  C31_39
REMARK    5  A    between atoms: C16_20  and  C29_35
REMARK    6  A    between atoms: C17_22  and  C27_33
REMARK    7  A    between atoms: C17_22  and  C28_34
REMARK    8  A    between atoms: C21_27  and  C26_32
REMARK    9  A    between atoms: C22_28  and  C25_31
REMARK   10  A    between atoms: C29_35  and  C30_36
REMARK                            x       y       z     vdW  Elec       q    Type
REMARK                         _______ _______ _______ _____ _____    ______ ____
ROOT
ATOM      3  C   UNL     1      50.816  17.476  18.830  0.00  0.00    +0.031 C 
ATOM      4  C   UNL     1      52.309  17.792  19.047  0.00  0.00    +0.014 C 
ATOM      5  C   UNL     1      52.582  19.036  18.178  0.00  0.00    +0.004 C 
ATOM      6  C   UNL     1      51.252  19.853  18.244  0.00  0.00    -0.044 C 
ATOM      7  C   UNL     1      51.077  20.672  16.947  0.00  0.00    +0.025 C 
ATOM      8  C   UNL     1      51.390  20.773  19.451  0.00  0.00    +0.004 C 
ATOM      9  C   UNL     1      50.067  21.176  20.087  0.00  0.00    +0.015 C 
ATOM     10  C   UNL     1      49.281  19.921  20.473  0.00  0.00    -0.028 C 
ATOM     11  C   UNL     1      50.156  19.067  21.398  0.00  0.00    +0.014 C 
ATOM     12  C   UNL     1      47.998  20.280  21.240  0.00  0.00    -0.028 C 
ATOM     13  C   UNL     1      48.452  21.025  22.505  0.00  0.00    +0.013 C 
ATOM     14  C   UNL     1      47.276  19.003  21.676  0.00  0.00    +0.013 C 
ATOM     15  C   UNL     1      46.050  19.356  22.505  0.00  0.00    -0.001 C 
ATOM     16  C   UNL     1      45.063  20.264  21.780  0.00  0.00    -0.004 C 
ATOM     17  C   UNL     1      43.935  19.468  21.165  0.00  0.00    -0.045 C 
ATOM     18  C   UNL     1      44.421  18.189  20.478  0.00  0.00    +0.014 C 
ATOM     19  C   UNL     1      42.988  19.029  22.311  0.00  0.00    +0.001 C 
ATOM     20  C   UNL     1      43.082  20.264  20.181  0.00  0.00    +0.019 C 
ATOM     25  C   UNL     1      43.987  20.997  19.194  0.00  0.00    +0.022 C 
ATOM     26  C   UNL     1      44.797  22.028  19.960  0.00  0.00    +0.001 C 
ATOM     27  C   UNL     1      45.700  21.401  21.034  0.00  0.00    -0.027 C 
ATOM     28  C   UNL     1      45.888  22.569  22.049  0.00  0.00    -0.002 C 
ATOM     29  C   UNL     1      47.057  21.110  20.392  0.00  0.00    +0.012 C 
ATOM     30  C   UNL     1      46.789  20.429  19.047  0.00  0.00    +0.014 C 
ATOM     31  C   UNL     1      48.079  20.094  18.312  0.00  0.00    -0.002 C 
ATOM     32  C   UNL     1      48.952  19.180  19.187  0.00  0.00    +0.009 C 
ATOM     33  C   UNL     1      50.170  18.787  18.383  0.00  0.00    -0.000 C 
ENDROOT
BRANCH   3   2
ATOM      1  C   UNL     1      49.340  15.757  17.524  0.00  0.00    +0.067 C 
ATOM      2  C   UNL     1      50.668  16.435  17.743  0.00  0.00    -0.113 C 
ATOM     34  C   UNL     1      51.694  16.121  16.992  0.00  0.00    -0.013 C 
ENDBRANCH   3   2
BRANCH  20  21
ATOM     21  C   UNL     1      42.163  19.310  19.414  0.00  0.00    -0.070 C 
BRANCH  21  22
ATOM     22  C   UNL     1      40.999  20.081  18.847  0.00  0.00    +0.489 C 
ATOM     23  O   UNL     1      40.712  19.971  17.667  0.00  0.00    -0.713 OA
ATOM     24  O   UNL     1      40.343  20.813  19.568  0.00  0.00    -0.694 OA
ENDBRANCH  21  22
ENDBRANCH  20  21
TORSDOF 3
ENDMDL
MODEL 2
REMARK VINA RESULT:      -7.0      1.069      1.392
REMARK  Name = ZINC95486140
REMARK  10 active torsions:
REMARK  status: ('A' for Active; 'I' for Inactive)
REMARK    1  A    between atoms: C1_1  and  C2_2
REMARK    2  A    between atoms: C2_2  and  C4_4
REMARK    3  A    between atoms: C7_8  and  C32_40
REMARK    4  A    between atoms: C13_17  and  C31_39
REMARK    5  A    between atoms: C16_20  and  C29_35
REMARK    6  A    between atoms: C17_22  and  C27_33
REMARK    7  A    between atoms: C17_22  and  C28_34
REMARK    8  A    between atoms: C21_27  and  C26_32
REMARK    9  A    between atoms: C22_28  and  C25_31
REMARK   10  A    between atoms: C29_35  and  C30_36
REMARK                            x       y       z     vdW  Elec       q    Type
REMARK                         _______ _______ _______ _____ _____    ______ ____
ROOT
ATOM      3  C   UNL     1      50.173  15.861  19.018  0.00  0.00    +0.031 C 
ATOM      4  C   UNL     1      51.711  15.936  19.094  0.00  0.00    +0.014 C 
ATOM      5  C   UNL     1      52.115  16.918  17.976  0.00  0.00    +0.004 C 
ATOM      6  C   UNL     1      50.951  17.960  17.937  0.00  0.00    -0.044 C 
ATOM      7  C   UNL     1      50.809  18.530  16.510  0.00  0.00    +0.025 C 
ATOM      8  C   UNL     1      51.343  19.056  18.921  0.00  0.00    +0.004 C 
ATOM      9  C   UNL     1      50.164  19.807  19.524  0.00  0.00    +0.015 C 
ATOM     10  C   UNL     1      49.213  18.814  20.196  0.00  0.00    -0.028 C 
ATOM     11  C   UNL     1      50.006  18.011  21.233  0.00  0.00    +0.014 C 
ATOM     12  C   UNL     1      48.077  19.542  20.934  0.00  0.00    -0.028 C 
ATOM     13  C   UNL     1      48.754  20.422  21.996  0.00  0.00    +0.013 C 
ATOM     14  C   UNL     1      47.190  18.525  21.657  0.00  0.00    +0.013 C 
ATOM     15  C   UNL     1      46.114  19.249  22.454  0.00  0.00    -0.001 C 
ATOM     16  C   UNL     1      45.237  20.163  21.606  0.00  0.00    -0.004 C 
ATOM     17  C   UNL     1      43.943  19.480  21.222  0.00  0.00    -0.045 C 
ATOM     18  C   UNL     1      44.149  18.026  20.790  0.00  0.00    +0.014 C 
ATOM     19  C   UNL     1      43.035  19.451  22.478  0.00  0.00    +0.001 C 
ATOM     20  C   UNL     1      43.157  20.212  20.138  0.00  0.00    +0.019 C 
ATOM     25  C   UNL     1      44.087  20.564  18.979  0.00  0.00    +0.022 C 
ATOM     26  C   UNL     1      45.120  21.560  19.478  0.00  0.00    +0.001 C 
ATOM     27  C   UNL     1      45.991  20.999  20.613  0.00  0.00    -0.027 C 
ATOM     28  C   UNL     1      46.456  22.287  21.356  0.00  0.00    -0.002 C 
ATOM     29  C   UNL     1      47.221  20.349  19.980  0.00  0.00    +0.012 C 
ATOM     30  C   UNL     1      46.732  19.480  18.817  0.00  0.00    +0.014 C 
ATOM     31  C   UNL     1      47.881  18.781  18.106  0.00  0.00    -0.002 C 
ATOM     32  C   UNL     1      48.658  17.910  19.107  0.00  0.00    +0.009 C 
ATOM     33  C   UNL     1      49.722  17.156  18.343  0.00  0.00    -0.000 C 
ENDROOT
BRANCH   3   2
ATOM      1  C   UNL     1      48.844  14.866  16.998  0.00  0.00    +0.067 C 
ATOM      2  C   UNL     1      49.762  14.673  18.177  0.00  0.00    -0.113 C 
ATOM     34  C   UNL     1      50.203  13.475  18.473  0.00  0.00    -0.013 C 
ENDBRANCH   3   2
BRANCH  20  21
ATOM     21  C   UNL     1      42.030  19.310  19.628  0.00  0.00    -0.070 C 
BRANCH  21  22
ATOM     22  C   UNL     1      41.048  20.134  18.834  0.00  0.00    +0.489 C 
ATOM     23  O   UNL     1      40.709  21.233  19.238  0.00  0.00    -0.713 OA
ATOM     24  O   UNL     1      40.594  19.701  17.789  0.00  0.00    -0.694 OA
ENDBRANCH  21  22
ENDBRANCH  20  21
TORSDOF 3
ENDMDL
MODEL 3
REMARK VINA RESULT:      -6.5      4.100      7.345
REMARK  Name = ZINC95486140
REMARK  10 active torsions:
REMARK  status: ('A' for Active; 'I' for Inactive)
REMARK    1  A    between atoms: C1_1  and  C2_2
REMARK    2  A    between atoms: C2_2  and  C4_4
REMARK    3  A    between atoms: C7_8  and  C32_40
REMARK    4  A    between atoms: C13_17  and  C31_39
REMARK    5  A    between atoms: C16_20  and  C29_35
REMARK    6  A    between atoms: C17_22  and  C27_33
REMARK    7  A    between atoms: C17_22  and  C28_34
REMARK    8  A    between atoms: C21_27  and  C26_32
REMARK    9  A    between atoms: C22_28  and  C25_31
REMARK   10  A    between atoms: C29_35  and  C30_36
REMARK                            x       y       z     vdW  Elec       q    Type
REMARK                         _______ _______ _______ _____ _____    ______ ____
ROOT
ATOM      3  C   UNL     1      49.309  19.995  20.567  0.00  0.00    +0.031 C 
ATOM      4  C   UNL     1      48.633  20.978  21.545  0.00  0.00    +0.014 C 
ATOM      5  C   UNL     1      47.416  21.529  20.775  0.00  0.00    +0.004 C 
ATOM      6  C   UNL     1      46.937  20.328  19.898  0.00  0.00    -0.044 C 
ATOM      7  C   UNL     1      46.265  20.855  18.612  0.00  0.00    +0.025 C 
ATOM      8  C   UNL     1      45.938  19.560  20.755  0.00  0.00    +0.004 C 
ATOM      9  C   UNL     1      45.824  18.081  20.414  0.00  0.00    +0.015 C 
ATOM     10  C   UNL     1      47.205  17.426  20.505  0.00  0.00    -0.028 C 
ATOM     11  C   UNL     1      47.766  17.676  21.908  0.00  0.00    +0.014 C 
ATOM     12  C   UNL     1      47.115  15.906  20.298  0.00  0.00    -0.028 C 
ATOM     13  C   UNL     1      46.207  15.376  21.419  0.00  0.00    +0.013 C 
ATOM     14  C   UNL     1      48.498  15.274  20.470  0.00  0.00    +0.013 C 
ATOM     15  C   UNL     1      48.397  13.760  20.347  0.00  0.00    -0.001 C 
ATOM     16  C   UNL     1      47.797  13.294  19.026  0.00  0.00    -0.004 C 
ATOM     17  C   UNL     1      48.876  12.912  18.037  0.00  0.00    -0.045 C 
ATOM     18  C   UNL     1      50.041  13.904  18.023  0.00  0.00    +0.014 C 
ATOM     19  C   UNL     1      49.456  11.544  18.479  0.00  0.00    +0.001 C 
ATOM     20  C   UNL     1      48.368  12.724  16.610  0.00  0.00    +0.019 C 
ATOM     25  C   UNL     1      47.502  13.918  16.213  0.00  0.00    +0.022 C 
ATOM     26  C   UNL     1      46.263  13.924  17.090  0.00  0.00    +0.001 C 
ATOM     27  C   UNL     1      46.589  14.070  18.585  0.00  0.00    -0.027 C 
ATOM     28  C   UNL     1      45.350  13.420  19.272  0.00  0.00    -0.002 C 
ATOM     29  C   UNL     1      46.587  15.561  18.921  0.00  0.00    +0.012 C 
ATOM     30  C   UNL     1      47.394  16.276  17.832  0.00  0.00    +0.014 C 
ATOM     31  C   UNL     1      47.456  17.779  18.064  0.00  0.00    -0.002 C 
ATOM     32  C   UNL     1      48.080  18.066  19.439  0.00  0.00    +0.009 C 
ATOM     33  C   UNL     1      48.219  19.564  19.586  0.00  0.00    -0.000 C 
ENDROOT
BRANCH   3   2
ATOM      1  C   UNL     1      50.285  20.973  18.347  0.00  0.00    +0.067 C 
ATOM      2  C   UNL     1      50.420  20.701  19.822  0.00  0.00    -0.113 C 
ATOM     34  C   UNL     1      51.502  21.075  20.460  0.00  0.00    -0.013 C 
ENDBRANCH   3   2
BRANCH  20  21
ATOM     21  C   UNL     1      49.559  12.621  15.654  0.00  0.00    -0.070 C 
BRANCH  21  22
ATOM     22  C   UNL     1      49.402  11.399  14.786  0.00  0.00    +0.489 C 
ATOM     23  O   UNL     1      50.265  11.115  13.973  0.00  0.00    -0.713 OA
ATOM     24  O   UNL     1      48.413  10.695  14.897  0.00  0.00    -0.694 OA
ENDBRANCH  21  22
ENDBRANCH  20  21
TORSDOF 3
ENDMDL
MODEL 4
REMARK VINA RESULT:      -6.5      4.472      6.864
REMARK  Name = ZINC95486140
REMARK  10 active torsions:
REMARK  status: ('A' for Active; 'I' for Inactive)
REMARK    1  A    between atoms: C1_1  and  C2_2
REMARK    2  A    between atoms: C2_2  and  C4_4
REMARK    3  A    between atoms: C7_8  and  C32_40
REMARK    4  A    between atoms: C13_17  and  C31_39
REMARK    5  A    between atoms: C16_20  and  C29_35
REMARK    6  A    between atoms: C17_22  and  C27_33
REMARK    7  A    between atoms: C17_22  and  C28_34
REMARK    8  A    between atoms: C21_27  and  C26_32
REMARK    9  A    between atoms: C22_28  and  C25_31
REMARK   10  A    between atoms: C29_35  and  C30_36
REMARK                            x       y       z     vdW  Elec       q    Type
REMARK                         _______ _______ _______ _____ _____    ______ ____
ROOT
ATOM      3  C   UNL     1      51.945  19.525  17.744  0.00  0.00    +0.031 C 
ATOM      4  C   UNL     1      52.537  20.575  18.705  0.00  0.00    +0.014 C 
ATOM      5  C   UNL     1      51.313  21.284  19.320  0.00  0.00    +0.004 C 
ATOM      6  C   UNL     1      50.231  20.163  19.428  0.00  0.00    -0.044 C 
ATOM      7  C   UNL     1      48.822  20.785  19.320  0.00  0.00    +0.025 C 
ATOM      8  C   UNL     1      50.435  19.520  20.794  0.00  0.00    +0.004 C 
ATOM      9  C   UNL     1      49.977  18.071  20.881  0.00  0.00    +0.015 C 
ATOM     10  C   UNL     1      50.681  17.245  19.802  0.00  0.00    -0.028 C 
ATOM     11  C   UNL     1      52.195  17.406  19.982  0.00  0.00    +0.014 C 
ATOM     12  C   UNL     1      50.349  15.751  19.938  0.00  0.00    -0.028 C 
ATOM     13  C   UNL     1      50.844  15.328  21.330  0.00  0.00    +0.013 C 
ATOM     14  C   UNL     1      51.128  14.946  18.895  0.00  0.00    +0.013 C 
ATOM     15  C   UNL     1      50.862  13.459  19.081  0.00  0.00    -0.001 C 
ATOM     16  C   UNL     1      49.387  13.087  18.998  0.00  0.00    -0.004 C 
ATOM     17  C   UNL     1      49.025  12.581  17.620  0.00  0.00    -0.045 C 
ATOM     18  C   UNL     1      49.652  13.417  16.501  0.00  0.00    +0.014 C 
ATOM     19  C   UNL     1      49.595  11.146  17.480  0.00  0.00    +0.001 C 
ATOM     20  C   UNL     1      47.522  12.475  17.375  0.00  0.00    +0.019 C 
ATOM     25  C   UNL     1      46.840  13.773  17.802  0.00  0.00    +0.022 C 
ATOM     26  C   UNL     1      47.000  13.927  19.304  0.00  0.00    +0.001 C 
ATOM     27  C   UNL     1      48.470  14.014  19.743  0.00  0.00    -0.027 C 
ATOM     28  C   UNL     1      48.418  13.520  21.220  0.00  0.00    -0.002 C 
ATOM     29  C   UNL     1      48.868  15.490  19.753  0.00  0.00    +0.012 C 
ATOM     30  C   UNL     1      48.365  16.108  18.444  0.00  0.00    +0.014 C 
ATOM     31  C   UNL     1      48.705  17.589  18.346  0.00  0.00    -0.002 C 
ATOM     32  C   UNL     1      50.226  17.779  18.453  0.00  0.00    +0.009 C 
ATOM     33  C   UNL     1      50.529  19.246  18.247  0.00  0.00    -0.000 C 
ENDROOT
BRANCH   3   2
ATOM      1  C   UNL     1      51.465  21.520  16.123  0.00  0.00    +0.067 C 
ATOM      2  C   UNL     1      51.889  20.091  16.342  0.00  0.00    -0.113 C 
ATOM     34  C   UNL     1      52.209  19.339  15.318  0.00  0.00    -0.013 C 
ENDBRANCH   3   2
BRANCH  20  21
ATOM     21  C   UNL     1      47.263  12.231  15.886  0.00  0.00    -0.070 C 
BRANCH  21  22
ATOM     22  C   UNL     1      46.346  11.046  15.723  0.00  0.00    +0.489 C 
ATOM     23  O   UNL     1      46.174  10.277  16.653  0.00  0.00    -0.713 OA
ATOM     24  O   UNL     1      45.775  10.858  14.663  0.00  0.00    -0.694 OA
ENDBRANCH  21  22
ENDBRANCH  20  21
TORSDOF 3
ENDMDL
MODEL 5
REMARK VINA RESULT:      -6.4      4.405      7.586
REMARK  Name = ZINC95486140
REMARK  10 active torsions:
REMARK  status: ('A' for Active; 'I' for Inactive)
REMARK    1  A    between atoms: C1_1  and  C2_2
REMARK    2  A    between atoms: C2_2  and  C4_4
REMARK    3  A    between atoms: C7_8  and  C32_40
REMARK    4  A    between atoms: C13_17  and  C31_39
REMARK    5  A    between atoms: C16_20  and  C29_35
REMARK    6  A    between atoms: C17_22  and  C27_33
REMARK    7  A    between atoms: C17_22  and  C28_34
REMARK    8  A    between atoms: C21_27  and  C26_32
REMARK    9  A    between atoms: C22_28  and  C25_31
REMARK   10  A    between atoms: C29_35  and  C30_36
REMARK                            x       y       z     vdW  Elec       q    Type
REMARK                         _______ _______ _______ _____ _____    ______ ____
ROOT
ATOM      3  C   UNL     1      49.254  12.977  14.872  0.00  0.00    +0.031 C 
ATOM      4  C   UNL     1      48.339  11.763  14.611  0.00  0.00    +0.014 C 
ATOM      5  C   UNL     1      48.682  10.761  15.732  0.00  0.00    +0.004 C 
ATOM      6  C   UNL     1      49.011  11.659  16.967  0.00  0.00    -0.044 C 
ATOM      7  C   UNL     1      50.020  10.937  17.884  0.00  0.00    +0.025 C 
ATOM      8  C   UNL     1      47.686  11.878  17.686  0.00  0.00    +0.004 C 
ATOM      9  C   UNL     1      47.615  13.168  18.492  0.00  0.00    +0.015 C 
ATOM     10  C   UNL     1      47.919  14.359  17.581  0.00  0.00    -0.028 C 
ATOM     11  C   UNL     1      46.936  14.332  16.405  0.00  0.00    +0.014 C 
ATOM     12  C   UNL     1      47.728  15.691  18.323  0.00  0.00    -0.028 C 
ATOM     13  C   UNL     1      46.255  15.728  18.761  0.00  0.00    +0.013 C 
ATOM     14  C   UNL     1      47.966  16.861  17.364  0.00  0.00    +0.013 C 
ATOM     15  C   UNL     1      47.697  18.180  18.076  0.00  0.00    -0.001 C 
ATOM     16  C   UNL     1      48.542  18.381  19.328  0.00  0.00    -0.004 C 
ATOM     17  C   UNL     1      49.756  19.234  19.038  0.00  0.00    -0.045 C 
ATOM     18  C   UNL     1      50.443  18.856  17.723  0.00  0.00    +0.014 C 
ATOM     19  C   UNL     1      49.278  20.701  18.890  0.00  0.00    +0.001 C 
ATOM     20  C   UNL     1      50.795  19.230  20.157  0.00  0.00    +0.019 C 
ATOM     25  C   UNL     1      51.084  17.792  20.583  0.00  0.00    +0.022 C 
ATOM     26  C   UNL     1      49.822  17.210  21.195  0.00  0.00    +0.001 C 
ATOM     27  C   UNL     1      48.644  17.169  20.209  0.00  0.00    -0.027 C 
ATOM     28  C   UNL     1      47.405  17.183  21.154  0.00  0.00    -0.002 C 
ATOM     29  C   UNL     1      48.678  15.818  19.496  0.00  0.00    +0.012 C 
ATOM     30  C   UNL     1      50.124  15.570  19.055  0.00  0.00    +0.014 C 
ATOM     31  C   UNL     1      50.279  14.240  18.331  0.00  0.00    -0.002 C 
ATOM     32  C   UNL     1      49.355  14.208  17.103  0.00  0.00    +0.009 C 
ATOM     33  C   UNL     1      49.614  12.920  16.356  0.00  0.00    -0.000 C 
ENDROOT
BRANCH   3   2
ATOM      1  C   UNL     1      51.842  12.649  14.701  0.00  0.00    +0.067 C 
ATOM      2  C   UNL     1      50.508  12.859  14.035  0.00  0.00    -0.113 C 
ATOM     34  C   UNL     1      50.435  12.940  12.729  0.00  0.00    -0.013 C 
ENDBRANCH   3   2
BRANCH  20  21
ATOM     21  C   UNL     1      52.087  19.880  19.656  0.00  0.00    -0.070 C 
BRANCH  21  22
ATOM     22  C   UNL     1      52.505  20.968  20.612  0.00  0.00    +0.489 C 
ATOM     23  O   UNL     1      52.523  20.751  21.812  0.00  0.00    -0.713 OA
ATOM     24  O   UNL     1      52.825  22.064  20.186  0.00  0.00    -0.694 OA
ENDBRANCH  21  22
ENDBRANCH  20  21
TORSDOF 3
ENDMDL
MODEL 6
REMARK VINA RESULT:      -5.7      4.231      7.453
REMARK  Name = ZINC95486140
REMARK  10 active torsions:
REMARK  status: ('A' for Active; 'I' for Inactive)
REMARK    1  A    between atoms: C1_1  and  C2_2
REMARK    2  A    between atoms: C2_2  and  C4_4
REMARK    3  A    between atoms: C7_8  and  C32_40
REMARK    4  A    between atoms: C13_17  and  C31_39
REMARK    5  A    between atoms: C16_20  and  C29_35
REMARK    6  A    between atoms: C17_22  and  C27_33
REMARK    7  A    between atoms: C17_22  and  C28_34
REMARK    8  A    between atoms: C21_27  and  C26_32
REMARK    9  A    between atoms: C22_28  and  C25_31
REMARK   10  A    between atoms: C29_35  and  C30_36
REMARK                            x       y       z     vdW  Elec       q    Type
REMARK                         _______ _______ _______ _____ _____    ______ ____
ROOT
ATOM      3  C   UNL     1      50.289  12.368  14.214  0.00  0.00    +0.031 C 
ATOM      4  C   UNL     1      50.324  10.841  13.998  0.00  0.00    +0.014 C 
ATOM      5  C   UNL     1      51.394  10.327  14.982  0.00  0.00    +0.004 C 
ATOM      6  C   UNL     1      51.269  11.272  16.219  0.00  0.00    -0.044 C 
ATOM      7  C   UNL     1      52.636  11.390  16.927  0.00  0.00    +0.025 C 
ATOM      8  C   UNL     1      50.240  10.622  17.135  0.00  0.00    +0.004 C 
ATOM      9  C   UNL     1      49.496  11.599  18.036  0.00  0.00    +0.015 C 
ATOM     10  C   UNL     1      48.829  12.679  17.180  0.00  0.00    -0.028 C 
ATOM     11  C   UNL     1      47.916  11.991  16.159  0.00  0.00    +0.014 C 
ATOM     12  C   UNL     1      47.957  13.609  18.038  0.00  0.00    -0.028 C 
ATOM     13  C   UNL     1      46.886  12.715  18.684  0.00  0.00    +0.013 C 
ATOM     14  C   UNL     1      47.245  14.628  17.144  0.00  0.00    +0.013 C 
ATOM     15  C   UNL     1      46.318  15.497  17.982  0.00  0.00    -0.001 C 
ATOM     16  C   UNL     1      47.028  16.234  19.111  0.00  0.00    -0.004 C 
ATOM     17  C   UNL     1      47.363  17.655  18.713  0.00  0.00    -0.045 C 
ATOM     18  C   UNL     1      47.915  17.754  17.289  0.00  0.00    +0.014 C 
ATOM     19  C   UNL     1      46.048  18.475  18.743  0.00  0.00    +0.001 C 
ATOM     20  C   UNL     1      48.328  18.352  19.668  0.00  0.00    +0.019 C 
ATOM     25  C   UNL     1      49.525  17.444  19.941  0.00  0.00    +0.022 C 
ATOM     26  C   UNL     1      49.034  16.213  20.684  0.00  0.00    +0.001 C 
ATOM     27  C   UNL     1      48.012  15.397  19.877  0.00  0.00    -0.027 C 
ATOM     28  C   UNL     1      47.213  14.652  20.988  0.00  0.00    -0.002 C 
ATOM     29  C   UNL     1      48.781  14.353  19.068  0.00  0.00    +0.012 C 
ATOM     30  C   UNL     1      49.964  15.067  18.407  0.00  0.00    +0.014 C 
ATOM     31  C   UNL     1      50.810  14.116  17.573  0.00  0.00    -0.002 C 
ATOM     32  C   UNL     1      49.937  13.459  16.492  0.00  0.00    +0.009 C 
ATOM     33  C   UNL     1      50.832  12.605  15.623  0.00  0.00    -0.000 C 
ENDROOT
BRANCH   3   2
ATOM      1  C   UNL     1      50.865  12.945  11.730  0.00  0.00    +0.067 C 
ATOM      2  C   UNL     1      51.182  13.046  13.199  0.00  0.00    -0.113 C 
ATOM     34  C   UNL     1      52.232  13.722  13.597  0.00  0.00    -0.013 C 
ENDBRANCH   3   2
BRANCH  20  21
ATOM     21  C   UNL     1      48.817  19.658  19.036  0.00  0.00    -0.070 C 
BRANCH  21  22
ATOM     22  C   UNL     1      49.405  20.544  20.105  0.00  0.00    +0.489 C 
ATOM     23  O   UNL     1      48.698  20.966  21.003  0.00  0.00    -0.713 OA
ATOM     24  O   UNL     1      50.588  20.836  20.071  0.00  0.00    -0.694 OA
ENDBRANCH  21  22
ENDBRANCH  20  21
TORSDOF 3
ENDMDL
MODEL 7
REMARK VINA RESULT:      -5.6      2.075      3.658
REMARK  Name = ZINC95486140
REMARK  10 active torsions:
REMARK  status: ('A' for Active; 'I' for Inactive)
REMARK    1  A    between atoms: C1_1  and  C2_2
REMARK    2  A    between atoms: C2_2  and  C4_4
REMARK    3  A    between atoms: C7_8  and  C32_40
REMARK    4  A    between atoms: C13_17  and  C31_39
REMARK    5  A    between atoms: C16_20  and  C29_35
REMARK    6  A    between atoms: C17_22  and  C27_33
REMARK    7  A    between atoms: C17_22  and  C28_34
REMARK    8  A    between atoms: C21_27  and  C26_32
REMARK    9  A    between atoms: C22_28  and  C25_31
REMARK   10  A    between atoms: C29_35  and  C30_36
REMARK                            x       y       z     vdW  Elec       q    Type
REMARK                         _______ _______ _______ _____ _____    ______ ____
ROOT
ATOM      3  C   UNL     1      51.210  18.274  17.789  0.00  0.00    +0.031 C 
ATOM      4  C   UNL     1      52.311  17.198  17.883  0.00  0.00    +0.014 C 
ATOM      5  C   UNL     1      52.942  17.398  19.276  0.00  0.00    +0.004 C 
ATOM      6  C   UNL     1      51.752  17.851  20.179  0.00  0.00    -0.044 C 
ATOM      7  C   UNL     1      52.274  18.750  21.320  0.00  0.00    +0.025 C 
ATOM      8  C   UNL     1      51.142  16.570  20.735  0.00  0.00    +0.004 C 
ATOM      9  C   UNL     1      49.666  16.682  21.092  0.00  0.00    +0.015 C 
ATOM     10  C   UNL     1      48.876  17.149  19.867  0.00  0.00    -0.028 C 
ATOM     11  C   UNL     1      49.143  16.171  18.718  0.00  0.00    +0.014 C 
ATOM     12  C   UNL     1      47.365  17.147  20.145  0.00  0.00    -0.028 C 
ATOM     13  C   UNL     1      46.995  15.694  20.485  0.00  0.00    +0.013 C 
ATOM     14  C   UNL     1      46.601  17.545  18.879  0.00  0.00    +0.013 C 
ATOM     15  C   UNL     1      45.102  17.465  19.129  0.00  0.00    -0.001 C 
ATOM     16  C   UNL     1      44.629  18.331  20.290  0.00  0.00    -0.004 C 
ATOM     17  C   UNL     1      44.081  19.653  19.800  0.00  0.00    -0.045 C 
ATOM     18  C   UNL     1      44.944  20.278  18.701  0.00  0.00    +0.014 C 
ATOM     19  C   UNL     1      42.687  19.385  19.179  0.00  0.00    +0.001 C 
ATOM     20  C   UNL     1      43.870  20.682  20.908  0.00  0.00    +0.019 C 
ATOM     25  C   UNL     1      45.124  20.767  21.775  0.00  0.00    +0.022 C 
ATOM     26  C   UNL     1      45.308  19.437  22.484  0.00  0.00    +0.001 C 
ATOM     27  C   UNL     1      45.501  18.263  21.510  0.00  0.00    -0.027 C 
ATOM     28  C   UNL     1      45.024  17.040  22.349  0.00  0.00    -0.002 C 
ATOM     29  C   UNL     1      47.001  18.107  21.259  0.00  0.00    +0.012 C 
ATOM     30  C   UNL     1      47.566  19.504  20.981  0.00  0.00    +0.014 C 
ATOM     31  C   UNL     1      49.065  19.470  20.718  0.00  0.00    -0.002 C 
ATOM     32  C   UNL     1      49.360  18.549  19.524  0.00  0.00    +0.009 C 
ATOM     33  C   UNL     1      50.842  18.624  19.231  0.00  0.00    -0.000 C 
ENDROOT
BRANCH   3   2
ATOM      1  C   UNL     1      52.141  19.422  15.633  0.00  0.00    +0.067 C 
ATOM      2  C   UNL     1      51.753  19.498  17.086  0.00  0.00    -0.113 C 
ATOM     34  C   UNL     1      51.886  20.626  17.741  0.00  0.00    -0.013 C 
ENDBRANCH   3   2
BRANCH  20  21
ATOM     21  C   UNL     1      43.590  22.052  20.285  0.00  0.00    -0.070 C 
BRANCH  21  22
ATOM     22  C   UNL     1      44.468  23.089  20.937  0.00  0.00    +0.489 C 
ATOM     23  O   UNL     1      45.316  23.669  20.280  0.00  0.00    -0.713 OA
ATOM     24  O   UNL     1      44.329  23.349  22.120  0.00  0.00    -0.694 OA
ENDBRANCH  21  22
ENDBRANCH  20  21
TORSDOF 3
ENDMDL
MODEL 8
REMARK VINA RESULT:      -5.5      4.273      7.913
REMARK  Name = ZINC95486140
REMARK  10 active torsions:
REMARK  status: ('A' for Active; 'I' for Inactive)
REMARK    1  A    between atoms: C1_1  and  C2_2
REMARK    2  A    between atoms: C2_2  and  C4_4
REMARK    3  A    between atoms: C7_8  and  C32_40
REMARK    4  A    between atoms: C13_17  and  C31_39
REMARK    5  A    between atoms: C16_20  and  C29_35
REMARK    6  A    between atoms: C17_22  and  C27_33
REMARK    7  A    between atoms: C17_22  and  C28_34
REMARK    8  A    between atoms: C21_27  and  C26_32
REMARK    9  A    between atoms: C22_28  and  C25_31
REMARK   10  A    between atoms: C29_35  and  C30_36
REMARK                            x       y       z     vdW  Elec       q    Type
REMARK                         _______ _______ _______ _____ _____    ______ ____
ROOT
ATOM      3  C   UNL     1      43.618  19.195  19.841  0.00  0.00    +0.031 C 
ATOM      4  C   UNL     1      43.309  20.527  19.129  0.00  0.00    +0.014 C 
ATOM      5  C   UNL     1      44.132  21.584  19.893  0.00  0.00    +0.004 C 
ATOM      6  C   UNL     1      45.430  20.828  20.323  0.00  0.00    -0.044 C 
ATOM      7  C   UNL     1      45.982  21.439  21.628  0.00  0.00    +0.025 C 
ATOM      8  C   UNL     1      46.417  21.014  19.177  0.00  0.00    +0.004 C 
ATOM      9  C   UNL     1      47.452  19.905  19.055  0.00  0.00    +0.015 C 
ATOM     10  C   UNL     1      46.745  18.555  18.922  0.00  0.00    -0.028 C 
ATOM     11  C   UNL     1      45.795  18.623  17.721  0.00  0.00    +0.014 C 
ATOM     12  C   UNL     1      47.750  17.422  18.662  0.00  0.00    -0.028 C 
ATOM     13  C   UNL     1      48.459  17.774  17.345  0.00  0.00    +0.013 C 
ATOM     14  C   UNL     1      47.005  16.100  18.459  0.00  0.00    +0.013 C 
ATOM     15  C   UNL     1      47.993  14.993  18.121  0.00  0.00    -0.001 C 
ATOM     16  C   UNL     1      49.076  14.798  19.175  0.00  0.00    -0.004 C 
ATOM     17  C   UNL     1      48.728  13.666  20.116  0.00  0.00    -0.045 C 
ATOM     18  C   UNL     1      47.258  13.685  20.544  0.00  0.00    +0.014 C 
ATOM     19  C   UNL     1      48.956  12.334  19.356  0.00  0.00    +0.001 C 
ATOM     20  C   UNL     1      49.606  13.607  21.363  0.00  0.00    +0.019 C 
ATOM     25  C   UNL     1      49.687  14.993  21.999  0.00  0.00    +0.022 C 
ATOM     26  C   UNL     1      50.406  15.921  21.037  0.00  0.00    +0.001 C 
ATOM     27  C   UNL     1      49.674  16.074  19.694  0.00  0.00    -0.027 C 
ATOM     28  C   UNL     1      50.823  16.472  18.719  0.00  0.00    -0.002 C 
ATOM     29  C   UNL     1      48.722  17.264  19.813  0.00  0.00    +0.012 C 
ATOM     30  C   UNL     1      47.974  17.121  21.143  0.00  0.00    +0.014 C 
ATOM     31  C   UNL     1      46.993  18.262  21.371  0.00  0.00    -0.002 C 
ATOM     32  C   UNL     1      45.982  18.315  20.215  0.00  0.00    +0.009 C 
ATOM     33  C   UNL     1      44.967  19.390  20.531  0.00  0.00    -0.000 C 
ENDROOT
BRANCH   3   2
ATOM      1  C   UNL     1      42.927  18.309  22.201  0.00  0.00    +0.067 C 
ATOM      2  C   UNL     1      42.550  18.909  20.873  0.00  0.00    -0.113 C 
ATOM     34  C   UNL     1      41.295  19.184  20.612  0.00  0.00    -0.013 C 
ENDBRANCH   3   2
BRANCH  20  21
ATOM     21  C   UNL     1      49.002  12.622  22.367  0.00  0.00    -0.070 C 
BRANCH  21  22
ATOM     22  C   UNL     1      49.877  11.398  22.459  0.00  0.00    +0.489 C 
ATOM     23  O   UNL     1      51.090  11.518  22.494  0.00  0.00    -0.713 OA
ATOM     24  O   UNL     1      49.372  10.290  22.500  0.00  0.00    -0.694 OA
ENDBRANCH  21  22
ENDBRANCH  20  21
TORSDOF 3
ENDMDL
MODEL 9
REMARK VINA RESULT:      -5.5      3.509      7.541
REMARK  Name = ZINC95486140
REMARK  10 active torsions:
REMARK  status: ('A' for Active; 'I' for Inactive)
REMARK    1  A    between atoms: C1_1  and  C2_2
REMARK    2  A    between atoms: C2_2  and  C4_4
REMARK    3  A    between atoms: C7_8  and  C32_40
REMARK    4  A    between atoms: C13_17  and  C31_39
REMARK    5  A    between atoms: C16_20  and  C29_35
REMARK    6  A    between atoms: C17_22  and  C27_33
REMARK    7  A    between atoms: C17_22  and  C28_34
REMARK    8  A    between atoms: C21_27  and  C26_32
REMARK    9  A    between atoms: C22_28  and  C25_31
REMARK   10  A    between atoms: C29_35  and  C30_36
REMARK                            x       y       z     vdW  Elec       q    Type
REMARK                         _______ _______ _______ _____ _____    ______ ____
ROOT
ATOM      3  C   UNL     1      43.627  20.528  18.958  0.00  0.00    +0.031 C 
ATOM      4  C   UNL     1      43.634  22.058  19.149  0.00  0.00    +0.014 C 
ATOM      5  C   UNL     1      43.932  22.268  20.648  0.00  0.00    +0.004 C 
ATOM      6  C   UNL     1      44.898  21.097  21.018  0.00  0.00    -0.044 C 
ATOM      7  C   UNL     1      44.722  20.725  22.505  0.00  0.00    +0.025 C 
ATOM      8  C   UNL     1      46.305  21.620  20.753  0.00  0.00    +0.004 C 
ATOM      9  C   UNL     1      47.325  20.539  20.426  0.00  0.00    +0.015 C 
ATOM     10  C   UNL     1      46.837  19.719  19.229  0.00  0.00    -0.028 C 
ATOM     11  C   UNL     1      46.582  20.676  18.059  0.00  0.00    +0.014 C 
ATOM     12  C   UNL     1      47.898  18.702  18.781  0.00  0.00    -0.028 C 
ATOM     13  C   UNL     1      49.136  19.523  18.385  0.00  0.00    +0.013 C 
ATOM     14  C   UNL     1      47.411  17.953  17.537  0.00  0.00    +0.013 C 
ATOM     15  C   UNL     1      48.493  17.004  17.044  0.00  0.00    -0.001 C 
ATOM     16  C   UNL     1      48.942  15.992  18.092  0.00  0.00    -0.004 C 
ATOM     17  C   UNL     1      48.241  14.665  17.908  0.00  0.00    -0.045 C 
ATOM     18  C   UNL     1      46.748  14.823  17.608  0.00  0.00    +0.014 C 
ATOM     19  C   UNL     1      48.874  13.964  16.678  0.00  0.00    +0.001 C 
ATOM     20  C   UNL     1      48.411  13.708  19.085  0.00  0.00    +0.019 C 
ATOM     25  C   UNL     1      48.105  14.441  20.389  0.00  0.00    +0.022 C 
ATOM     26  C   UNL     1      49.152  15.523  20.588  0.00  0.00    +0.001 C 
ATOM     27  C   UNL     1      49.151  16.569  19.462  0.00  0.00    -0.027 C 
ATOM     28  C   UNL     1      50.606  17.125  19.509  0.00  0.00    -0.002 C 
ATOM     29  C   UNL     1      48.202  17.696  19.871  0.00  0.00    +0.012 C 
ATOM     30  C   UNL     1      46.914  17.044  20.385  0.00  0.00    +0.014 C 
ATOM     31  C   UNL     1      45.889  18.079  20.827  0.00  0.00    -0.002 C 
ATOM     32  C   UNL     1      45.559  19.015  19.654  0.00  0.00    +0.009 C 
ATOM     33  C   UNL     1      44.465  19.958  20.101  0.00  0.00    -0.000 C 
ENDROOT
BRANCH   3   2
ATOM      1  C   UNL     1      41.199  20.383  17.999  0.00  0.00    +0.067 C 
ATOM      2  C   UNL     1      42.210  20.009  19.051  0.00  0.00    -0.113 C 
ATOM     34  C   UNL     1      41.860  19.233  20.048  0.00  0.00    -0.013 C 
ENDBRANCH   3   2
BRANCH  20  21
ATOM     21  C   UNL     1      47.447  12.529  18.928  0.00  0.00    -0.070 C 
BRANCH  21  22
ATOM     22  C   UNL     1      48.235  11.263  18.709  0.00  0.00    +0.489 C 
ATOM     23  O   UNL     1      47.810  10.404  17.954  0.00  0.00    -0.713 OA
ATOM     24  O   UNL     1      49.296  11.097  19.285  0.00  0.00    -0.694 OA
ENDBRANCH  21  22
ENDBRANCH  20  21
TORSDOF 3
ENDMDL
