MODEL 1
REMARK VINA RESULT:      -6.2      0.000      0.000
REMARK  Name = ZINC95486056
REMARK  7 active torsions:
REMARK  status: ('A' for Active; 'I' for Inactive)
REMARK    1  A    between atoms: C4_4  and  C7_7
REMARK    2  A    between atoms: C8_8  and  C9_9
REMARK    3  A    between atoms: C9_9  and  C10_11
REMARK    4  A    between atoms: C11_12  and  O6_23
REMARK    5  A    between atoms: C12_13  and  C17_21
REMARK    6  A    between atoms: C14_15  and  C16_18
REMARK    7  A    between atoms: C15_16  and  O2_17
REMARK                            x       y       z     vdW  Elec       q    Type
REMARK                         _______ _______ _______ _____ _____    ______ ____
ROOT
ATOM      8  C   UNL     1      45.402  20.438  20.294  0.00  0.00    -0.361 A 
ATOM      9  C   UNL     1      45.112  19.309  21.075  0.00  0.00    +0.265 A 
ATOM     12  C   UNL     1      43.806  18.790  21.104  0.00  0.00    -0.361 A 
ATOM     15  C   UNL     1      42.791  19.403  20.351  0.00  0.00    +0.358 A 
ATOM     16  O   UNL     1      41.535  18.904  20.378  0.00  0.00    -0.595 OA
ATOM     17  C   UNL     1      43.082  20.533  19.570  0.00  0.00    -0.361 A 
ATOM     20  C   UNL     1      44.388  21.053  19.547  0.00  0.00    +0.264 A 
ENDROOT
BRANCH   8   7
ATOM      7  C   UNL     1      46.770  20.981  20.264  0.00  0.00    +0.468 C 
ATOM     23  O   UNL     1      47.104  21.834  21.067  0.00  0.00    -0.465 OA
BRANCH   7   6
ATOM      5  C   UNL     1      49.040  20.782  19.401  0.00  0.00    +0.089 C 
ATOM      6  C   UNL     1      47.729  20.493  19.271  0.00  0.00    -0.073 C 
BRANCH   5   4
ATOM      1  C   UNL     1      51.820  19.374  16.524  0.00  0.00    +0.007 A 
ATOM      2  C   UNL     1      51.811  20.713  16.874  0.00  0.00    -0.001 A 
ATOM      3  C   UNL     1      50.910  21.179  17.808  0.00  0.00    +0.026 A 
ATOM      4  C   UNL     1      50.004  20.293  18.402  0.00  0.00    -0.068 A 
ATOM     24  C   UNL     1      50.021  18.942  18.044  0.00  0.00    +0.028 A 
ATOM     25  C   UNL     1      50.928  18.492  17.108  0.00  0.00    +0.004 A 
ENDBRANCH   5   4
ENDBRANCH   7   6
ENDBRANCH   8   7
BRANCH   9  10
ATOM     10  O   UNL     1      46.090  18.720  21.798  0.00  0.00    -0.502 OA
ATOM     11  H   UNL     1      46.884  18.509  21.287  0.00  0.00    +0.395 HD
ENDBRANCH   9  10
BRANCH  12  13
ATOM     13  C   UNL     1      43.505  17.613  21.918  0.00  0.00    +0.453 C 
ATOM     14  O   UNL     1      44.013  16.544  21.650  0.00  0.00    -0.457 OA
ENDBRANCH  12  13
BRANCH  17  18
ATOM     18  C   UNL     1      42.026  21.172  18.786  0.00  0.00    +0.453 C 
ATOM     19  O   UNL     1      41.719  22.325  19.008  0.00  0.00    -0.457 OA
ENDBRANCH  17  18
BRANCH  20  21
ATOM     21  O   UNL     1      44.666  22.145  18.799  0.00  0.00    -0.499 OA
ATOM     22  H   UNL     1      43.904  22.501  18.325  0.00  0.00    +0.391 HD
ENDBRANCH  20  21
TORSDOF 7
ENDMDL
MODEL 2
REMARK VINA RESULT:      -6.2      0.052      3.183
REMARK  Name = ZINC95486056
REMARK  7 active torsions:
REMARK  status: ('A' for Active; 'I' for Inactive)
REMARK    1  A    between atoms: C4_4  and  C7_7
REMARK    2  A    between atoms: C8_8  and  C9_9
REMARK    3  A    between atoms: C9_9  and  C10_11
REMARK    4  A    between atoms: C11_12  and  O6_23
REMARK    5  A    between atoms: C12_13  and  C17_21
REMARK    6  A    between atoms: C14_15  and  C16_18
REMARK    7  A    between atoms: C15_16  and  O2_17
REMARK                            x       y       z     vdW  Elec       q    Type
REMARK                         _______ _______ _______ _____ _____    ______ ____
ROOT
ATOM      8  C   UNL     1      45.401  20.425  20.339  0.00  0.00    -0.361 A 
ATOM      9  C   UNL     1      44.392  21.030  19.576  0.00  0.00    +0.265 A 
ATOM     12  C   UNL     1      43.084  20.514  19.603  0.00  0.00    -0.361 A 
ATOM     15  C   UNL     1      42.789  19.393  20.396  0.00  0.00    +0.358 A 
ATOM     16  O   UNL     1      41.532  18.897  20.424  0.00  0.00    -0.595 OA
ATOM     17  C   UNL     1      43.800  18.788  21.160  0.00  0.00    -0.361 A 
ATOM     20  C   UNL     1      45.108  19.302  21.126  0.00  0.00    +0.264 A 
ENDROOT
BRANCH   8   7
ATOM      7  C   UNL     1      46.770  20.965  20.309  0.00  0.00    +0.468 C 
ATOM     23  O   UNL     1      47.104  21.825  21.105  0.00  0.00    -0.465 OA
BRANCH   7   6
ATOM      5  C   UNL     1      49.031  20.815  19.412  0.00  0.00    +0.089 C 
ATOM      6  C   UNL     1      47.731  20.467  19.322  0.00  0.00    -0.073 C 
BRANCH   5   4
ATOM      1  C   UNL     1      51.812  19.375  16.551  0.00  0.00    +0.007 A 
ATOM      2  C   UNL     1      50.956  18.490  17.186  0.00  0.00    -0.001 A 
ATOM      3  C   UNL     1      50.050  18.950  18.117  0.00  0.00    +0.026 A 
ATOM      4  C   UNL     1      49.997  20.315  18.420  0.00  0.00    -0.068 A 
ATOM     24  C   UNL     1      50.864  21.202  17.774  0.00  0.00    +0.028 A 
ATOM     25  C   UNL     1      51.765  20.726  16.845  0.00  0.00    +0.004 A 
ENDBRANCH   5   4
ENDBRANCH   7   6
ENDBRANCH   8   7
BRANCH   9  10
ATOM     10  O   UNL     1      44.677  22.109  18.814  0.00  0.00    -0.502 OA
ATOM     11  H   UNL     1      43.903  22.508  18.391  0.00  0.00    +0.395 HD
ENDBRANCH   9  10
BRANCH  12  13
ATOM     13  C   UNL     1      42.033  21.146  18.807  0.00  0.00    +0.453 C 
ATOM     14  O   UNL     1      41.742  22.308  18.999  0.00  0.00    -0.457 OA
ENDBRANCH  12  13
BRANCH  17  18
ATOM     18  C   UNL     1      43.495  17.621  21.986  0.00  0.00    +0.453 C 
ATOM     19  O   UNL     1      43.982  16.542  21.716  0.00  0.00    -0.457 OA
ENDBRANCH  17  18
BRANCH  20  21
ATOM     21  O   UNL     1      46.083  18.716  21.857  0.00  0.00    -0.499 OA
ATOM     22  H   UNL     1      45.839  18.553  22.777  0.00  0.00    +0.391 HD
ENDBRANCH  20  21
TORSDOF 7
ENDMDL
MODEL 3
REMARK VINA RESULT:      -5.7      1.625      2.981
REMARK  Name = ZINC95486056
REMARK  7 active torsions:
REMARK  status: ('A' for Active; 'I' for Inactive)
REMARK    1  A    between atoms: C4_4  and  C7_7
REMARK    2  A    between atoms: C8_8  and  C9_9
REMARK    3  A    between atoms: C9_9  and  C10_11
REMARK    4  A    between atoms: C11_12  and  O6_23
REMARK    5  A    between atoms: C12_13  and  C17_21
REMARK    6  A    between atoms: C14_15  and  C16_18
REMARK    7  A    between atoms: C15_16  and  O2_17
REMARK                            x       y       z     vdW  Elec       q    Type
REMARK                         _______ _______ _______ _____ _____    ______ ____
ROOT
ATOM      8  C   UNL     1      46.265  20.401  20.075  0.00  0.00    -0.361 A 
ATOM      9  C   UNL     1      45.100  19.941  19.444  0.00  0.00    +0.265 A 
ATOM     12  C   UNL     1      43.978  20.781  19.340  0.00  0.00    -0.361 A 
ATOM     15  C   UNL     1      44.023  22.082  19.868  0.00  0.00    +0.358 A 
ATOM     16  O   UNL     1      42.945  22.890  19.768  0.00  0.00    -0.595 OA
ATOM     17  C   UNL     1      45.190  22.541  20.500  0.00  0.00    -0.361 A 
ATOM     20  C   UNL     1      46.309  21.697  20.608  0.00  0.00    +0.264 A 
ENDROOT
BRANCH   8   7
ATOM      7  C   UNL     1      47.439  19.520  20.184  0.00  0.00    +0.468 C 
ATOM     23  O   UNL     1      47.637  18.893  21.209  0.00  0.00    -0.465 OA
BRANCH   7   6
ATOM      5  C   UNL     1      49.532  20.082  19.068  0.00  0.00    +0.089 C 
ATOM      6  C   UNL     1      48.369  19.399  19.059  0.00  0.00    -0.073 C 
BRANCH   5   4
ATOM      1  C   UNL     1      52.222  19.732  15.807  0.00  0.00    +0.007 A 
ATOM      2  C   UNL     1      51.603  18.602  16.314  0.00  0.00    -0.001 A 
ATOM      3  C   UNL     1      50.728  18.707  17.374  0.00  0.00    +0.026 A 
ATOM      4  C   UNL     1      50.466  19.961  17.937  0.00  0.00    -0.068 A 
ATOM     24  C   UNL     1      51.094  21.097  17.419  0.00  0.00    +0.028 A 
ATOM     25  C   UNL     1      51.967  20.976  16.359  0.00  0.00    +0.004 A 
ENDBRANCH   5   4
ENDBRANCH   7   6
ENDBRANCH   8   7
BRANCH   9  10
ATOM     10  O   UNL     1      45.057  18.690  18.935  0.00  0.00    -0.502 OA
ATOM     11  H   UNL     1      44.922  18.000  19.600  0.00  0.00    +0.395 HD
ENDBRANCH   9  10
BRANCH  12  13
ATOM     13  C   UNL     1      42.763  20.301  18.681  0.00  0.00    +0.453 C 
ATOM     14  O   UNL     1      42.070  19.465  19.223  0.00  0.00    -0.457 OA
ENDBRANCH  12  13
BRANCH  17  18
ATOM     18  C   UNL     1      45.240  23.895  21.051  0.00  0.00    +0.453 C 
ATOM     19  O   UNL     1      46.235  24.575  20.900  0.00  0.00    -0.457 OA
ENDBRANCH  17  18
BRANCH  20  21
ATOM     21  O   UNL     1      47.431  22.137  21.221  0.00  0.00    -0.499 OA
ATOM     22  H   UNL     1      47.388  22.110  22.186  0.00  0.00    +0.391 HD
ENDBRANCH  20  21
TORSDOF 7
ENDMDL
MODEL 4
REMARK VINA RESULT:      -5.7      1.619      3.237
REMARK  Name = ZINC95486056
REMARK  7 active torsions:
REMARK  status: ('A' for Active; 'I' for Inactive)
REMARK    1  A    between atoms: C4_4  and  C7_7
REMARK    2  A    between atoms: C8_8  and  C9_9
REMARK    3  A    between atoms: C9_9  and  C10_11
REMARK    4  A    between atoms: C11_12  and  O6_23
REMARK    5  A    between atoms: C12_13  and  C17_21
REMARK    6  A    between atoms: C14_15  and  C16_18
REMARK    7  A    between atoms: C15_16  and  O2_17
REMARK                            x       y       z     vdW  Elec       q    Type
REMARK                         _______ _______ _______ _____ _____    ______ ____
ROOT
ATOM      8  C   UNL     1      46.180  20.317  20.005  0.00  0.00    -0.361 A 
ATOM      9  C   UNL     1      46.249  21.607  20.550  0.00  0.00    +0.265 A 
ATOM     12  C   UNL     1      45.138  22.464  20.471  0.00  0.00    -0.361 A 
ATOM     15  C   UNL     1      43.959  22.028  19.845  0.00  0.00    +0.358 A 
ATOM     16  O   UNL     1      42.889  22.852  19.770  0.00  0.00    -0.595 OA
ATOM     17  C   UNL     1      43.891  20.736  19.300  0.00  0.00    -0.361 A 
ATOM     20  C   UNL     1      45.006  19.883  19.375  0.00  0.00    +0.264 A 
ENDROOT
BRANCH   8   7
ATOM      7  C   UNL     1      47.345  19.420  20.087  0.00  0.00    +0.468 C 
ATOM     23  O   UNL     1      47.520  18.738  21.081  0.00  0.00    -0.465 OA
BRANCH   7   6
ATOM      5  C   UNL     1      49.469  20.002  19.045  0.00  0.00    +0.089 C 
ATOM      6  C   UNL     1      48.292  19.347  18.972  0.00  0.00    -0.073 C 
BRANCH   5   4
ATOM      1  C   UNL     1      52.210  19.794  15.814  0.00  0.00    +0.007 A 
ATOM      2  C   UNL     1      51.598  18.640  16.273  0.00  0.00    -0.001 A 
ATOM      3  C   UNL     1      50.706  18.700  17.323  0.00  0.00    +0.026 A 
ATOM      4  C   UNL     1      50.421  19.930  17.925  0.00  0.00    -0.068 A 
ATOM     24  C   UNL     1      51.043  21.091  17.455  0.00  0.00    +0.028 A 
ATOM     25  C   UNL     1      51.933  21.015  16.404  0.00  0.00    +0.004 A 
ENDBRANCH   5   4
ENDBRANCH   7   6
ENDBRANCH   8   7
BRANCH   9  10
ATOM     10  O   UNL     1      47.385  22.025  21.152  0.00  0.00    -0.502 OA
ATOM     11  H   UNL     1      47.374  21.937  22.115  0.00  0.00    +0.395 HD
ENDBRANCH   9  10
BRANCH  12  13
ATOM     13  C   UNL     1      45.211  23.810  21.040  0.00  0.00    +0.453 C 
ATOM     14  O   UNL     1      45.950  24.637  20.548  0.00  0.00    -0.457 OA
ENDBRANCH  12  13
BRANCH  17  18
ATOM     18  C   UNL     1      42.664  20.280  18.648  0.00  0.00    +0.453 C 
ATOM     19  O   UNL     1      41.948  19.470  19.202  0.00  0.00    -0.457 OA
ENDBRANCH  17  18
BRANCH  20  21
ATOM     21  O   UNL     1      44.942  18.641  18.844  0.00  0.00    -0.499 OA
ATOM     22  H   UNL     1      44.685  18.624  17.913  0.00  0.00    +0.391 HD
ENDBRANCH  20  21
TORSDOF 7
ENDMDL
MODEL 5
REMARK VINA RESULT:      -5.7      3.675      5.308
REMARK  Name = ZINC95486056
REMARK  7 active torsions:
REMARK  status: ('A' for Active; 'I' for Inactive)
REMARK    1  A    between atoms: C4_4  and  C7_7
REMARK    2  A    between atoms: C8_8  and  C9_9
REMARK    3  A    between atoms: C9_9  and  C10_11
REMARK    4  A    between atoms: C11_12  and  O6_23
REMARK    5  A    between atoms: C12_13  and  C17_21
REMARK    6  A    between atoms: C14_15  and  C16_18
REMARK    7  A    between atoms: C15_16  and  O2_17
REMARK                            x       y       z     vdW  Elec       q    Type
REMARK                         _______ _______ _______ _____ _____    ______ ____
ROOT
ATOM      8  C   UNL     1      43.411  20.007  20.242  0.00  0.00    -0.361 A 
ATOM      9  C   UNL     1      42.187  20.211  19.589  0.00  0.00    +0.265 A 
ATOM     12  C   UNL     1      41.859  21.484  19.091  0.00  0.00    -0.361 A 
ATOM     15  C   UNL     1      42.757  22.552  19.249  0.00  0.00    +0.358 A 
ATOM     16  O   UNL     1      42.443  23.776  18.771  0.00  0.00    -0.595 OA
ATOM     17  C   UNL     1      43.983  22.346  19.903  0.00  0.00    -0.361 A 
ATOM     20  C   UNL     1      44.306  21.073  20.405  0.00  0.00    +0.264 A 
ENDROOT
BRANCH   8   7
ATOM      7  C   UNL     1      43.754  18.673  20.763  0.00  0.00    +0.468 C 
ATOM     23  O   UNL     1      43.496  18.386  21.918  0.00  0.00    -0.465 OA
BRANCH   7   6
ATOM      5  C   UNL     1      44.800  16.504  20.392  0.00  0.00    +0.089 C 
ATOM      6  C   UNL     1      44.404  17.692  19.891  0.00  0.00    -0.073 C 
BRANCH   5   4
ATOM      1  C   UNL     1      46.688  13.664  17.869  0.00  0.00    +0.007 A 
ATOM      2  C   UNL     1      46.805  15.016  17.593  0.00  0.00    -0.001 A 
ATOM      3  C   UNL     1      46.194  15.945  18.408  0.00  0.00    +0.026 A 
ATOM      4  C   UNL     1      45.454  15.518  19.516  0.00  0.00    -0.068 A 
ATOM     24  C   UNL     1      45.342  14.151  19.788  0.00  0.00    +0.028 A 
ATOM     25  C   UNL     1      45.959  13.234  18.964  0.00  0.00    +0.004 A 
ENDBRANCH   5   4
ENDBRANCH   7   6
ENDBRANCH   8   7
BRANCH   9  10
ATOM     10  O   UNL     1      41.324  19.182  19.437  0.00  0.00    -0.502 OA
ATOM     11  H   UNL     1      41.011  19.062  18.529  0.00  0.00    +0.395 HD
ENDBRANCH   9  10
BRANCH  12  13
ATOM     13  C   UNL     1      40.582  21.696  18.410  0.00  0.00    +0.453 C 
ATOM     14  O   UNL     1      39.541  21.477  18.992  0.00  0.00    -0.457 OA
ENDBRANCH  12  13
BRANCH  17  18
ATOM     18  C   UNL     1      44.920  23.457  20.069  0.00  0.00    +0.453 C 
ATOM     19  O   UNL     1      45.373  23.710  21.167  0.00  0.00    -0.457 OA
ENDBRANCH  17  18
BRANCH  20  21
ATOM     21  O   UNL     1      45.483  20.877  21.040  0.00  0.00    -0.499 OA
ATOM     22  H   UNL     1      46.001  21.683  21.167  0.00  0.00    +0.391 HD
ENDBRANCH  20  21
TORSDOF 7
ENDMDL
MODEL 6
REMARK VINA RESULT:      -5.6      3.685      5.161
REMARK  Name = ZINC95486056
REMARK  7 active torsions:
REMARK  status: ('A' for Active; 'I' for Inactive)
REMARK    1  A    between atoms: C4_4  and  C7_7
REMARK    2  A    between atoms: C8_8  and  C9_9
REMARK    3  A    between atoms: C9_9  and  C10_11
REMARK    4  A    between atoms: C11_12  and  O6_23
REMARK    5  A    between atoms: C12_13  and  C17_21
REMARK    6  A    between atoms: C14_15  and  C16_18
REMARK    7  A    between atoms: C15_16  and  O2_17
REMARK                            x       y       z     vdW  Elec       q    Type
REMARK                         _______ _______ _______ _____ _____    ______ ____
ROOT
ATOM      8  C   UNL     1      43.404  19.989  20.280  0.00  0.00    -0.361 A 
ATOM      9  C   UNL     1      44.310  21.047  20.443  0.00  0.00    +0.265 A 
ATOM     12  C   UNL     1      43.996  22.325  19.949  0.00  0.00    -0.361 A 
ATOM     15  C   UNL     1      42.774  22.541  19.290  0.00  0.00    +0.358 A 
ATOM     16  O   UNL     1      42.471  23.769  18.814  0.00  0.00    -0.595 OA
ATOM     17  C   UNL     1      41.868  21.481  19.127  0.00  0.00    -0.361 A 
ATOM     20  C   UNL     1      42.188  20.202  19.617  0.00  0.00    +0.264 A 
ENDROOT
BRANCH   8   7
ATOM      7  C   UNL     1      43.735  18.651  20.798  0.00  0.00    +0.468 C 
ATOM     23  O   UNL     1      43.442  18.351  21.942  0.00  0.00    -0.465 OA
BRANCH   7   6
ATOM      5  C   UNL     1      44.736  16.462  20.417  0.00  0.00    +0.089 C 
ATOM      6  C   UNL     1      44.414  17.681  19.936  0.00  0.00    -0.073 C 
BRANCH   5   4
ATOM      1  C   UNL     1      46.708  13.653  17.925  0.00  0.00    +0.007 A 
ATOM      2  C   UNL     1      46.800  15.006  17.645  0.00  0.00    -0.001 A 
ATOM      3  C   UNL     1      46.161  15.925  18.450  0.00  0.00    +0.026 A 
ATOM      4  C   UNL     1      45.419  15.487  19.552  0.00  0.00    -0.068 A 
ATOM     24  C   UNL     1      45.333  14.119  19.829  0.00  0.00    +0.028 A 
ATOM     25  C   UNL     1      45.977  13.212  19.015  0.00  0.00    +0.004 A 
ENDBRANCH   5   4
ENDBRANCH   7   6
ENDBRANCH   8   7
BRANCH   9  10
ATOM     10  O   UNL     1      45.485  20.838  21.078  0.00  0.00    -0.502 OA
ATOM     11  H   UNL     1      45.963  21.650  21.297  0.00  0.00    +0.395 HD
ENDBRANCH   9  10
BRANCH  12  13
ATOM     13  C   UNL     1      44.941  23.428  20.120  0.00  0.00    +0.453 C 
ATOM     14  O   UNL     1      45.377  23.687  21.222  0.00  0.00    -0.457 OA
ENDBRANCH  12  13
BRANCH  17  18
ATOM     18  C   UNL     1      40.596  21.704  18.441  0.00  0.00    +0.453 C 
ATOM     19  O   UNL     1      39.553  21.397  18.982  0.00  0.00    -0.457 OA
ENDBRANCH  17  18
BRANCH  20  21
ATOM     21  O   UNL     1      41.318  19.180  19.455  0.00  0.00    -0.499 OA
ATOM     22  H   UNL     1      41.090  19.000  18.533  0.00  0.00    +0.391 HD
ENDBRANCH  20  21
TORSDOF 7
ENDMDL
MODEL 7
REMARK VINA RESULT:      -5.3      6.170      8.353
REMARK  Name = ZINC95486056
REMARK  7 active torsions:
REMARK  status: ('A' for Active; 'I' for Inactive)
REMARK    1  A    between atoms: C4_4  and  C7_7
REMARK    2  A    between atoms: C8_8  and  C9_9
REMARK    3  A    between atoms: C9_9  and  C10_11
REMARK    4  A    between atoms: C11_12  and  O6_23
REMARK    5  A    between atoms: C12_13  and  C17_21
REMARK    6  A    between atoms: C14_15  and  C16_18
REMARK    7  A    between atoms: C15_16  and  O2_17
REMARK                            x       y       z     vdW  Elec       q    Type
REMARK                         _______ _______ _______ _____ _____    ______ ____
ROOT
ATOM      8  C   UNL     1      50.235  14.034  16.604  0.00  0.00    -0.361 A 
ATOM      9  C   UNL     1      50.593  13.564  15.333  0.00  0.00    +0.265 A 
ATOM     12  C   UNL     1      49.652  12.874  14.547  0.00  0.00    -0.361 A 
ATOM     15  C   UNL     1      48.354  12.655  15.038  0.00  0.00    +0.358 A 
ATOM     16  O   UNL     1      47.450  11.992  14.284  0.00  0.00    -0.595 OA
ATOM     17  C   UNL     1      47.997  13.127  16.311  0.00  0.00    -0.361 A 
ATOM     20  C   UNL     1      48.942  13.811  17.097  0.00  0.00    +0.264 A 
ENDROOT
BRANCH   8   7
ATOM      7  C   UNL     1      51.220  14.756  17.426  0.00  0.00    +0.468 C 
ATOM     23  O   UNL     1      51.776  14.189  18.349  0.00  0.00    -0.465 OA
BRANCH   7   6
ATOM      5  C   UNL     1      50.672  17.130  17.494  0.00  0.00    +0.089 C 
ATOM      6  C   UNL     1      51.533  16.156  17.131  0.00  0.00    -0.073 C 
BRANCH   5   4
ATOM      1  C   UNL     1      51.572  21.185  16.636  0.00  0.00    +0.007 A 
ATOM      2  C   UNL     1      52.008  20.187  15.781  0.00  0.00    -0.001 A 
ATOM      3  C   UNL     1      51.720  18.867  16.053  0.00  0.00    +0.026 A 
ATOM      4  C   UNL     1      50.985  18.537  17.197  0.00  0.00    -0.068 A 
ATOM     24  C   UNL     1      50.547  19.551  18.055  0.00  0.00    +0.028 A 
ATOM     25  C   UNL     1      50.843  20.866  17.769  0.00  0.00    +0.004 A 
ENDBRANCH   5   4
ENDBRANCH   7   6
ENDBRANCH   8   7
BRANCH   9  10
ATOM     10  O   UNL     1      51.842  13.775  14.862  0.00  0.00    -0.502 OA
ATOM     11  H   UNL     1      52.214  13.021  14.383  0.00  0.00    +0.395 HD
ENDBRANCH   9  10
BRANCH  12  13
ATOM     13  C   UNL     1      50.026  12.383  13.221  0.00  0.00    +0.453 C 
ATOM     14  O   UNL     1      50.412  13.161  12.374  0.00  0.00    -0.457 OA
ENDBRANCH  12  13
BRANCH  17  18
ATOM     18  C   UNL     1      46.647  12.901  16.824  0.00  0.00    +0.453 C 
ATOM     19  O   UNL     1      46.480  12.216  17.812  0.00  0.00    -0.457 OA
ENDBRANCH  17  18
BRANCH  20  21
ATOM     21  O   UNL     1      48.599  14.260  18.325  0.00  0.00    -0.499 OA
ATOM     22  H   UNL     1      48.126  15.102  18.318  0.00  0.00    +0.391 HD
ENDBRANCH  20  21
TORSDOF 7
ENDMDL
MODEL 8
REMARK VINA RESULT:      -5.3      6.178      8.250
REMARK  Name = ZINC95486056
REMARK  7 active torsions:
REMARK  status: ('A' for Active; 'I' for Inactive)
REMARK    1  A    between atoms: C4_4  and  C7_7
REMARK    2  A    between atoms: C8_8  and  C9_9
REMARK    3  A    between atoms: C9_9  and  C10_11
REMARK    4  A    between atoms: C11_12  and  O6_23
REMARK    5  A    between atoms: C12_13  and  C17_21
REMARK    6  A    between atoms: C14_15  and  C16_18
REMARK    7  A    between atoms: C15_16  and  O2_17
REMARK                            x       y       z     vdW  Elec       q    Type
REMARK                         _______ _______ _______ _____ _____    ______ ____
ROOT
ATOM      8  C   UNL     1      50.271  14.016  16.648  0.00  0.00    -0.361 A 
ATOM      9  C   UNL     1      48.961  13.820  17.108  0.00  0.00    +0.265 A 
ATOM     12  C   UNL     1      48.023  13.154  16.300  0.00  0.00    -0.361 A 
ATOM     15  C   UNL     1      48.399  12.685  15.030  0.00  0.00    +0.358 A 
ATOM     16  O   UNL     1      47.499  12.044  14.252  0.00  0.00    -0.595 OA
ATOM     17  C   UNL     1      49.711  12.882  14.570  0.00  0.00    -0.361 A 
ATOM     20  C   UNL     1      50.646  13.553  15.379  0.00  0.00    +0.264 A 
ENDROOT
BRANCH   8   7
ATOM      7  C   UNL     1      51.252  14.713  17.495  0.00  0.00    +0.468 C 
ATOM     23  O   UNL     1      51.790  14.125  18.417  0.00  0.00    -0.465 OA
BRANCH   7   6
ATOM      5  C   UNL     1      50.648  17.072  17.400  0.00  0.00    +0.089 C 
ATOM      6  C   UNL     1      51.583  16.115  17.228  0.00  0.00    -0.073 C 
BRANCH   5   4
ATOM      1  C   UNL     1      51.601  21.132  16.622  0.00  0.00    +0.007 A 
ATOM      2  C   UNL     1      52.009  20.147  15.739  0.00  0.00    -0.001 A 
ATOM      3  C   UNL     1      51.704  18.825  15.985  0.00  0.00    +0.026 A 
ATOM      4  C   UNL     1      50.979  18.481  17.131  0.00  0.00    -0.068 A 
ATOM     24  C   UNL     1      50.570  19.481  18.018  0.00  0.00    +0.028 A 
ATOM     25  C   UNL     1      50.883  20.799  17.758  0.00  0.00    +0.004 A 
ENDBRANCH   5   4
ENDBRANCH   7   6
ENDBRANCH   8   7
BRANCH   9  10
ATOM     10  O   UNL     1      48.601  14.271  18.330  0.00  0.00    -0.502 OA
ATOM     11  H   UNL     1      48.542  13.579  19.003  0.00  0.00    +0.395 HD
ENDBRANCH   9  10
BRANCH  12  13
ATOM     13  C   UNL     1      46.657  12.951  16.780  0.00  0.00    +0.453 C 
ATOM     14  O   UNL     1      46.464  12.374  17.830  0.00  0.00    -0.457 OA
ENDBRANCH  12  13
BRANCH  17  18
ATOM     18  C   UNL     1      50.105  12.394  13.249  0.00  0.00    +0.453 C 
ATOM     19  O   UNL     1      50.408  13.183  12.377  0.00  0.00    -0.457 OA
ENDBRANCH  17  18
BRANCH  20  21
ATOM     21  O   UNL     1      51.908  13.747  14.934  0.00  0.00    -0.499 OA
ATOM     22  H   UNL     1      51.963  14.278  14.128  0.00  0.00    +0.391 HD
ENDBRANCH  20  21
TORSDOF 7
ENDMDL
MODEL 9
REMARK VINA RESULT:      -5.3      5.658      7.921
REMARK  Name = ZINC95486056
REMARK  7 active torsions:
REMARK  status: ('A' for Active; 'I' for Inactive)
REMARK    1  A    between atoms: C4_4  and  C7_7
REMARK    2  A    between atoms: C8_8  and  C9_9
REMARK    3  A    between atoms: C9_9  and  C10_11
REMARK    4  A    between atoms: C11_12  and  O6_23
REMARK    5  A    between atoms: C12_13  and  C17_21
REMARK    6  A    between atoms: C14_15  and  C16_18
REMARK    7  A    between atoms: C15_16  and  O2_17
REMARK                            x       y       z     vdW  Elec       q    Type
REMARK                         _______ _______ _______ _____ _____    ______ ____
ROOT
ATOM      8  C   UNL     1      48.825  14.462  17.258  0.00  0.00    -0.361 A 
ATOM      9  C   UNL     1      49.940  13.759  17.738  0.00  0.00    +0.265 A 
ATOM     12  C   UNL     1      50.321  12.547  17.137  0.00  0.00    -0.361 A 
ATOM     15  C   UNL     1      49.584  12.040  16.054  0.00  0.00    +0.358 A 
ATOM     16  O   UNL     1      49.949  10.875  15.474  0.00  0.00    -0.595 OA
ATOM     17  C   UNL     1      48.468  12.744  15.573  0.00  0.00    -0.361 A 
ATOM     20  C   UNL     1      48.086  13.953  16.181  0.00  0.00    +0.264 A 
ENDROOT
BRANCH   8   7
ATOM      7  C   UNL     1      48.427  15.731  17.889  0.00  0.00    +0.468 C 
ATOM     23  O   UNL     1      47.652  15.727  18.829  0.00  0.00    -0.465 OA
BRANCH   7   6
ATOM      5  C   UNL     1      50.112  17.491  17.898  0.00  0.00    +0.089 C 
ATOM      6  C   UNL     1      48.965  16.997  17.388  0.00  0.00    -0.073 C 
BRANCH   5   4
ATOM      1  C   UNL     1      51.667  21.161  16.446  0.00  0.00    +0.007 A 
ATOM      2  C   UNL     1      51.813  20.006  15.696  0.00  0.00    -0.001 A 
ATOM      3  C   UNL     1      51.311  18.810  16.161  0.00  0.00    +0.026 A 
ATOM      4  C   UNL     1      50.652  18.764  17.395  0.00  0.00    -0.068 A 
ATOM     24  C   UNL     1      50.508  19.935  18.145  0.00  0.00    +0.028 A 
ATOM     25  C   UNL     1      51.016  21.124  17.667  0.00  0.00    +0.004 A 
ENDBRANCH   5   4
ENDBRANCH   7   6
ENDBRANCH   8   7
BRANCH   9  10
ATOM     10  O   UNL     1      50.648  14.249  18.780  0.00  0.00    -0.502 OA
ATOM     11  H   UNL     1      51.096  15.086  18.592  0.00  0.00    +0.395 HD
ENDBRANCH   9  10
BRANCH  12  13
ATOM     13  C   UNL     1      51.483  11.815  17.638  0.00  0.00    +0.453 C 
ATOM     14  O   UNL     1      52.527  12.400  17.839  0.00  0.00    -0.457 OA
ENDBRANCH  12  13
BRANCH  17  18
ATOM     18  C   UNL     1      47.699  12.217  14.447  0.00  0.00    +0.453 C 
ATOM     19  O   UNL     1      47.650  12.837  13.403  0.00  0.00    -0.457 OA
ENDBRANCH  17  18
BRANCH  20  21
ATOM     21  O   UNL     1      47.008  14.628  15.722  0.00  0.00    -0.499 OA
ATOM     22  H   UNL     1      46.541  15.132  16.402  0.00  0.00    +0.391 HD
ENDBRANCH  20  21
TORSDOF 7
ENDMDL
