MODEL 1
REMARK VINA RESULT:      -5.9      0.000      0.000
REMARK  Name = ZINC31539795
REMARK  7 active torsions:
REMARK  status: ('A' for Active; 'I' for Inactive)
REMARK    1  A    between atoms: C3_3  and  O8_27
REMARK    2  A    between atoms: C6_6  and  C7_7
REMARK    3  A    between atoms: C11_14  and  O7_26
REMARK    4  A    between atoms: C12_16  and  C14_21
REMARK    5  A    between atoms: C14_21  and  C15_23
REMARK    6  A    between atoms: C14_21  and  O6_25
REMARK    7  A    between atoms: C15_23  and  O5_24
REMARK                            x       y       z     vdW  Elec       q    Type
REMARK                         _______ _______ _______ _____ _____    ______ ____
ROOT
ATOM      9  C   UNL     1      43.008  19.843  20.626  0.00  0.00    +0.072 C 
ATOM     10  C   UNL     1      41.728  19.202  20.023  0.00  0.00    +0.072 C 
ATOM     11  C   UNL     1      41.383  20.182  18.905  0.00  0.00    +0.490 C 
ATOM     12  O   UNL     1      42.579  20.568  18.393  0.00  0.00    -0.308 OA
ATOM     13  O   UNL     1      40.282  20.538  18.553  0.00  0.00    -0.413 OA
ATOM     14  C   UNL     1      43.483  20.750  19.482  0.00  0.00    +0.061 C 
ATOM     15  C   UNL     1      43.529  22.219  19.935  0.00  0.00    +0.185 C 
ATOM     18  C   UNL     1      45.028  22.569  19.747  0.00  0.00    +0.130 C 
ATOM     25  O   UNL     1      45.692  21.286  19.782  0.00  0.00    -0.329 OA
ATOM     26  C   UNL     1      44.905  20.424  19.087  0.00  0.00    +0.511 C 
ATOM     27  O   UNL     1      45.268  19.570  18.314  0.00  0.00    -0.390 OA
ENDROOT
BRANCH   9   8
ATOM      1  C   UNL     1      45.003  19.037  21.901  0.00  0.00    +0.056 A 
ATOM      2  C   UNL     1      45.951  18.073  22.194  0.00  0.00    -0.014 A 
ATOM      3  C   UNL     1      45.931  16.859  21.524  0.00  0.00    +0.121 A 
ATOM      6  C   UNL     1      44.962  16.615  20.561  0.00  0.00    -0.006 A 
ATOM      7  C   UNL     1      44.018  17.581  20.273  0.00  0.00    +0.053 A 
ATOM      8  C   UNL     1      44.039  18.791  20.942  0.00  0.00    -0.126 A 
BRANCH   3   4
ATOM      4  O   UNL     1      46.862  15.910  21.809  0.00  0.00    -0.499 OA
ATOM      5  H   UNL     1      47.648  16.253  22.255  0.00  0.00    +0.395 HD
ENDBRANCH   3   4
ENDBRANCH   9   8
BRANCH  15  16
ATOM     16  O   UNL     1      42.706  23.036  19.100  0.00  0.00    -0.530 OA
ATOM     17  H   UNL     1      42.709  22.775  18.169  0.00  0.00    +0.393 HD
ENDBRANCH  15  16
BRANCH  18  19
ATOM     19  C   UNL     1      45.518  23.462  20.888  0.00  0.00    +0.251 C 
BRANCH  19  20
ATOM     20  O   UNL     1      44.427  23.760  21.762  0.00  0.00    -0.542 OA
ATOM     21  H   UNL     1      44.267  23.084  22.435  0.00  0.00    +0.383 HD
ENDBRANCH  19  20
BRANCH  19  22
ATOM     22  C   UNL     1      46.614  22.735  21.671  0.00  0.00    +0.163 C 
BRANCH  22  23
ATOM     23  O   UNL     1      47.348  23.679  22.452  0.00  0.00    -0.563 OA
ATOM     24  H   UNL     1      48.245  23.394  22.673  0.00  0.00    +0.386 HD
ENDBRANCH  22  23
ENDBRANCH  19  22
ENDBRANCH  18  19
TORSDOF 7
ENDMDL
MODEL 2
REMARK VINA RESULT:      -5.8      2.629      3.745
REMARK  Name = ZINC31539795
REMARK  7 active torsions:
REMARK  status: ('A' for Active; 'I' for Inactive)
REMARK    1  A    between atoms: C3_3  and  O8_27
REMARK    2  A    between atoms: C6_6  and  C7_7
REMARK    3  A    between atoms: C11_14  and  O7_26
REMARK    4  A    between atoms: C12_16  and  C14_21
REMARK    5  A    between atoms: C14_21  and  C15_23
REMARK    6  A    between atoms: C14_21  and  O6_25
REMARK    7  A    between atoms: C15_23  and  O5_24
REMARK                            x       y       z     vdW  Elec       q    Type
REMARK                         _______ _______ _______ _____ _____    ______ ____
ROOT
ATOM      9  C   UNL     1      46.173  19.002  20.990  0.00  0.00    +0.072 C 
ATOM     10  C   UNL     1      45.980  17.549  21.502  0.00  0.00    +0.072 C 
ATOM     11  C   UNL     1      44.490  17.327  21.261  0.00  0.00    +0.490 C 
ATOM     12  O   UNL     1      44.224  17.961  20.090  0.00  0.00    -0.308 OA
ATOM     13  O   UNL     1      43.713  16.719  21.960  0.00  0.00    -0.413 OA
ATOM     14  C   UNL     1      44.948  19.191  20.084  0.00  0.00    +0.061 C 
ATOM     15  C   UNL     1      44.078  20.358  20.580  0.00  0.00    +0.185 C 
ATOM     18  C   UNL     1      44.106  21.322  19.366  0.00  0.00    +0.130 C 
ATOM     25  O   UNL     1      45.303  20.943  18.650  0.00  0.00    -0.329 OA
ATOM     26  C   UNL     1      45.363  19.587  18.687  0.00  0.00    +0.511 C 
ATOM     27  O   UNL     1      45.685  18.849  17.786  0.00  0.00    -0.390 OA
ENDROOT
BRANCH   9   8
ATOM      1  C   UNL     1      48.037  20.370  20.033  0.00  0.00    +0.056 A 
ATOM      2  C   UNL     1      49.209  20.489  19.309  0.00  0.00    -0.014 A 
ATOM      3  C   UNL     1      49.796  19.362  18.752  0.00  0.00    +0.121 A 
ATOM      6  C   UNL     1      49.205  18.119  18.922  0.00  0.00    -0.006 A 
ATOM      7  C   UNL     1      48.034  18.006  19.646  0.00  0.00    +0.053 A 
ATOM      8  C   UNL     1      47.450  19.129  20.201  0.00  0.00    -0.126 A 
BRANCH   3   4
ATOM      4  O   UNL     1      50.948  19.477  18.041  0.00  0.00    -0.499 OA
ATOM      5  H   UNL     1      50.822  19.800  17.138  0.00  0.00    +0.395 HD
ENDBRANCH   3   4
ENDBRANCH   9   8
BRANCH  15  16
ATOM     16  O   UNL     1      42.745  19.920  20.852  0.00  0.00    -0.530 OA
ATOM     17  H   UNL     1      42.670  18.971  21.024  0.00  0.00    +0.393 HD
ENDBRANCH  15  16
BRANCH  18  19
ATOM     19  C   UNL     1      44.196  22.775  19.837  0.00  0.00    +0.251 C 
BRANCH  19  20
ATOM     20  O   UNL     1      42.879  23.319  19.955  0.00  0.00    -0.542 OA
ATOM     21  H   UNL     1      42.304  22.827  20.557  0.00  0.00    +0.383 HD
ENDBRANCH  19  20
BRANCH  19  22
ATOM     22  C   UNL     1      44.894  22.829  21.197  0.00  0.00    +0.163 C 
BRANCH  22  23
ATOM     23  O   UNL     1      44.058  23.510  22.134  0.00  0.00    -0.563 OA
ATOM     24  H   UNL     1      43.398  24.087  21.726  0.00  0.00    +0.386 HD
ENDBRANCH  22  23
ENDBRANCH  19  22
ENDBRANCH  18  19
TORSDOF 7
ENDMDL
MODEL 3
REMARK VINA RESULT:      -5.6      1.935      4.506
REMARK  Name = ZINC31539795
REMARK  7 active torsions:
REMARK  status: ('A' for Active; 'I' for Inactive)
REMARK    1  A    between atoms: C3_3  and  O8_27
REMARK    2  A    between atoms: C6_6  and  C7_7
REMARK    3  A    between atoms: C11_14  and  O7_26
REMARK    4  A    between atoms: C12_16  and  C14_21
REMARK    5  A    between atoms: C14_21  and  C15_23
REMARK    6  A    between atoms: C14_21  and  O6_25
REMARK    7  A    between atoms: C15_23  and  O5_24
REMARK                            x       y       z     vdW  Elec       q    Type
REMARK                         _______ _______ _______ _____ _____    ______ ____
ROOT
ATOM      9  C   UNL     1      46.136  20.865  19.519  0.00  0.00    +0.072 C 
ATOM     10  C   UNL     1      47.325  21.458  20.323  0.00  0.00    +0.072 C 
ATOM     11  C   UNL     1      46.606  22.317  21.358  0.00  0.00    +0.490 C 
ATOM     12  O   UNL     1      45.497  21.611  21.693  0.00  0.00    -0.308 OA
ATOM     13  O   UNL     1      46.950  23.394  21.788  0.00  0.00    -0.413 OA
ATOM     14  C   UNL     1      44.968  21.035  20.499  0.00  0.00    +0.061 C 
ATOM     15  C   UNL     1      43.868  21.921  19.889  0.00  0.00    +0.185 C 
ATOM     18  C   UNL     1      42.650  20.961  19.874  0.00  0.00    +0.130 C 
ATOM     25  O   UNL     1      43.245  19.644  19.906  0.00  0.00    -0.329 OA
ATOM     26  C   UNL     1      44.290  19.712  20.770  0.00  0.00    +0.511 C 
ATOM     27  O   UNL     1      44.613  18.884  21.588  0.00  0.00    -0.390 OA
ENDROOT
BRANCH   9   8
ATOM      1  C   UNL     1      47.223  18.663  19.998  0.00  0.00    +0.056 A 
ATOM      2  C   UNL     1      47.438  17.327  19.715  0.00  0.00    -0.014 A 
ATOM      3  C   UNL     1      46.795  16.736  18.637  0.00  0.00    +0.121 A 
ATOM      6  C   UNL     1      45.939  17.488  17.845  0.00  0.00    -0.006 A 
ATOM      7  C   UNL     1      45.728  18.822  18.133  0.00  0.00    +0.053 A 
ATOM      8  C   UNL     1      46.369  19.409  19.208  0.00  0.00    -0.126 A 
BRANCH   3   4
ATOM      4  O   UNL     1      47.005  15.423  18.356  0.00  0.00    -0.499 OA
ATOM      5  H   UNL     1      47.762  15.261  17.776  0.00  0.00    +0.395 HD
ENDBRANCH   3   4
ENDBRANCH   9   8
BRANCH  15  16
ATOM     16  O   UNL     1      43.612  23.058  20.715  0.00  0.00    -0.530 OA
ATOM     17  H   UNL     1      44.402  23.566  20.940  0.00  0.00    +0.393 HD
ENDBRANCH  15  16
BRANCH  18  19
ATOM     19  C   UNL     1      41.831  21.153  18.596  0.00  0.00    +0.251 C 
BRANCH  19  20
ATOM     20  O   UNL     1      42.122  20.094  17.681  0.00  0.00    -0.542 OA
ATOM     21  H   UNL     1      43.066  19.975  17.506  0.00  0.00    +0.383 HD
ENDBRANCH  19  20
BRANCH  19  22
ATOM     22  C   UNL     1      40.340  21.135  18.939  0.00  0.00    +0.163 C 
BRANCH  22  23
ATOM     23  O   UNL     1      39.621  21.911  17.978  0.00  0.00    -0.563 OA
ATOM     24  H   UNL     1      40.181  22.318  17.303  0.00  0.00    +0.386 HD
ENDBRANCH  22  23
ENDBRANCH  19  22
ENDBRANCH  18  19
TORSDOF 7
ENDMDL
MODEL 4
REMARK VINA RESULT:      -5.1      3.020      4.828
REMARK  Name = ZINC31539795
REMARK  7 active torsions:
REMARK  status: ('A' for Active; 'I' for Inactive)
REMARK    1  A    between atoms: C3_3  and  O8_27
REMARK    2  A    between atoms: C6_6  and  C7_7
REMARK    3  A    between atoms: C11_14  and  O7_26
REMARK    4  A    between atoms: C12_16  and  C14_21
REMARK    5  A    between atoms: C14_21  and  C15_23
REMARK    6  A    between atoms: C14_21  and  O6_25
REMARK    7  A    between atoms: C15_23  and  O5_24
REMARK                            x       y       z     vdW  Elec       q    Type
REMARK                         _______ _______ _______ _____ _____    ______ ____
ROOT
ATOM      9  C   UNL     1      47.000  18.175  20.490  0.00  0.00    +0.072 C 
ATOM     10  C   UNL     1      47.291  16.680  20.791  0.00  0.00    +0.072 C 
ATOM     11  C   UNL     1      45.928  16.040  20.542  0.00  0.00    +0.490 C 
ATOM     12  O   UNL     1      45.413  16.708  19.479  0.00  0.00    -0.308 OA
ATOM     13  O   UNL     1      45.417  15.133  21.159  0.00  0.00    -0.413 OA
ATOM     14  C   UNL     1      45.726  18.091  19.639  0.00  0.00    +0.061 C 
ATOM     15  C   UNL     1      44.571  18.854  20.310  0.00  0.00    +0.185 C 
ATOM     18  C   UNL     1      44.232  19.930  19.247  0.00  0.00    +0.130 C 
ATOM     25  O   UNL     1      45.443  20.040  18.465  0.00  0.00    -0.329 OA
ATOM     26  C   UNL     1      45.917  18.777  18.306  0.00  0.00    +0.511 C 
ATOM     27  O   UNL     1      46.395  18.301  17.305  0.00  0.00    -0.390 OA
ENDROOT
BRANCH   9   8
ATOM      1  C   UNL     1      48.979  17.995  18.970  0.00  0.00    +0.056 A 
ATOM      2  C   UNL     1      50.016  18.562  18.251  0.00  0.00    -0.014 A 
ATOM      3  C   UNL     1      50.199  19.936  18.271  0.00  0.00    +0.121 A 
ATOM      6  C   UNL     1      49.344  20.738  19.012  0.00  0.00    -0.006 A 
ATOM      7  C   UNL     1      48.311  20.166  19.728  0.00  0.00    +0.053 A 
ATOM      8  C   UNL     1      48.129  18.796  19.708  0.00  0.00    -0.126 A 
BRANCH   3   4
ATOM      4  O   UNL     1      51.217  20.496  17.565  0.00  0.00    -0.499 OA
ATOM      5  H   UNL     1      51.178  21.461  17.517  0.00  0.00    +0.395 HD
ENDBRANCH   3   4
ENDBRANCH   9   8
BRANCH  15  16
ATOM     16  O   UNL     1      43.454  17.991  20.536  0.00  0.00    -0.530 OA
ATOM     17  H   UNL     1      42.851  17.923  19.783  0.00  0.00    +0.393 HD
ENDBRANCH  15  16
BRANCH  18  19
ATOM     19  C   UNL     1      43.901  21.264  19.919  0.00  0.00    +0.251 C 
BRANCH  19  20
ATOM     20  O   UNL     1      43.630  21.043  21.305  0.00  0.00    -0.542 OA
ATOM     21  H   UNL     1      44.194  20.372  21.714  0.00  0.00    +0.383 HD
ENDBRANCH  19  20
BRANCH  19  22
ATOM     22  C   UNL     1      45.090  22.216  19.778  0.00  0.00    +0.163 C 
BRANCH  22  23
ATOM     23  O   UNL     1      44.953  22.972  18.573  0.00  0.00    -0.563 OA
ATOM     24  H   UNL     1      44.311  23.693  18.632  0.00  0.00    +0.386 HD
ENDBRANCH  22  23
ENDBRANCH  19  22
ENDBRANCH  18  19
TORSDOF 7
ENDMDL
MODEL 5
REMARK VINA RESULT:      -5.1      1.805      5.791
REMARK  Name = ZINC31539795
REMARK  7 active torsions:
REMARK  status: ('A' for Active; 'I' for Inactive)
REMARK    1  A    between atoms: C3_3  and  O8_27
REMARK    2  A    between atoms: C6_6  and  C7_7
REMARK    3  A    between atoms: C11_14  and  O7_26
REMARK    4  A    between atoms: C12_16  and  C14_21
REMARK    5  A    between atoms: C14_21  and  C15_23
REMARK    6  A    between atoms: C14_21  and  O6_25
REMARK    7  A    between atoms: C15_23  and  O5_24
REMARK                            x       y       z     vdW  Elec       q    Type
REMARK                         _______ _______ _______ _____ _____    ______ ____
ROOT
ATOM      9  C   UNL     1      44.613  20.355  21.162  0.00  0.00    +0.072 C 
ATOM     10  C   UNL     1      45.292  21.751  21.196  0.00  0.00    +0.072 C 
ATOM     11  C   UNL     1      46.763  21.389  21.018  0.00  0.00    +0.490 C 
ATOM     12  O   UNL     1      46.768  20.357  20.137  0.00  0.00    -0.308 OA
ATOM     13  O   UNL     1      47.718  21.909  21.546  0.00  0.00    -0.413 OA
ATOM     14  C   UNL     1      45.678  19.496  20.466  0.00  0.00    +0.061 C 
ATOM     15  C   UNL     1      46.129  18.342  21.377  0.00  0.00    +0.185 C 
ATOM     18  C   UNL     1      45.746  17.096  20.538  0.00  0.00    +0.130 C 
ATOM     25  O   UNL     1      44.720  17.583  19.643  0.00  0.00    -0.329 OA
ATOM     26  C   UNL     1      45.112  18.819  19.240  0.00  0.00    +0.511 C 
ATOM     27  O   UNL     1      45.025  19.282  18.128  0.00  0.00    -0.390 OA
ENDROOT
BRANCH   9   8
ATOM      1  C   UNL     1      42.408  19.384  20.488  0.00  0.00    +0.056 A 
ATOM      2  C   UNL     1      41.241  19.417  19.748  0.00  0.00    -0.014 A 
ATOM      3  C   UNL     1      41.008  20.467  18.871  0.00  0.00    +0.121 A 
ATOM      6  C   UNL     1      41.947  21.479  18.739  0.00  0.00    -0.006 A 
ATOM      7  C   UNL     1      43.111  21.440  19.481  0.00  0.00    +0.053 A 
ATOM      8  C   UNL     1      43.342  20.394  20.354  0.00  0.00    -0.126 A 
BRANCH   3   4
ATOM      4  O   UNL     1      39.861  20.502  18.143  0.00  0.00    -0.499 OA
ATOM      5  H   UNL     1      39.867  19.919  17.371  0.00  0.00    +0.395 HD
ENDBRANCH   3   4
ENDBRANCH   9   8
BRANCH  15  16
ATOM     16  O   UNL     1      47.540  18.391  21.602  0.00  0.00    -0.530 OA
ATOM     17  H   UNL     1      48.063  17.962  20.912  0.00  0.00    +0.393 HD
ENDBRANCH  15  16
BRANCH  18  19
ATOM     19  C   UNL     1      45.196  15.989  21.440  0.00  0.00    +0.251 C 
BRANCH  19  20
ATOM     20  O   UNL     1      43.848  16.297  21.802  0.00  0.00    -0.542 OA
ATOM     21  H   UNL     1      43.675  16.247  22.752  0.00  0.00    +0.383 HD
ENDBRANCH  19  20
BRANCH  19  22
ATOM     22  C   UNL     1      45.230  14.656  20.690  0.00  0.00    +0.163 C 
BRANCH  22  23
ATOM     23  O   UNL     1      45.143  14.898  19.284  0.00  0.00    -0.563 OA
ATOM     24  H   UNL     1      45.100  15.835  19.049  0.00  0.00    +0.386 HD
ENDBRANCH  22  23
ENDBRANCH  19  22
ENDBRANCH  18  19
TORSDOF 7
ENDMDL
MODEL 6
REMARK VINA RESULT:      -5.0      2.850      4.945
REMARK  Name = ZINC31539795
REMARK  7 active torsions:
REMARK  status: ('A' for Active; 'I' for Inactive)
REMARK    1  A    between atoms: C3_3  and  O8_27
REMARK    2  A    between atoms: C6_6  and  C7_7
REMARK    3  A    between atoms: C11_14  and  O7_26
REMARK    4  A    between atoms: C12_16  and  C14_21
REMARK    5  A    between atoms: C14_21  and  C15_23
REMARK    6  A    between atoms: C14_21  and  O6_25
REMARK    7  A    between atoms: C15_23  and  O5_24
REMARK                            x       y       z     vdW  Elec       q    Type
REMARK                         _______ _______ _______ _____ _____    ______ ____
ROOT
ATOM      9  C   UNL     1      45.707  20.203  19.329  0.00  0.00    +0.072 C 
ATOM     10  C   UNL     1      45.444  21.660  18.861  0.00  0.00    +0.072 C 
ATOM     11  C   UNL     1      44.525  22.182  19.961  0.00  0.00    +0.490 C 
ATOM     12  O   UNL     1      44.996  21.627  21.107  0.00  0.00    -0.308 OA
ATOM     13  O   UNL     1      43.581  22.928  19.840  0.00  0.00    -0.413 OA
ATOM     14  C   UNL     1      45.358  20.276  20.822  0.00  0.00    +0.061 C 
ATOM     15  C   UNL     1      44.215  19.305  21.162  0.00  0.00    +0.185 C 
ATOM     18  C   UNL     1      44.885  18.367  22.199  0.00  0.00    +0.130 C 
ATOM     25  O   UNL     1      46.298  18.503  21.928  0.00  0.00    -0.329 OA
ATOM     26  C   UNL     1      46.519  19.818  21.673  0.00  0.00    +0.511 C 
ATOM     27  O   UNL     1      47.453  20.485  22.049  0.00  0.00    -0.390 OA
ENDROOT
BRANCH   9   8
ATOM      1  C   UNL     1      47.505  18.502  18.962  0.00  0.00    +0.056 A 
ATOM      2  C   UNL     1      48.831  18.155  18.782  0.00  0.00    -0.014 A 
ATOM      3  C   UNL     1      49.808  19.140  18.771  0.00  0.00    +0.121 A 
ATOM      6  C   UNL     1      49.452  20.469  18.943  0.00  0.00    -0.006 A 
ATOM      7  C   UNL     1      48.126  20.810  19.122  0.00  0.00    +0.053 A 
ATOM      8  C   UNL     1      47.153  19.828  19.133  0.00  0.00    -0.126 A 
BRANCH   3   4
ATOM      4  O   UNL     1      51.112  18.801  18.594  0.00  0.00    -0.499 OA
ATOM      5  H   UNL     1      51.719  19.237  19.208  0.00  0.00    +0.395 HD
ENDBRANCH   3   4
ENDBRANCH   9   8
BRANCH  15  16
ATOM     16  O   UNL     1      43.110  20.001  21.743  0.00  0.00    -0.530 OA
ATOM     17  H   UNL     1      43.339  20.867  22.107  0.00  0.00    +0.393 HD
ENDBRANCH  15  16
BRANCH  18  19
ATOM     19  C   UNL     1      44.431  16.921  21.988  0.00  0.00    +0.251 C 
BRANCH  19  20
ATOM     20  O   UNL     1      43.015  16.836  22.169  0.00  0.00    -0.542 OA
ATOM     21  H   UNL     1      42.600  17.672  22.421  0.00  0.00    +0.383 HD
ENDBRANCH  19  20
BRANCH  19  22
ATOM     22  C   UNL     1      44.791  16.475  20.569  0.00  0.00    +0.163 C 
BRANCH  22  23
ATOM     23  O   UNL     1      46.042  15.787  20.590  0.00  0.00    -0.563 OA
ATOM     24  H   UNL     1      46.125  15.143  21.307  0.00  0.00    +0.386 HD
ENDBRANCH  22  23
ENDBRANCH  19  22
ENDBRANCH  18  19
TORSDOF 7
ENDMDL
MODEL 7
REMARK VINA RESULT:      -5.0      2.435      6.054
REMARK  Name = ZINC31539795
REMARK  7 active torsions:
REMARK  status: ('A' for Active; 'I' for Inactive)
REMARK    1  A    between atoms: C3_3  and  O8_27
REMARK    2  A    between atoms: C6_6  and  C7_7
REMARK    3  A    between atoms: C11_14  and  O7_26
REMARK    4  A    between atoms: C12_16  and  C14_21
REMARK    5  A    between atoms: C14_21  and  C15_23
REMARK    6  A    between atoms: C14_21  and  O6_25
REMARK    7  A    between atoms: C15_23  and  O5_24
REMARK                            x       y       z     vdW  Elec       q    Type
REMARK                         _______ _______ _______ _____ _____    ______ ____
ROOT
ATOM      9  C   UNL     1      47.380  19.211  20.491  0.00  0.00    +0.072 C 
ATOM     10  C   UNL     1      48.607  19.751  19.708  0.00  0.00    +0.072 C 
ATOM     11  C   UNL     1      48.722  18.741  18.570  0.00  0.00    +0.490 C 
ATOM     12  O   UNL     1      47.441  18.443  18.233  0.00  0.00    -0.308 OA
ATOM     13  O   UNL     1      49.734  18.302  18.075  0.00  0.00    -0.413 OA
ATOM     14  C   UNL     1      46.685  18.335  19.439  0.00  0.00    +0.061 C 
ATOM     15  C   UNL     1      46.595  16.876  19.916  0.00  0.00    +0.185 C 
ATOM     18  C   UNL     1      45.063  16.638  19.942  0.00  0.00    +0.130 C 
ATOM     25  O   UNL     1      44.506  17.968  20.048  0.00  0.00    -0.329 OA
ATOM     26  C   UNL     1      45.251  18.765  19.238  0.00  0.00    +0.511 C 
ATOM     27  O   UNL     1      44.848  19.638  18.508  0.00  0.00    -0.390 OA
ENDROOT
BRANCH   9   8
ATOM      1  C   UNL     1      45.629  20.164  22.004  0.00  0.00    +0.056 A 
ATOM      2  C   UNL     1      44.805  21.197  22.408  0.00  0.00    -0.014 A 
ATOM      3  C   UNL     1      44.835  22.410  21.736  0.00  0.00    +0.121 A 
ATOM      6  C   UNL     1      45.692  22.582  20.659  0.00  0.00    -0.006 A 
ATOM      7  C   UNL     1      46.513  21.546  20.259  0.00  0.00    +0.053 A 
ATOM      8  C   UNL     1      46.482  20.338  20.930  0.00  0.00    -0.126 A 
BRANCH   3   4
ATOM      4  O   UNL     1      44.025  23.427  22.132  0.00  0.00    -0.499 OA
ATOM      5  H   UNL     1      44.472  24.102  22.661  0.00  0.00    +0.395 HD
ENDBRANCH   3   4
ENDBRANCH   9   8
BRANCH  15  16
ATOM     16  O   UNL     1      47.233  15.996  18.989  0.00  0.00    -0.530 OA
ATOM     17  H   UNL     1      47.337  16.367  18.103  0.00  0.00    +0.393 HD
ENDBRANCH  15  16
BRANCH  18  19
ATOM     19  C   UNL     1      44.671  15.790  21.154  0.00  0.00    +0.251 C 
BRANCH  19  20
ATOM     20  O   UNL     1      45.787  14.994  21.558  0.00  0.00    -0.542 OA
ATOM     21  H   UNL     1      45.724  14.660  22.463  0.00  0.00    +0.383 HD
ENDBRANCH  19  20
BRANCH  19  22
ATOM     22  C   UNL     1      44.256  16.708  22.306  0.00  0.00    +0.163 C 
BRANCH  22  23
ATOM     23  O   UNL     1      42.853  16.964  22.228  0.00  0.00    -0.563 OA
ATOM     24  H   UNL     1      42.367  16.742  23.034  0.00  0.00    +0.386 HD
ENDBRANCH  22  23
ENDBRANCH  19  22
ENDBRANCH  18  19
TORSDOF 7
ENDMDL
MODEL 8
REMARK VINA RESULT:      -4.9      5.136      7.809
REMARK  Name = ZINC31539795
REMARK  7 active torsions:
REMARK  status: ('A' for Active; 'I' for Inactive)
REMARK    1  A    between atoms: C3_3  and  O8_27
REMARK    2  A    between atoms: C6_6  and  C7_7
REMARK    3  A    between atoms: C11_14  and  O7_26
REMARK    4  A    between atoms: C12_16  and  C14_21
REMARK    5  A    between atoms: C14_21  and  C15_23
REMARK    6  A    between atoms: C14_21  and  O6_25
REMARK    7  A    between atoms: C15_23  and  O5_24
REMARK                            x       y       z     vdW  Elec       q    Type
REMARK                         _______ _______ _______ _____ _____    ______ ____
ROOT
ATOM      9  C   UNL     1      51.072  17.908  19.455  0.00  0.00    +0.072 C 
ATOM     10  C   UNL     1      52.151  16.803  19.301  0.00  0.00    +0.072 C 
ATOM     11  C   UNL     1      51.329  15.532  19.497  0.00  0.00    +0.490 C 
ATOM     12  O   UNL     1      50.140  15.784  18.893  0.00  0.00    -0.308 OA
ATOM     13  O   UNL     1      51.665  14.520  20.068  0.00  0.00    -0.413 OA
ATOM     14  C   UNL     1      49.774  17.131  19.193  0.00  0.00    +0.061 C 
ATOM     15  C   UNL     1      48.841  17.200  20.414  0.00  0.00    +0.185 C 
ATOM     18  C   UNL     1      47.585  17.892  19.823  0.00  0.00    +0.130 C 
ATOM     25  O   UNL     1      48.088  18.589  18.660  0.00  0.00    -0.329 OA
ATOM     26  C   UNL     1      48.984  17.758  18.068  0.00  0.00    +0.511 C 
ATOM     27  O   UNL     1      49.123  17.562  16.885  0.00  0.00    -0.390 OA
ENDROOT
BRANCH   9   8
ATOM      1  C   UNL     1      50.770  20.264  18.669  0.00  0.00    +0.056 A 
ATOM      2  C   UNL     1      50.945  21.264  17.730  0.00  0.00    -0.014 A 
ATOM      3  C   UNL     1      51.617  20.991  16.548  0.00  0.00    +0.121 A 
ATOM      6  C   UNL     1      52.111  19.717  16.310  0.00  0.00    -0.006 A 
ATOM      7  C   UNL     1      51.933  18.722  17.252  0.00  0.00    +0.053 A 
ATOM      8  C   UNL     1      51.263  18.995  18.430  0.00  0.00    -0.126 A 
BRANCH   3   4
ATOM      4  O   UNL     1      51.790  21.972  15.623  0.00  0.00    -0.499 OA
ATOM      5  H   UNL     1      52.468  22.620  15.859  0.00  0.00    +0.395 HD
ENDBRANCH   3   4
ENDBRANCH   9   8
BRANCH  15  16
ATOM     16  O   UNL     1      48.525  15.890  20.889  0.00  0.00    -0.530 OA
ATOM     17  H   UNL     1      48.062  15.882  21.738  0.00  0.00    +0.393 HD
ENDBRANCH  15  16
BRANCH  18  19
ATOM     19  C   UNL     1      46.992  18.880  20.830  0.00  0.00    +0.251 C 
BRANCH  19  20
ATOM     20  O   UNL     1      46.689  18.194  22.047  0.00  0.00    -0.542 OA
ATOM     21  H   UNL     1      47.293  17.466  22.248  0.00  0.00    +0.383 HD
ENDBRANCH  19  20
BRANCH  19  22
ATOM     22  C   UNL     1      48.005  19.993  21.109  0.00  0.00    +0.163 C 
BRANCH  22  23
ATOM     23  O   UNL     1      47.770  21.085  20.219  0.00  0.00    -0.563 OA
ATOM     24  H   UNL     1      47.043  20.937  19.599  0.00  0.00    +0.386 HD
ENDBRANCH  22  23
ENDBRANCH  19  22
ENDBRANCH  18  19
TORSDOF 7
ENDMDL
MODEL 9
REMARK VINA RESULT:      -4.9      3.320      5.738
REMARK  Name = ZINC31539795
REMARK  7 active torsions:
REMARK  status: ('A' for Active; 'I' for Inactive)
REMARK    1  A    between atoms: C3_3  and  O8_27
REMARK    2  A    between atoms: C6_6  and  C7_7
REMARK    3  A    between atoms: C11_14  and  O7_26
REMARK    4  A    between atoms: C12_16  and  C14_21
REMARK    5  A    between atoms: C14_21  and  C15_23
REMARK    6  A    between atoms: C14_21  and  O6_25
REMARK    7  A    between atoms: C15_23  and  O5_24
REMARK                            x       y       z     vdW  Elec       q    Type
REMARK                         _______ _______ _______ _____ _____    ______ ____
ROOT
ATOM      9  C   UNL     1      46.661  19.018  18.329  0.00  0.00    +0.072 C 
ATOM     10  C   UNL     1      45.911  17.744  17.851  0.00  0.00    +0.072 C 
ATOM     11  C   UNL     1      46.775  16.633  18.438  0.00  0.00    +0.490 C 
ATOM     12  O   UNL     1      47.172  17.098  19.650  0.00  0.00    -0.308 OA
ATOM     13  O   UNL     1      47.047  15.568  17.934  0.00  0.00    -0.413 OA
ATOM     14  C   UNL     1      47.489  18.482  19.505  0.00  0.00    +0.061 C 
ATOM     15  C   UNL     1      48.991  18.691  19.254  0.00  0.00    +0.185 C 
ATOM     18  C   UNL     1      49.395  19.601  20.443  0.00  0.00    +0.130 C 
ATOM     25  O   UNL     1      48.152  20.220  20.845  0.00  0.00    -0.329 OA
ATOM     26  C   UNL     1      47.198  19.256  20.769  0.00  0.00    +0.511 C 
ATOM     27  O   UNL     1      46.300  19.060  21.553  0.00  0.00    -0.390 OA
ENDROOT
BRANCH   9   8
ATOM      1  C   UNL     1      44.398  19.719  19.132  0.00  0.00    +0.056 A 
ATOM      2  C   UNL     1      43.505  20.686  19.557  0.00  0.00    -0.014 A 
ATOM      3  C   UNL     1      43.908  22.010  19.641  0.00  0.00    +0.121 A 
ATOM      6  C   UNL     1      45.205  22.362  19.298  0.00  0.00    -0.006 A 
ATOM      7  C   UNL     1      46.093  21.392  18.874  0.00  0.00    +0.053 A 
ATOM      8  C   UNL     1      45.689  20.073  18.791  0.00  0.00    -0.126 A 
BRANCH   3   4
ATOM      4  O   UNL     1      43.031  22.962  20.058  0.00  0.00    -0.499 OA
ATOM      5  H   UNL     1      42.259  22.609  20.520  0.00  0.00    +0.395 HD
ENDBRANCH   3   4
ENDBRANCH   9   8
BRANCH  15  16
ATOM     16  O   UNL     1      49.694  17.448  19.302  0.00  0.00    -0.530 OA
ATOM     17  H   UNL     1      49.257  16.731  18.824  0.00  0.00    +0.393 HD
ENDBRANCH  15  16
BRANCH  18  19
ATOM     19  C   UNL     1      50.404  20.659  19.992  0.00  0.00    +0.251 C 
BRANCH  19  20
ATOM     20  O   UNL     1      51.730  20.196  20.258  0.00  0.00    -0.542 OA
ATOM     21  H   UNL     1      51.995  20.274  21.184  0.00  0.00    +0.383 HD
ENDBRANCH  19  20
BRANCH  19  22
ATOM     22  C   UNL     1      50.243  20.910  18.491  0.00  0.00    +0.163 C 
BRANCH  22  23
ATOM     23  O   UNL     1      51.469  21.416  17.959  0.00  0.00    -0.563 OA
ATOM     24  H   UNL     1      52.257  21.117  18.434  0.00  0.00    +0.386 HD
ENDBRANCH  22  23
ENDBRANCH  19  22
ENDBRANCH  18  19
TORSDOF 7
ENDMDL
