MODEL 1
REMARK VINA RESULT:      -6.9      0.000      0.000
REMARK  Name = ZINC02004122
REMARK  3 active torsions:
REMARK  status: ('A' for Active; 'I' for Inactive)
REMARK    1  A    between atoms: C1_1  and  C2_2
REMARK    2  A    between atoms: C2_2  and  C20_26
REMARK    3  A    between atoms: C18_23  and  O4_25
REMARK                            x       y       z     vdW  Elec       q    Type
REMARK                         _______ _______ _______ _____ _____    ______ ____
ROOT
ATOM      1  C   UNL     1      52.294  20.534  19.426  0.00  0.00    +0.083 C 
ATOM      2  C   UNL     1      50.873  20.101  19.787  0.00  0.00    +0.147 C 
ATOM      3  C   UNL     1      50.667  20.252  21.296  0.00  0.00    +0.034 C 
ATOM      4  C   UNL     1      50.681  18.658  19.402  0.00  0.00    -0.055 C 
ATOM      5  C   UNL     1      49.474  18.211  19.069  0.00  0.00    +0.044 C 
ATOM      6  C   UNL     1      48.348  19.171  19.056  0.00  0.00    -0.159 A 
ATOM      7  C   UNL     1      47.028  18.706  19.013  0.00  0.00    +0.127 A 
ATOM      8  C   UNL     1      46.030  19.647  19.027  0.00  0.00    -0.182 A 
ATOM      9  C   UNL     1      46.312  21.036  19.091  0.00  0.00    +0.135 A 
ATOM     10  O   UNL     1      45.160  21.767  19.121  0.00  0.00    -0.275 OA
ATOM     11  C   UNL     1      44.169  20.912  19.674  0.00  0.00    +0.226 C 
ATOM     12  C   UNL     1      42.743  21.107  19.277  0.00  0.00    -0.170 A 
ATOM     13  C   UNL     1      42.226  22.287  18.813  0.00  0.00    +0.094 A 
ATOM     14  C   UNL     1      40.898  22.353  18.427  0.00  0.00    -0.037 A 
ATOM     15  C   UNL     1      40.099  21.223  18.513  0.00  0.00    +0.148 A 
ATOM     18  C   UNL     1      40.619  20.031  18.993  0.00  0.00    -0.033 A 
ATOM     19  C   UNL     1      41.945  19.958  19.389  0.00  0.00    +0.162 A 
ATOM     20  O   UNL     1      42.455  18.804  19.880  0.00  0.00    -0.321 OA
ATOM     21  C   UNL     1      43.843  18.468  19.757  0.00  0.00    +0.277 C 
ATOM     22  C   UNL     1      47.625  21.492  19.113  0.00  0.00    -0.003 A 
ATOM     23  C   UNL     1      44.550  19.555  18.986  0.00  0.00    -0.013 C 
ATOM     24  C   UNL     1      48.636  20.541  19.095  0.00  0.00    +0.172 A 
ATOM     25  O   UNL     1      49.938  20.934  19.101  0.00  0.00    -0.303 OA
ENDROOT
BRANCH  15  16
ATOM     16  O   UNL     1      38.798  21.285  18.125  0.00  0.00    -0.495 OA
ATOM     17  H   UNL     1      38.570  22.090  17.641  0.00  0.00    +0.396 HD
ENDBRANCH  15  16
TORSDOF 1
ENDMDL
MODEL 2
REMARK VINA RESULT:      -6.7      4.126      5.687
REMARK  Name = ZINC02004122
REMARK  3 active torsions:
REMARK  status: ('A' for Active; 'I' for Inactive)
REMARK    1  A    between atoms: C1_1  and  C2_2
REMARK    2  A    between atoms: C2_2  and  C20_26
REMARK    3  A    between atoms: C18_23  and  O4_25
REMARK                            x       y       z     vdW  Elec       q    Type
REMARK                         _______ _______ _______ _____ _____    ______ ____
ROOT
ATOM      1  C   UNL     1      47.613  11.802  15.266  0.00  0.00    +0.083 C 
ATOM      2  C   UNL     1      47.519  12.734  16.475  0.00  0.00    +0.147 C 
ATOM      3  C   UNL     1      48.922  12.970  17.039  0.00  0.00    +0.034 C 
ATOM      4  C   UNL     1      46.661  12.091  17.532  0.00  0.00    -0.055 C 
ATOM      5  C   UNL     1      45.965  12.845  18.377  0.00  0.00    +0.044 C 
ATOM      6  C   UNL     1      46.032  14.315  18.225  0.00  0.00    -0.159 A 
ATOM      7  C   UNL     1      45.576  15.150  19.252  0.00  0.00    +0.127 A 
ATOM      8  C   UNL     1      45.687  16.503  19.058  0.00  0.00    -0.182 A 
ATOM      9  C   UNL     1      46.249  17.045  17.873  0.00  0.00    +0.135 A 
ATOM     10  O   UNL     1      46.278  18.408  17.926  0.00  0.00    -0.275 OA
ATOM     11  C   UNL     1      46.314  18.746  19.307  0.00  0.00    +0.226 C 
ATOM     12  C   UNL     1      45.719  20.041  19.750  0.00  0.00    -0.170 A 
ATOM     13  C   UNL     1      45.563  21.135  18.940  0.00  0.00    +0.094 A 
ATOM     14  C   UNL     1      44.958  22.278  19.435  0.00  0.00    -0.037 A 
ATOM     15  C   UNL     1      44.513  22.308  20.749  0.00  0.00    +0.148 A 
ATOM     18  C   UNL     1      44.680  21.204  21.572  0.00  0.00    -0.033 A 
ATOM     19  C   UNL     1      45.293  20.059  21.086  0.00  0.00    +0.162 A 
ATOM     20  O   UNL     1      45.480  18.985  21.889  0.00  0.00    -0.321 OA
ATOM     21  C   UNL     1      45.540  17.649  21.376  0.00  0.00    +0.277 C 
ATOM     22  C   UNL     1      46.682  16.211  16.849  0.00  0.00    -0.003 A 
ATOM     23  C   UNL     1      45.320  17.679  19.884  0.00  0.00    -0.013 C 
ATOM     24  C   UNL     1      46.566  14.842  17.043  0.00  0.00    +0.172 A 
ATOM     25  O   UNL     1      46.962  13.982  16.065  0.00  0.00    -0.303 OA
ENDROOT
BRANCH  15  16
ATOM     16  O   UNL     1      43.910  23.424  21.232  0.00  0.00    -0.495 OA
ATOM     17  H   UNL     1      44.324  23.781  22.030  0.00  0.00    +0.396 HD
ENDBRANCH  15  16
TORSDOF 1
ENDMDL
MODEL 3
REMARK VINA RESULT:      -6.7      4.909      6.300
REMARK  Name = ZINC02004122
REMARK  3 active torsions:
REMARK  status: ('A' for Active; 'I' for Inactive)
REMARK    1  A    between atoms: C1_1  and  C2_2
REMARK    2  A    between atoms: C2_2  and  C20_26
REMARK    3  A    between atoms: C18_23  and  O4_25
REMARK                            x       y       z     vdW  Elec       q    Type
REMARK                         _______ _______ _______ _____ _____    ______ ____
ROOT
ATOM      1  C   UNL     1      49.535  12.004  14.278  0.00  0.00    +0.083 C 
ATOM      2  C   UNL     1      49.073  12.458  15.664  0.00  0.00    +0.147 C 
ATOM      3  C   UNL     1      50.268  13.028  16.432  0.00  0.00    +0.034 C 
ATOM      4  C   UNL     1      48.519  11.277  16.414  0.00  0.00    -0.055 C 
ATOM      5  C   UNL     1      47.574  11.453  17.334  0.00  0.00    +0.044 C 
ATOM      6  C   UNL     1      47.069  12.823  17.567  0.00  0.00    -0.159 A 
ATOM      7  C   UNL     1      46.312  13.109  18.710  0.00  0.00    +0.127 A 
ATOM      8  C   UNL     1      45.893  14.403  18.879  0.00  0.00    -0.182 A 
ATOM      9  C   UNL     1      46.215  15.422  17.945  0.00  0.00    +0.135 A 
ATOM     10  O   UNL     1      45.713  16.626  18.344  0.00  0.00    -0.275 OA
ATOM     11  C   UNL     1      45.599  16.553  19.759  0.00  0.00    +0.226 C 
ATOM     12  C   UNL     1      44.543  17.359  20.442  0.00  0.00    -0.170 A 
ATOM     13  C   UNL     1      43.985  18.497  19.922  0.00  0.00    +0.094 A 
ATOM     14  C   UNL     1      42.978  19.149  20.615  0.00  0.00    -0.037 A 
ATOM     15  C   UNL     1      42.541  18.644  21.830  0.00  0.00    +0.148 A 
ATOM     18  C   UNL     1      43.113  17.498  22.361  0.00  0.00    -0.033 A 
ATOM     19  C   UNL     1      44.127  16.844  21.679  0.00  0.00    +0.162 A 
ATOM     20  O   UNL     1      44.706  15.737  22.200  0.00  0.00    -0.321 OA
ATOM     21  C   UNL     1      45.286  14.718  21.376  0.00  0.00    +0.277 C 
ATOM     22  C   UNL     1      46.950  15.128  16.803  0.00  0.00    -0.003 A 
ATOM     23  C   UNL     1      45.089  15.080  19.926  0.00  0.00    -0.013 C 
ATOM     24  C   UNL     1      47.371  13.817  16.628  0.00  0.00    +0.172 A 
ATOM     25  O   UNL     1      48.081  13.474  15.520  0.00  0.00    -0.303 OA
ENDROOT
BRANCH  15  16
ATOM     16  O   UNL     1      41.547  19.277  22.505  0.00  0.00    -0.495 OA
ATOM     17  H   UNL     1      40.661  19.099  22.160  0.00  0.00    +0.396 HD
ENDBRANCH  15  16
TORSDOF 1
ENDMDL
MODEL 4
REMARK VINA RESULT:      -6.3      2.297      3.697
REMARK  Name = ZINC02004122
REMARK  3 active torsions:
REMARK  status: ('A' for Active; 'I' for Inactive)
REMARK    1  A    between atoms: C1_1  and  C2_2
REMARK    2  A    between atoms: C2_2  and  C20_26
REMARK    3  A    between atoms: C18_23  and  O4_25
REMARK                            x       y       z     vdW  Elec       q    Type
REMARK                         _______ _______ _______ _____ _____    ______ ____
ROOT
ATOM      1  C   UNL     1      53.644  16.648  19.132  0.00  0.00    +0.083 C 
ATOM      2  C   UNL     1      52.235  17.068  18.711  0.00  0.00    +0.147 C 
ATOM      3  C   UNL     1      51.750  16.148  17.588  0.00  0.00    +0.034 C 
ATOM      4  C   UNL     1      52.268  18.487  18.210  0.00  0.00    -0.055 C 
ATOM      5  C   UNL     1      51.194  19.262  18.325  0.00  0.00    +0.044 C 
ATOM      6  C   UNL     1      49.993  18.703  18.985  0.00  0.00    -0.159 A 
ATOM      7  C   UNL     1      48.758  19.352  18.865  0.00  0.00    +0.127 A 
ATOM      8  C   UNL     1      47.680  18.770  19.482  0.00  0.00    -0.182 A 
ATOM      9  C   UNL     1      47.798  17.555  20.206  0.00  0.00    +0.135 A 
ATOM     10  O   UNL     1      46.589  17.162  20.700  0.00  0.00    -0.275 OA
ATOM     11  C   UNL     1      45.610  17.736  19.843  0.00  0.00    +0.226 C 
ATOM     12  C   UNL     1      44.265  18.067  20.401  0.00  0.00    -0.170 A 
ATOM     13  C   UNL     1      43.718  17.465  21.502  0.00  0.00    +0.094 A 
ATOM     14  C   UNL     1      42.480  17.875  21.968  0.00  0.00    -0.037 A 
ATOM     15  C   UNL     1      41.802  18.894  21.315  0.00  0.00    +0.148 A 
ATOM     18  C   UNL     1      42.352  19.497  20.194  0.00  0.00    -0.033 A 
ATOM     19  C   UNL     1      43.586  19.086  19.716  0.00  0.00    +0.162 A 
ATOM     20  O   UNL     1      44.120  19.654  18.609  0.00  0.00    -0.321 OA
ATOM     21  C   UNL     1      45.535  19.732  18.397  0.00  0.00    +0.277 C 
ATOM     22  C   UNL     1      49.031  16.926  20.337  0.00  0.00    -0.003 A 
ATOM     23  C   UNL     1      46.249  19.145  19.589  0.00  0.00    -0.013 C 
ATOM     24  C   UNL     1      50.123  17.516  19.718  0.00  0.00    +0.172 A 
ATOM     25  O   UNL     1      51.355  16.949  19.828  0.00  0.00    -0.303 OA
ENDROOT
BRANCH  15  16
ATOM     16  O   UNL     1      40.593  19.304  21.777  0.00  0.00    -0.495 OA
ATOM     17  H   UNL     1      40.635  19.796  22.609  0.00  0.00    +0.396 HD
ENDBRANCH  15  16
TORSDOF 1
ENDMDL
MODEL 5
REMARK VINA RESULT:      -6.3      2.072      8.287
REMARK  Name = ZINC02004122
REMARK  3 active torsions:
REMARK  status: ('A' for Active; 'I' for Inactive)
REMARK    1  A    between atoms: C1_1  and  C2_2
REMARK    2  A    between atoms: C2_2  and  C20_26
REMARK    3  A    between atoms: C18_23  and  O4_25
REMARK                            x       y       z     vdW  Elec       q    Type
REMARK                         _______ _______ _______ _____ _____    ______ ____
ROOT
ATOM      1  C   UNL     1      41.150  20.675  18.419  0.00  0.00    +0.083 C 
ATOM      2  C   UNL     1      42.490  20.481  19.131  0.00  0.00    +0.147 C 
ATOM      3  C   UNL     1      42.271  19.654  20.400  0.00  0.00    +0.034 C 
ATOM      4  C   UNL     1      43.052  21.826  19.505  0.00  0.00    -0.055 C 
ATOM      5  C   UNL     1      44.368  21.999  19.591  0.00  0.00    +0.044 C 
ATOM      6  C   UNL     1      45.249  20.853  19.277  0.00  0.00    -0.159 A 
ATOM      7  C   UNL     1      46.601  20.885  19.639  0.00  0.00    +0.127 A 
ATOM      8  C   UNL     1      47.358  19.782  19.339  0.00  0.00    -0.182 A 
ATOM      9  C   UNL     1      46.802  18.644  18.698  0.00  0.00    +0.135 A 
ATOM     10  O   UNL     1      47.742  17.669  18.534  0.00  0.00    -0.275 OA
ATOM     11  C   UNL     1      48.708  17.881  19.555  0.00  0.00    +0.226 C 
ATOM     12  C   UNL     1      50.121  17.466  19.309  0.00  0.00    -0.170 A 
ATOM     13  C   UNL     1      50.497  16.499  18.415  0.00  0.00    +0.094 A 
ATOM     14  C   UNL     1      51.840  16.218  18.227  0.00  0.00    -0.037 A 
ATOM     15  C   UNL     1      52.797  16.919  18.946  0.00  0.00    +0.148 A 
ATOM     18  C   UNL     1      52.416  17.891  19.859  0.00  0.00    -0.033 A 
ATOM     19  C   UNL     1      51.074  18.172  20.059  0.00  0.00    +0.162 A 
ATOM     20  O   UNL     1      50.693  19.104  20.964  0.00  0.00    -0.321 OA
ATOM     21  C   UNL     1      49.475  19.848  20.828  0.00  0.00    +0.277 C 
ATOM     22  C   UNL     1      45.463  18.626  18.324  0.00  0.00    -0.003 A 
ATOM     23  C   UNL     1      48.788  19.447  19.547  0.00  0.00    -0.013 C 
ATOM     24  C   UNL     1      44.697  19.744  18.623  0.00  0.00    +0.172 A 
ATOM     25  O   UNL     1      43.385  19.784  18.265  0.00  0.00    -0.303 OA
ENDROOT
BRANCH  15  16
ATOM     16  O   UNL     1      54.115  16.651  18.756  0.00  0.00    -0.495 OA
ATOM     17  H   UNL     1      54.353  16.486  17.833  0.00  0.00    +0.396 HD
ENDBRANCH  15  16
TORSDOF 1
ENDMDL
MODEL 6
REMARK VINA RESULT:      -6.1      3.438      5.277
REMARK  Name = ZINC02004122
REMARK  3 active torsions:
REMARK  status: ('A' for Active; 'I' for Inactive)
REMARK    1  A    between atoms: C1_1  and  C2_2
REMARK    2  A    between atoms: C2_2  and  C20_26
REMARK    3  A    between atoms: C18_23  and  O4_25
REMARK                            x       y       z     vdW  Elec       q    Type
REMARK                         _______ _______ _______ _____ _____    ______ ____
ROOT
ATOM      1  C   UNL     1      48.893  12.349  17.850  0.00  0.00    +0.083 C 
ATOM      2  C   UNL     1      47.871  13.468  18.061  0.00  0.00    +0.147 C 
ATOM      3  C   UNL     1      46.812  13.001  19.061  0.00  0.00    +0.034 C 
ATOM      4  C   UNL     1      47.207  13.787  16.748  0.00  0.00    -0.055 C 
ATOM      5  C   UNL     1      46.747  15.012  16.512  0.00  0.00    +0.044 C 
ATOM      6  C   UNL     1      46.939  16.046  17.553  0.00  0.00    -0.159 A 
ATOM      7  C   UNL     1      46.223  17.247  17.492  0.00  0.00    +0.127 A 
ATOM      8  C   UNL     1      46.429  18.154  18.500  0.00  0.00    -0.182 A 
ATOM      9  C   UNL     1      47.323  17.892  19.570  0.00  0.00    +0.135 A 
ATOM     10  O   UNL     1      47.335  18.927  20.459  0.00  0.00    -0.275 OA
ATOM     11  C   UNL     1      46.073  19.569  20.332  0.00  0.00    +0.226 C 
ATOM     12  C   UNL     1      45.971  21.029  20.627  0.00  0.00    -0.170 A 
ATOM     13  C   UNL     1      46.834  21.712  21.442  0.00  0.00    +0.094 A 
ATOM     14  C   UNL     1      46.680  23.077  21.618  0.00  0.00    -0.037 A 
ATOM     15  C   UNL     1      45.653  23.744  20.966  0.00  0.00    +0.148 A 
ATOM     18  C   UNL     1      44.773  23.050  20.149  0.00  0.00    -0.033 A 
ATOM     19  C   UNL     1      44.915  21.682  19.975  0.00  0.00    +0.162 A 
ATOM     20  O   UNL     1      44.047  20.993  19.197  0.00  0.00    -0.321 OA
ATOM     21  C   UNL     1      44.423  19.791  18.512  0.00  0.00    +0.277 C 
ATOM     22  C   UNL     1      48.046  16.706  19.615  0.00  0.00    -0.003 A 
ATOM     23  C   UNL     1      45.880  19.504  18.777  0.00  0.00    -0.013 C 
ATOM     24  C   UNL     1      47.841  15.789  18.594  0.00  0.00    +0.172 A 
ATOM     25  O   UNL     1      48.534  14.619  18.582  0.00  0.00    -0.303 OA
ENDROOT
BRANCH  15  16
ATOM     16  O   UNL     1      45.508  25.084  21.129  0.00  0.00    -0.495 OA
ATOM     17  H   UNL     1      45.100  25.337  21.969  0.00  0.00    +0.396 HD
ENDBRANCH  15  16
TORSDOF 1
ENDMDL
MODEL 7
REMARK VINA RESULT:      -5.9      5.919      8.937
REMARK  Name = ZINC02004122
REMARK  3 active torsions:
REMARK  status: ('A' for Active; 'I' for Inactive)
REMARK    1  A    between atoms: C1_1  and  C2_2
REMARK    2  A    between atoms: C2_2  and  C20_26
REMARK    3  A    between atoms: C18_23  and  O4_25
REMARK                            x       y       z     vdW  Elec       q    Type
REMARK                         _______ _______ _______ _____ _____    ______ ____
ROOT
ATOM      1  C   UNL     1      45.465  11.086  16.115  0.00  0.00    +0.083 C 
ATOM      2  C   UNL     1      46.773  11.865  16.263  0.00  0.00    +0.147 C 
ATOM      3  C   UNL     1      47.488  11.911  14.910  0.00  0.00    +0.034 C 
ATOM      4  C   UNL     1      47.654  11.171  17.266  0.00  0.00    -0.055 C 
ATOM      5  C   UNL     1      48.524  11.871  17.988  0.00  0.00    +0.044 C 
ATOM      6  C   UNL     1      48.573  13.338  17.801  0.00  0.00    -0.159 A 
ATOM      7  C   UNL     1      49.655  14.075  18.297  0.00  0.00    +0.127 A 
ATOM      8  C   UNL     1      49.652  15.427  18.069  0.00  0.00    -0.182 A 
ATOM      9  C   UNL     1      48.604  16.063  17.354  0.00  0.00    +0.135 A 
ATOM     10  O   UNL     1      48.837  17.401  17.232  0.00  0.00    -0.275 OA
ATOM     11  C   UNL     1      50.248  17.561  17.311  0.00  0.00    +0.226 C 
ATOM     12  C   UNL     1      50.802  18.837  17.853  0.00  0.00    -0.170 A 
ATOM     13  C   UNL     1      50.132  20.032  17.847  0.00  0.00    +0.094 A 
ATOM     14  C   UNL     1      50.716  21.152  18.416  0.00  0.00    -0.037 A 
ATOM     15  C   UNL     1      51.976  21.056  18.987  0.00  0.00    +0.148 A 
ATOM     18  C   UNL     1      52.659  19.848  18.983  0.00  0.00    -0.033 A 
ATOM     19  C   UNL     1      52.085  18.725  18.409  0.00  0.00    +0.162 A 
ATOM     20  O   UNL     1      52.753  17.548  18.381  0.00  0.00    -0.321 OA
ATOM     21  C   UNL     1      52.076  16.285  18.366  0.00  0.00    +0.277 C 
ATOM     22  C   UNL     1      47.522  15.328  16.880  0.00  0.00    -0.003 A 
ATOM     23  C   UNL     1      50.588  16.518  18.432  0.00  0.00    -0.013 C 
ATOM     24  C   UNL     1      47.523  13.960  17.114  0.00  0.00    +0.172 A 
ATOM     25  O   UNL     1      46.481  13.197  16.685  0.00  0.00    -0.303 OA
ENDROOT
BRANCH  15  16
ATOM     16  O   UNL     1      52.546  22.151  19.554  0.00  0.00    -0.495 OA
ATOM     17  H   UNL     1      52.431  22.203  20.513  0.00  0.00    +0.396 HD
ENDBRANCH  15  16
TORSDOF 1
ENDMDL
MODEL 8
REMARK VINA RESULT:      -5.9      1.902      8.094
REMARK  Name = ZINC02004122
REMARK  3 active torsions:
REMARK  status: ('A' for Active; 'I' for Inactive)
REMARK    1  A    between atoms: C1_1  and  C2_2
REMARK    2  A    between atoms: C2_2  and  C20_26
REMARK    3  A    between atoms: C18_23  and  O4_25
REMARK                            x       y       z     vdW  Elec       q    Type
REMARK                         _______ _______ _______ _____ _____    ______ ____
ROOT
ATOM      1  C   UNL     1      39.999  20.003  17.850  0.00  0.00    +0.083 C 
ATOM      2  C   UNL     1      41.103  20.413  18.825  0.00  0.00    +0.147 C 
ATOM      3  C   UNL     1      40.755  19.903  20.225  0.00  0.00    +0.034 C 
ATOM      4  C   UNL     1      41.206  21.915  18.856  0.00  0.00    -0.055 C 
ATOM      5  C   UNL     1      42.369  22.500  19.128  0.00  0.00    +0.044 C 
ATOM      6  C   UNL     1      43.549  21.639  19.362  0.00  0.00    -0.159 A 
ATOM      7  C   UNL     1      44.706  22.174  19.942  0.00  0.00    +0.127 A 
ATOM      8  C   UNL     1      45.757  21.319  20.154  0.00  0.00    -0.182 A 
ATOM      9  C   UNL     1      45.682  19.944  19.811  0.00  0.00    +0.135 A 
ATOM     10  O   UNL     1      46.836  19.295  20.141  0.00  0.00    -0.275 OA
ATOM     11  C   UNL     1      47.412  20.041  21.206  0.00  0.00    +0.226 C 
ATOM     12  C   UNL     1      48.896  20.033  21.374  0.00  0.00    -0.170 A 
ATOM     13  C   UNL     1      49.718  19.038  20.917  0.00  0.00    +0.094 A 
ATOM     14  C   UNL     1      51.089  19.146  21.083  0.00  0.00    -0.037 A 
ATOM     15  C   UNL     1      51.620  20.262  21.711  0.00  0.00    +0.148 A 
ATOM     18  C   UNL     1      50.787  21.266  22.183  0.00  0.00    -0.033 A 
ATOM     19  C   UNL     1      49.414  21.161  22.028  0.00  0.00    +0.162 A 
ATOM     20  O   UNL     1      48.591  22.125  22.505  0.00  0.00    -0.321 OA
ATOM     21  C   UNL     1      47.315  22.401  21.916  0.00  0.00    +0.277 C 
ATOM     22  C   UNL     1      44.538  19.423  19.217  0.00  0.00    -0.003 A 
ATOM     23  C   UNL     1      47.114  21.502  20.721  0.00  0.00    -0.013 C 
ATOM     24  C   UNL     1      43.476  20.289  18.999  0.00  0.00    +0.172 A 
ATOM     25  O   UNL     1      42.339  19.833  18.407  0.00  0.00    -0.303 OA
ENDROOT
BRANCH  15  16
ATOM     16  O   UNL     1      52.965  20.374  21.866  0.00  0.00    -0.495 OA
ATOM     17  H   UNL     1      53.245  21.192  22.299  0.00  0.00    +0.396 HD
ENDBRANCH  15  16
TORSDOF 1
ENDMDL
MODEL 9
REMARK VINA RESULT:      -5.8      5.268      6.624
REMARK  Name = ZINC02004122
REMARK  3 active torsions:
REMARK  status: ('A' for Active; 'I' for Inactive)
REMARK    1  A    between atoms: C1_1  and  C2_2
REMARK    2  A    between atoms: C2_2  and  C20_26
REMARK    3  A    between atoms: C18_23  and  O4_25
REMARK                            x       y       z     vdW  Elec       q    Type
REMARK                         _______ _______ _______ _____ _____    ______ ____
ROOT
ATOM      1  C   UNL     1      49.893  10.374  14.941  0.00  0.00    +0.083 C 
ATOM      2  C   UNL     1      49.322  11.156  16.124  0.00  0.00    +0.147 C 
ATOM      3  C   UNL     1      50.465  11.579  17.049  0.00  0.00    +0.034 C 
ATOM      4  C   UNL     1      48.367  10.277  16.886  0.00  0.00    -0.055 C 
ATOM      5  C   UNL     1      47.349  10.814  17.552  0.00  0.00    +0.044 C 
ATOM      6  C   UNL     1      47.167  12.281  17.491  0.00  0.00    -0.159 A 
ATOM      7  C   UNL     1      46.316  12.923  18.398  0.00  0.00    +0.127 A 
ATOM      8  C   UNL     1      46.209  14.287  18.304  0.00  0.00    -0.182 A 
ATOM      9  C   UNL     1      46.934  15.028  17.335  0.00  0.00    +0.135 A 
ATOM     10  O   UNL     1      46.685  16.364  17.457  0.00  0.00    -0.275 OA
ATOM     11  C   UNL     1      46.308  16.570  18.812  0.00  0.00    +0.226 C 
ATOM     12  C   UNL     1      45.383  17.694  19.142  0.00  0.00    -0.170 A 
ATOM     13  C   UNL     1      45.226  18.816  18.371  0.00  0.00    +0.094 A 
ATOM     14  C   UNL     1      44.307  19.783  18.742  0.00  0.00    -0.037 A 
ATOM     15  C   UNL     1      43.551  19.610  19.891  0.00  0.00    +0.148 A 
ATOM     18  C   UNL     1      43.716  18.480  20.677  0.00  0.00    -0.033 A 
ATOM     19  C   UNL     1      44.640  17.510  20.318  0.00  0.00    +0.162 A 
ATOM     20  O   UNL     1      44.824  16.414  21.091  0.00  0.00    -0.321 OA
ATOM     21  C   UNL     1      45.268  15.164  20.551  0.00  0.00    +0.277 C 
ATOM     22  C   UNL     1      47.763  14.383  16.424  0.00  0.00    -0.003 A 
ATOM     23  C   UNL     1      45.426  15.297  19.057  0.00  0.00    -0.013 C 
ATOM     24  C   UNL     1      47.869  13.003  16.517  0.00  0.00    +0.172 A 
ATOM     25  O   UNL     1      48.654  12.321  15.640  0.00  0.00    -0.303 OA
ENDROOT
BRANCH  15  16
ATOM     16  O   UNL     1      42.642  20.554  20.250  0.00  0.00    -0.495 OA
ATOM     17  H   UNL     1      42.023  20.791  19.546  0.00  0.00    +0.396 HD
ENDBRANCH  15  16
TORSDOF 1
ENDMDL
