MODEL 1
REMARK VINA RESULT:      -6.1      0.000      0.000
REMARK  Name = ZINC95486323
REMARK  7 active torsions:
REMARK  status: ('A' for Active; 'I' for Inactive)
REMARK    1  A    between atoms: C1_1  and  C2_2
REMARK    2  A    between atoms: C3_3  and  O7_28
REMARK    3  A    between atoms: C5_6  and  C7_9
REMARK    4  A    between atoms: C8_10  and  O6_27
REMARK    5  A    between atoms: C12_14  and  O3_15
REMARK    6  A    between atoms: C15_19  and  C16_21
REMARK    7  A    between atoms: O7_28  and  C22_29
REMARK                            x       y       z     vdW  Elec       q    Type
REMARK                         _______ _______ _______ _____ _____    ______ ____
ROOT
ATOM      8  C   UNL     1      46.783  15.288  18.543  0.00  0.00    -0.115 A 
ATOM      9  C   UNL     1      47.017  16.185  17.493  0.00  0.00    +0.210 A 
ATOM     12  C   UNL     1      46.369  17.407  17.455  0.00  0.00    -0.023 A 
ATOM     13  C   UNL     1      45.479  17.757  18.459  0.00  0.00    +0.189 A 
ATOM     14  C   UNL     1      45.238  16.863  19.518  0.00  0.00    -0.263 A 
ATOM     15  C   UNL     1      44.288  17.259  20.571  0.00  0.00    +0.424 A 
ATOM     16  C   UNL     1      43.673  18.530  20.448  0.00  0.00    -0.146 A 
ATOM     17  C   UNL     1      43.975  19.320  19.385  0.00  0.00    +0.208 A 
ATOM     24  O   UNL     1      44.041  16.524  21.512  0.00  0.00    -0.452 OA
ATOM     25  O   UNL     1      44.843  18.948  18.431  0.00  0.00    -0.217 OA
ATOM     26  C   UNL     1      45.886  15.623  19.556  0.00  0.00    +0.238 A 
ENDROOT
BRANCH   8   7
ATOM      1  C   UNL     1      49.590  10.277  18.731  0.00  0.00    +0.186 C 
ATOM      2  C   UNL     1      48.812  11.566  18.650  0.00  0.00    +0.117 A 
ATOM      3  C   UNL     1      47.635  11.583  17.988  0.00  0.00    -0.086 A 
ATOM      6  C   UNL     1      46.905  12.800  17.914  0.00  0.00    +0.394 A 
ATOM      7  C   UNL     1      47.482  13.981  18.574  0.00  0.00    -0.216 A 
ATOM     29  C   UNL     1      48.676  13.842  19.213  0.00  0.00    +0.328 A 
ATOM     30  O   UNL     1      45.837  12.863  17.326  0.00  0.00    -0.466 OA
ATOM     31  O   UNL     1      49.302  12.661  19.242  0.00  0.00    -0.197 OA
BRANCH   3   4
ATOM      4  O   UNL     1      47.157  10.453  17.398  0.00  0.00    -0.301 OA
ATOM      5  C   UNL     1      47.366  10.317  15.991  0.00  0.00    +0.231 C 
ENDBRANCH   3   4
ENDBRANCH   8   7
BRANCH  17  18
ATOM     18  C   UNL     1      43.323  20.641  19.275  0.00  0.00    -0.075 A 
ATOM     19  C   UNL     1      41.998  20.736  18.845  0.00  0.00    +0.056 A 
ATOM     20  C   UNL     1      41.395  21.973  18.744  0.00  0.00    +0.014 A 
ATOM     21  C   UNL     1      42.101  23.118  19.068  0.00  0.00    +0.038 A 
ATOM     22  C   UNL     1      43.414  23.031  19.495  0.00  0.00    +0.010 A 
ATOM     23  C   UNL     1      44.027  21.801  19.605  0.00  0.00    +0.056 A 
ENDBRANCH  17  18
BRANCH   9  10
ATOM     10  O   UNL     1      47.887  15.853  16.505  0.00  0.00    -0.478 OA
ATOM     11  H   UNL     1      47.678  16.249  15.648  0.00  0.00    +0.401 HD
ENDBRANCH   9  10
BRANCH  26  27
ATOM     27  O   UNL     1      45.648  14.758  20.574  0.00  0.00    -0.469 OA
ATOM     28  H   UNL     1      44.736  14.769  20.895  0.00  0.00    +0.404 HD
ENDBRANCH  26  27
TORSDOF 5
ENDMDL
MODEL 2
REMARK VINA RESULT:      -5.9      3.126      4.365
REMARK  Name = ZINC95486323
REMARK  7 active torsions:
REMARK  status: ('A' for Active; 'I' for Inactive)
REMARK    1  A    between atoms: C1_1  and  C2_2
REMARK    2  A    between atoms: C3_3  and  O7_28
REMARK    3  A    between atoms: C5_6  and  C7_9
REMARK    4  A    between atoms: C8_10  and  O6_27
REMARK    5  A    between atoms: C12_14  and  O3_15
REMARK    6  A    between atoms: C15_19  and  C16_21
REMARK    7  A    between atoms: O7_28  and  C22_29
REMARK                            x       y       z     vdW  Elec       q    Type
REMARK                         _______ _______ _______ _____ _____    ______ ____
ROOT
ATOM      8  C   UNL     1      50.283  14.790  16.738  0.00  0.00    -0.115 A 
ATOM      9  C   UNL     1      50.888  16.046  16.881  0.00  0.00    +0.210 A 
ATOM     12  C   UNL     1      50.139  17.148  17.255  0.00  0.00    -0.023 A 
ATOM     13  C   UNL     1      48.778  17.019  17.493  0.00  0.00    +0.189 A 
ATOM     14  C   UNL     1      48.163  15.762  17.353  0.00  0.00    -0.263 A 
ATOM     15  C   UNL     1      46.718  15.655  17.611  0.00  0.00    +0.424 A 
ATOM     16  C   UNL     1      46.034  16.836  17.990  0.00  0.00    -0.146 A 
ATOM     17  C   UNL     1      46.722  18.003  18.098  0.00  0.00    +0.208 A 
ATOM     24  O   UNL     1      46.132  14.589  17.505  0.00  0.00    -0.452 OA
ATOM     25  O   UNL     1      48.040  18.089  17.859  0.00  0.00    -0.217 OA
ATOM     26  C   UNL     1      48.916  14.647  16.968  0.00  0.00    +0.238 A 
ENDROOT
BRANCH   8   7
ATOM      1  C   UNL     1      53.418  10.277  15.058  0.00  0.00    +0.186 C 
ATOM      2  C   UNL     1      52.602  11.443  15.554  0.00  0.00    +0.117 A 
ATOM      3  C   UNL     1      52.386  11.578  16.881  0.00  0.00    -0.086 A 
ATOM      6  C   UNL     1      51.615  12.679  17.343  0.00  0.00    +0.394 A 
ATOM      7  C   UNL     1      51.095  13.616  16.337  0.00  0.00    -0.216 A 
ATOM     29  C   UNL     1      51.379  13.377  15.027  0.00  0.00    +0.328 A 
ATOM     30  O   UNL     1      51.394  12.841  18.533  0.00  0.00    -0.466 OA
ATOM     31  O   UNL     1      52.115  12.320  14.669  0.00  0.00    -0.197 OA
BRANCH   3   4
ATOM      4  O   UNL     1      52.897  10.672  17.760  0.00  0.00    -0.301 OA
ATOM      5  C   UNL     1      54.068  11.059  18.481  0.00  0.00    +0.231 C 
ENDBRANCH   3   4
ENDBRANCH   8   7
BRANCH  17  18
ATOM     18  C   UNL     1      45.991  19.224  18.493  0.00  0.00    -0.075 A 
ATOM     19  C   UNL     1      44.606  19.186  18.671  0.00  0.00    +0.056 A 
ATOM     20  C   UNL     1      43.929  20.330  19.040  0.00  0.00    +0.014 A 
ATOM     21  C   UNL     1      44.620  21.513  19.234  0.00  0.00    +0.038 A 
ATOM     22  C   UNL     1      45.991  21.558  19.059  0.00  0.00    +0.010 A 
ATOM     23  C   UNL     1      46.681  20.421  18.695  0.00  0.00    +0.056 A 
ENDBRANCH  17  18
BRANCH   9  10
ATOM     10  O   UNL     1      52.218  16.183  16.651  0.00  0.00    -0.478 OA
ATOM     11  H   UNL     1      52.430  16.620  15.814  0.00  0.00    +0.401 HD
ENDBRANCH   9  10
BRANCH  26  27
ATOM     27  O   UNL     1      48.321  13.436  16.827  0.00  0.00    -0.469 OA
ATOM     28  H   UNL     1      48.931  12.688  16.891  0.00  0.00    +0.404 HD
ENDBRANCH  26  27
TORSDOF 5
ENDMDL
MODEL 3
REMARK VINA RESULT:      -5.7      3.931      9.309
REMARK  Name = ZINC95486323
REMARK  7 active torsions:
REMARK  status: ('A' for Active; 'I' for Inactive)
REMARK    1  A    between atoms: C1_1  and  C2_2
REMARK    2  A    between atoms: C3_3  and  O7_28
REMARK    3  A    between atoms: C5_6  and  C7_9
REMARK    4  A    between atoms: C8_10  and  O6_27
REMARK    5  A    between atoms: C12_14  and  O3_15
REMARK    6  A    between atoms: C15_19  and  C16_21
REMARK    7  A    between atoms: O7_28  and  C22_29
REMARK                            x       y       z     vdW  Elec       q    Type
REMARK                         _______ _______ _______ _____ _____    ______ ____
ROOT
ATOM      8  C   UNL     1      47.550  13.447  17.304  0.00  0.00    -0.115 A 
ATOM      9  C   UNL     1      46.778  12.727  16.383  0.00  0.00    +0.210 A 
ATOM     12  C   UNL     1      47.322  12.316  15.179  0.00  0.00    -0.023 A 
ATOM     13  C   UNL     1      48.641  12.614  14.871  0.00  0.00    +0.189 A 
ATOM     14  C   UNL     1      49.424  13.337  15.789  0.00  0.00    -0.263 A 
ATOM     15  C   UNL     1      50.821  13.640  15.437  0.00  0.00    +0.424 A 
ATOM     16  C   UNL     1      51.291  13.178  14.183  0.00  0.00    -0.146 A 
ATOM     17  C   UNL     1      50.453  12.487  13.366  0.00  0.00    +0.208 A 
ATOM     24  O   UNL     1      51.545  14.263  16.195  0.00  0.00    -0.452 OA
ATOM     25  O   UNL     1      49.181  12.217  13.699  0.00  0.00    -0.217 OA
ATOM     26  C   UNL     1      48.875  13.760  17.005  0.00  0.00    +0.238 A 
ENDROOT
BRANCH   8   7
ATOM      1  C   UNL     1      45.288  15.021  22.346  0.00  0.00    +0.186 C 
ATOM      2  C   UNL     1      45.863  14.658  21.001  0.00  0.00    +0.117 A 
ATOM      3  C   UNL     1      45.745  15.533  19.978  0.00  0.00    -0.086 A 
ATOM      6  C   UNL     1      46.289  15.186  18.712  0.00  0.00    +0.394 A 
ATOM      7  C   UNL     1      46.957  13.882  18.591  0.00  0.00    -0.216 A 
ATOM     29  C   UNL     1      47.016  13.085  19.693  0.00  0.00    +0.328 A 
ATOM     30  O   UNL     1      46.205  15.945  17.758  0.00  0.00    -0.466 OA
ATOM     31  O   UNL     1      46.484  13.482  20.853  0.00  0.00    -0.197 OA
BRANCH   3   4
ATOM      4  O   UNL     1      45.113  16.725  20.158  0.00  0.00    -0.301 OA
ATOM      5  C   UNL     1      45.940  17.875  20.349  0.00  0.00    +0.231 C 
ENDBRANCH   3   4
ENDBRANCH   8   7
BRANCH  17  18
ATOM     18  C   UNL     1      50.962  12.015  12.063  0.00  0.00    -0.075 A 
ATOM     19  C   UNL     1      51.445  10.711  11.928  0.00  0.00    +0.056 A 
ATOM     20  C   UNL     1      51.918  10.277  10.707  0.00  0.00    +0.014 A 
ATOM     21  C   UNL     1      51.916  11.130   9.618  0.00  0.00    +0.038 A 
ATOM     22  C   UNL     1      51.439  12.422   9.744  0.00  0.00    +0.010 A 
ATOM     23  C   UNL     1      50.958  12.868  10.957  0.00  0.00    +0.056 A 
ENDBRANCH  17  18
BRANCH   9  10
ATOM     10  O   UNL     1      45.486  12.428  16.675  0.00  0.00    -0.478 OA
ATOM     11  H   UNL     1      45.022  11.960  15.968  0.00  0.00    +0.401 HD
ENDBRANCH   9  10
BRANCH  26  27
ATOM     27  O   UNL     1      49.629  14.462  17.888  0.00  0.00    -0.469 OA
ATOM     28  H   UNL     1      50.051  15.245  17.510  0.00  0.00    +0.404 HD
ENDBRANCH  26  27
TORSDOF 5
ENDMDL
MODEL 4
REMARK VINA RESULT:      -5.7      2.602      4.104
REMARK  Name = ZINC95486323
REMARK  7 active torsions:
REMARK  status: ('A' for Active; 'I' for Inactive)
REMARK    1  A    between atoms: C1_1  and  C2_2
REMARK    2  A    between atoms: C3_3  and  O7_28
REMARK    3  A    between atoms: C5_6  and  C7_9
REMARK    4  A    between atoms: C8_10  and  O6_27
REMARK    5  A    between atoms: C12_14  and  O3_15
REMARK    6  A    between atoms: C15_19  and  C16_21
REMARK    7  A    between atoms: O7_28  and  C22_29
REMARK                            x       y       z     vdW  Elec       q    Type
REMARK                         _______ _______ _______ _____ _____    ______ ____
ROOT
ATOM      8  C   UNL     1      48.506  13.607  17.518  0.00  0.00    -0.115 A 
ATOM      9  C   UNL     1      47.435  12.897  18.077  0.00  0.00    +0.210 A 
ATOM     12  C   UNL     1      46.414  13.565  18.729  0.00  0.00    -0.023 A 
ATOM     13  C   UNL     1      46.441  14.948  18.837  0.00  0.00    +0.189 A 
ATOM     14  C   UNL     1      47.512  15.669  18.278  0.00  0.00    -0.263 A 
ATOM     15  C   UNL     1      47.516  17.135  18.406  0.00  0.00    +0.424 A 
ATOM     16  C   UNL     1      46.428  17.732  19.090  0.00  0.00    -0.146 A 
ATOM     17  C   UNL     1      45.441  16.945  19.593  0.00  0.00    +0.208 A 
ATOM     24  O   UNL     1      48.419  17.810  17.941  0.00  0.00    -0.452 OA
ATOM     25  O   UNL     1      45.448  15.609  19.470  0.00  0.00    -0.217 OA
ATOM     26  C   UNL     1      48.550  14.996  17.624  0.00  0.00    +0.238 A 
ENDROOT
BRANCH   8   7
ATOM      1  C   UNL     1      52.790  10.781  14.932  0.00  0.00    +0.186 C 
ATOM      2  C   UNL     1      51.640  11.527  15.559  0.00  0.00    +0.117 A 
ATOM      3  C   UNL     1      50.613  11.929  14.778  0.00  0.00    -0.086 A 
ATOM      6  C   UNL     1      49.532  12.632  15.374  0.00  0.00    +0.394 A 
ATOM      7  C   UNL     1      49.596  12.880  16.822  0.00  0.00    -0.216 A 
ATOM     29  C   UNL     1      50.682  12.426  17.505  0.00  0.00    +0.328 A 
ATOM     30  O   UNL     1      48.582  13.014  14.707  0.00  0.00    -0.466 OA
ATOM     31  O   UNL     1      51.660  11.768  16.875  0.00  0.00    -0.197 OA
BRANCH   3   4
ATOM      4  O   UNL     1      50.616  11.665  13.443  0.00  0.00    -0.301 OA
ATOM      5  C   UNL     1      50.954  12.745  12.570  0.00  0.00    +0.231 C 
ENDBRANCH   3   4
ENDBRANCH   8   7
BRANCH  17  18
ATOM     18  C   UNL     1      44.316  17.586  20.304  0.00  0.00    -0.075 A 
ATOM     19  C   UNL     1      43.863  17.064  21.517  0.00  0.00    +0.056 A 
ATOM     20  C   UNL     1      42.812  17.668  22.175  0.00  0.00    +0.014 A 
ATOM     21  C   UNL     1      42.205  18.788  21.635  0.00  0.00    +0.038 A 
ATOM     22  C   UNL     1      42.649  19.311  20.433  0.00  0.00    +0.010 A 
ATOM     23  C   UNL     1      43.702  18.720  19.768  0.00  0.00    +0.056 A 
ENDBRANCH  17  18
BRANCH   9  10
ATOM     10  O   UNL     1      47.399  11.544  17.977  0.00  0.00    -0.478 OA
ATOM     11  H   UNL     1      48.058  11.092  18.522  0.00  0.00    +0.401 HD
ENDBRANCH   9  10
BRANCH  26  27
ATOM     27  O   UNL     1      49.587  15.690  17.090  0.00  0.00    -0.469 OA
ATOM     28  H   UNL     1      49.411  16.042  16.206  0.00  0.00    +0.404 HD
ENDBRANCH  26  27
TORSDOF 5
ENDMDL
MODEL 5
REMARK VINA RESULT:      -5.6      2.676      3.260
REMARK  Name = ZINC95486323
REMARK  7 active torsions:
REMARK  status: ('A' for Active; 'I' for Inactive)
REMARK    1  A    between atoms: C1_1  and  C2_2
REMARK    2  A    between atoms: C3_3  and  O7_28
REMARK    3  A    between atoms: C5_6  and  C7_9
REMARK    4  A    between atoms: C8_10  and  O6_27
REMARK    5  A    between atoms: C12_14  and  O3_15
REMARK    6  A    between atoms: C15_19  and  C16_21
REMARK    7  A    between atoms: O7_28  and  C22_29
REMARK                            x       y       z     vdW  Elec       q    Type
REMARK                         _______ _______ _______ _____ _____    ______ ____
ROOT
ATOM      8  C   UNL     1      49.568  15.070  17.243  0.00  0.00    -0.115 A 
ATOM      9  C   UNL     1      50.078  16.356  17.020  0.00  0.00    +0.210 A 
ATOM     12  C   UNL     1      49.321  17.474  17.321  0.00  0.00    -0.023 A 
ATOM     13  C   UNL     1      48.045  17.332  17.848  0.00  0.00    +0.189 A 
ATOM     14  C   UNL     1      47.526  16.045  18.075  0.00  0.00    -0.263 A 
ATOM     15  C   UNL     1      46.169  15.924  18.635  0.00  0.00    +0.424 A 
ATOM     16  C   UNL     1      45.469  17.124  18.912  0.00  0.00    -0.146 A 
ATOM     17  C   UNL     1      46.062  18.319  18.656  0.00  0.00    +0.208 A 
ATOM     24  O   UNL     1      45.669  14.833  18.853  0.00  0.00    -0.452 OA
ATOM     25  O   UNL     1      47.299  18.418  18.146  0.00  0.00    -0.217 OA
ATOM     26  C   UNL     1      48.286  14.912  17.766  0.00  0.00    +0.238 A 
ENDROOT
BRANCH   8   7
ATOM      1  C   UNL     1      52.825  10.481  16.079  0.00  0.00    +0.186 C 
ATOM      2  C   UNL     1      51.938  11.672  16.338  0.00  0.00    +0.117 A 
ATOM      3  C   UNL     1      50.892  11.904  15.516  0.00  0.00    -0.086 A 
ATOM      6  C   UNL     1      50.059  13.028  15.764  0.00  0.00    +0.394 A 
ATOM      7  C   UNL     1      50.389  13.879  16.916  0.00  0.00    -0.216 A 
ATOM     29  C   UNL     1      51.468  13.545  17.675  0.00  0.00    +0.328 A 
ATOM     30  O   UNL     1      49.102  13.277  15.047  0.00  0.00    -0.466 OA
ATOM     31  O   UNL     1      52.204  12.467  17.381  0.00  0.00    -0.197 OA
BRANCH   3   4
ATOM      4  O   UNL     1      50.642  11.075  14.465  0.00  0.00    -0.301 OA
ATOM      5  C   UNL     1      51.088  11.506  13.178  0.00  0.00    +0.231 C 
ENDBRANCH   3   4
ENDBRANCH   8   7
BRANCH  17  18
ATOM     18  C   UNL     1      45.315  19.559  18.952  0.00  0.00    -0.075 A 
ATOM     19  C   UNL     1      43.960  19.500  19.286  0.00  0.00    +0.056 A 
ATOM     20  C   UNL     1      43.270  20.662  19.561  0.00  0.00    +0.014 A 
ATOM     21  C   UNL     1      43.916  21.884  19.505  0.00  0.00    +0.038 A 
ATOM     22  C   UNL     1      45.258  21.950  19.175  0.00  0.00    +0.010 A 
ATOM     23  C   UNL     1      45.962  20.796  18.903  0.00  0.00    +0.056 A 
ENDBRANCH  17  18
BRANCH   9  10
ATOM     10  O   UNL     1      51.325  16.506  16.505  0.00  0.00    -0.478 OA
ATOM     11  H   UNL     1      51.412  16.202  15.591  0.00  0.00    +0.401 HD
ENDBRANCH   9  10
BRANCH  26  27
ATOM     27  O   UNL     1      47.782  13.671  17.979  0.00  0.00    -0.469 OA
ATOM     28  H   UNL     1      46.937  13.507  17.537  0.00  0.00    +0.404 HD
ENDBRANCH  26  27
TORSDOF 5
ENDMDL
MODEL 6
REMARK VINA RESULT:      -5.5      3.157      4.714
REMARK  Name = ZINC95486323
REMARK  7 active torsions:
REMARK  status: ('A' for Active; 'I' for Inactive)
REMARK    1  A    between atoms: C1_1  and  C2_2
REMARK    2  A    between atoms: C3_3  and  O7_28
REMARK    3  A    between atoms: C5_6  and  C7_9
REMARK    4  A    between atoms: C8_10  and  O6_27
REMARK    5  A    between atoms: C12_14  and  O3_15
REMARK    6  A    between atoms: C15_19  and  C16_21
REMARK    7  A    between atoms: O7_28  and  C22_29
REMARK                            x       y       z     vdW  Elec       q    Type
REMARK                         _______ _______ _______ _____ _____    ______ ____
ROOT
ATOM      8  C   UNL     1      49.819  14.298  16.661  0.00  0.00    -0.115 A 
ATOM      9  C   UNL     1      48.443  14.076  16.514  0.00  0.00    +0.210 A 
ATOM     12  C   UNL     1      47.531  15.050  16.881  0.00  0.00    -0.023 A 
ATOM     13  C   UNL     1      47.971  16.259  17.399  0.00  0.00    +0.189 A 
ATOM     14  C   UNL     1      49.350  16.490  17.550  0.00  0.00    -0.263 A 
ATOM     15  C   UNL     1      49.790  17.783  18.102  0.00  0.00    +0.424 A 
ATOM     16  C   UNL     1      48.785  18.718  18.449  0.00  0.00    -0.146 A 
ATOM     17  C   UNL     1      47.478  18.397  18.263  0.00  0.00    +0.208 A 
ATOM     24  O   UNL     1      50.973  18.037  18.255  0.00  0.00    -0.452 OA
ATOM     25  O   UNL     1      47.089  17.216  17.758  0.00  0.00    -0.217 OA
ATOM     26  C   UNL     1      50.275  15.505  17.186  0.00  0.00    +0.238 A 
ENDROOT
BRANCH   8   7
ATOM      1  C   UNL     1      53.575  10.276  15.006  0.00  0.00    +0.186 C 
ATOM      2  C   UNL     1      52.589  11.307  15.493  0.00  0.00    +0.117 A 
ATOM      3  C   UNL     1      52.157  11.251  16.772  0.00  0.00    -0.086 A 
ATOM      6  C   UNL     1      51.227  12.225  17.226  0.00  0.00    +0.394 A 
ATOM      7  C   UNL     1      50.787  13.247  16.265  0.00  0.00    -0.216 A 
ATOM     29  C   UNL     1      51.293  13.203  15.002  0.00  0.00    +0.328 A 
ATOM     30  O   UNL     1      50.808  12.213  18.373  0.00  0.00    -0.466 OA
ATOM     31  O   UNL     1      52.169  12.257  14.649  0.00  0.00    -0.197 OA
BRANCH   3   4
ATOM      4  O   UNL     1      52.604  10.277  17.610  0.00  0.00    -0.301 OA
ATOM      5  C   UNL     1      53.713  10.603  18.450  0.00  0.00    +0.231 C 
ENDBRANCH   3   4
ENDBRANCH   8   7
BRANCH  17  18
ATOM     18  C   UNL     1      46.444  19.386  18.631  0.00  0.00    -0.075 A 
ATOM     19  C   UNL     1      46.812  20.606  19.204  0.00  0.00    +0.056 A 
ATOM     20  C   UNL     1      45.842  21.525  19.544  0.00  0.00    +0.014 A 
ATOM     21  C   UNL     1      44.506  21.240  19.321  0.00  0.00    +0.038 A 
ATOM     22  C   UNL     1      44.135  20.034  18.755  0.00  0.00    +0.010 A 
ATOM     23  C   UNL     1      45.094  19.108  18.404  0.00  0.00    +0.056 A 
ENDBRANCH  17  18
BRANCH   9  10
ATOM     10  O   UNL     1      48.002  12.896  16.007  0.00  0.00    -0.478 OA
ATOM     11  H   UNL     1      47.616  12.305  16.668  0.00  0.00    +0.401 HD
ENDBRANCH   9  10
BRANCH  26  27
ATOM     27  O   UNL     1      51.605  15.727  17.337  0.00  0.00    -0.469 OA
ATOM     28  H   UNL     1      51.966  15.402  18.175  0.00  0.00    +0.404 HD
ENDBRANCH  26  27
TORSDOF 5
ENDMDL
MODEL 7
REMARK VINA RESULT:      -5.4      2.476      8.717
REMARK  Name = ZINC95486323
REMARK  7 active torsions:
REMARK  status: ('A' for Active; 'I' for Inactive)
REMARK    1  A    between atoms: C1_1  and  C2_2
REMARK    2  A    between atoms: C3_3  and  O7_28
REMARK    3  A    between atoms: C5_6  and  C7_9
REMARK    4  A    between atoms: C8_10  and  O6_27
REMARK    5  A    between atoms: C12_14  and  O3_15
REMARK    6  A    between atoms: C15_19  and  C16_21
REMARK    7  A    between atoms: O7_28  and  C22_29
REMARK                            x       y       z     vdW  Elec       q    Type
REMARK                         _______ _______ _______ _____ _____    ______ ____
ROOT
ATOM      8  C   UNL     1      47.163  17.036  18.888  0.00  0.00    -0.115 A 
ATOM      9  C   UNL     1      48.428  17.387  18.401  0.00  0.00    +0.210 A 
ATOM     12  C   UNL     1      49.127  16.527  17.573  0.00  0.00    -0.023 A 
ATOM     13  C   UNL     1      48.578  15.303  17.216  0.00  0.00    +0.189 A 
ATOM     14  C   UNL     1      47.308  14.942  17.700  0.00  0.00    -0.263 A 
ATOM     15  C   UNL     1      46.750  13.638  17.306  0.00  0.00    +0.424 A 
ATOM     16  C   UNL     1      47.537  12.824  16.454  0.00  0.00    -0.146 A 
ATOM     17  C   UNL     1      48.753  13.266  16.041  0.00  0.00    +0.208 A 
ATOM     24  O   UNL     1      45.653  13.273  17.696  0.00  0.00    -0.452 OA
ATOM     25  O   UNL     1      49.252  14.457  16.407  0.00  0.00    -0.217 OA
ATOM     26  C   UNL     1      46.602  15.807  18.543  0.00  0.00    +0.238 A 
ENDROOT
BRANCH   8   7
ATOM      1  C   UNL     1      44.352  20.582  22.430  0.00  0.00    +0.186 C 
ATOM      2  C   UNL     1      45.064  19.679  21.456  0.00  0.00    +0.117 A 
ATOM      3  C   UNL     1      44.854  19.844  20.132  0.00  0.00    -0.086 A 
ATOM      6  C   UNL     1      45.527  18.989  19.218  0.00  0.00    +0.394 A 
ATOM      7  C   UNL     1      46.424  17.966  19.776  0.00  0.00    -0.216 A 
ATOM     29  C   UNL     1      46.557  17.896  21.129  0.00  0.00    +0.328 A 
ATOM     30  O   UNL     1      45.367  19.101  18.012  0.00  0.00    -0.466 OA
ATOM     31  O   UNL     1      45.892  18.739  21.926  0.00  0.00    -0.197 OA
BRANCH   3   4
ATOM      4  O   UNL     1      44.009  20.811  19.681  0.00  0.00    -0.301 OA
ATOM      5  C   UNL     1      42.694  20.399  19.304  0.00  0.00    +0.231 C 
ENDBRANCH   3   4
ENDBRANCH   8   7
BRANCH  17  18
ATOM     18  C   UNL     1      49.559  12.402  15.154  0.00  0.00    -0.075 A 
ATOM     19  C   UNL     1      49.820  11.078  15.512  0.00  0.00    +0.056 A 
ATOM     20  C   UNL     1      50.573  10.277  14.679  0.00  0.00    +0.014 A 
ATOM     21  C   UNL     1      51.069  10.783  13.490  0.00  0.00    +0.038 A 
ATOM     22  C   UNL     1      50.813  12.093  13.129  0.00  0.00    +0.010 A 
ATOM     23  C   UNL     1      50.058  12.904  13.950  0.00  0.00    +0.056 A 
ENDBRANCH  17  18
BRANCH   9  10
ATOM     10  O   UNL     1      48.974  18.582  18.743  0.00  0.00    -0.478 OA
ATOM     11  H   UNL     1      49.448  19.019  18.022  0.00  0.00    +0.401 HD
ENDBRANCH   9  10
BRANCH  26  27
ATOM     27  O   UNL     1      45.380  15.456  19.015  0.00  0.00    -0.469 OA
ATOM     28  H   UNL     1      45.083  15.983  19.771  0.00  0.00    +0.404 HD
ENDBRANCH  26  27
TORSDOF 5
ENDMDL
MODEL 8
REMARK VINA RESULT:      -5.2      2.178      3.497
REMARK  Name = ZINC95486323
REMARK  7 active torsions:
REMARK  status: ('A' for Active; 'I' for Inactive)
REMARK    1  A    between atoms: C1_1  and  C2_2
REMARK    2  A    between atoms: C3_3  and  O7_28
REMARK    3  A    between atoms: C5_6  and  C7_9
REMARK    4  A    between atoms: C8_10  and  O6_27
REMARK    5  A    between atoms: C12_14  and  O3_15
REMARK    6  A    between atoms: C15_19  and  C16_21
REMARK    7  A    between atoms: O7_28  and  C22_29
REMARK                            x       y       z     vdW  Elec       q    Type
REMARK                         _______ _______ _______ _____ _____    ______ ____
ROOT
ATOM      8  C   UNL     1      47.573  15.280  17.892  0.00  0.00    -0.115 A 
ATOM      9  C   UNL     1      46.278  15.391  18.416  0.00  0.00    +0.210 A 
ATOM     12  C   UNL     1      45.824  16.598  18.917  0.00  0.00    -0.023 A 
ATOM     13  C   UNL     1      46.650  17.713  18.906  0.00  0.00    +0.189 A 
ATOM     14  C   UNL     1      47.951  17.611  18.383  0.00  0.00    -0.263 A 
ATOM     15  C   UNL     1      48.806  18.810  18.384  0.00  0.00    +0.424 A 
ATOM     16  C   UNL     1      48.256  20.001  18.917  0.00  0.00    -0.146 A 
ATOM     17  C   UNL     1      46.985  19.995  19.399  0.00  0.00    +0.208 A 
ATOM     24  O   UNL     1      49.943  18.778  17.942  0.00  0.00    -0.452 OA
ATOM     25  O   UNL     1      46.215  18.896  19.392  0.00  0.00    -0.217 OA
ATOM     26  C   UNL     1      48.416  16.390  17.881  0.00  0.00    +0.238 A 
ENDROOT
BRANCH   8   7
ATOM      1  C   UNL     1      49.366  10.278  15.704  0.00  0.00    +0.186 C 
ATOM      2  C   UNL     1      48.919  11.574  16.329  0.00  0.00    +0.117 A 
ATOM      3  C   UNL     1      49.197  11.807  17.631  0.00  0.00    -0.086 A 
ATOM      6  C   UNL     1      48.773  13.031  18.215  0.00  0.00    +0.394 A 
ATOM      7  C   UNL     1      48.049  13.981  17.357  0.00  0.00    -0.216 A 
ATOM     29  C   UNL     1      47.827  13.636  16.059  0.00  0.00    +0.328 A 
ATOM     30  O   UNL     1      49.002  13.285  19.388  0.00  0.00    -0.466 OA
ATOM     31  O   UNL     1      48.262  12.466  15.579  0.00  0.00    -0.197 OA
BRANCH   3   4
ATOM      4  O   UNL     1      49.872  10.884  18.369  0.00  0.00    -0.301 OA
ATOM      5  C   UNL     1      51.283  11.064  18.500  0.00  0.00    +0.231 C 
ENDBRANCH   3   4
ENDBRANCH   8   7
BRANCH  17  18
ATOM     18  C   UNL     1      46.430  21.247  19.951  0.00  0.00    -0.075 A 
ATOM     19  C   UNL     1      45.263  21.795  19.413  0.00  0.00    +0.056 A 
ATOM     20  C   UNL     1      44.750  22.965  19.934  0.00  0.00    +0.014 A 
ATOM     21  C   UNL     1      45.388  23.595  20.987  0.00  0.00    +0.038 A 
ATOM     22  C   UNL     1      46.544  23.058  21.525  0.00  0.00    +0.010 A 
ATOM     23  C   UNL     1      47.065  21.886  21.018  0.00  0.00    +0.056 A 
ENDBRANCH  17  18
BRANCH   9  10
ATOM     10  O   UNL     1      45.462  14.306  18.430  0.00  0.00    -0.478 OA
ATOM     11  H   UNL     1      45.505  13.772  17.625  0.00  0.00    +0.401 HD
ENDBRANCH   9  10
BRANCH  26  27
ATOM     27  O   UNL     1      49.673  16.290  17.381  0.00  0.00    -0.469 OA
ATOM     28  H   UNL     1      50.317  15.926  18.005  0.00  0.00    +0.404 HD
ENDBRANCH  26  27
TORSDOF 5
ENDMDL
MODEL 9
REMARK VINA RESULT:      -5.2      3.257      4.501
REMARK  Name = ZINC95486323
REMARK  7 active torsions:
REMARK  status: ('A' for Active; 'I' for Inactive)
REMARK    1  A    between atoms: C1_1  and  C2_2
REMARK    2  A    between atoms: C3_3  and  O7_28
REMARK    3  A    between atoms: C5_6  and  C7_9
REMARK    4  A    between atoms: C8_10  and  O6_27
REMARK    5  A    between atoms: C12_14  and  O3_15
REMARK    6  A    between atoms: C15_19  and  C16_21
REMARK    7  A    between atoms: O7_28  and  C22_29
REMARK                            x       y       z     vdW  Elec       q    Type
REMARK                         _______ _______ _______ _____ _____    ______ ____
ROOT
ATOM      8  C   UNL     1      49.963  14.988  17.858  0.00  0.00    -0.115 A 
ATOM      9  C   UNL     1      48.681  14.782  18.385  0.00  0.00    +0.210 A 
ATOM     12  C   UNL     1      47.918  15.853  18.815  0.00  0.00    -0.023 A 
ATOM     13  C   UNL     1      48.417  17.144  18.730  0.00  0.00    +0.189 A 
ATOM     14  C   UNL     1      49.702  17.360  18.202  0.00  0.00    -0.263 A 
ATOM     15  C   UNL     1      50.207  18.741  18.124  0.00  0.00    +0.424 A 
ATOM     16  C   UNL     1      49.355  19.774  18.588  0.00  0.00    -0.146 A 
ATOM     17  C   UNL     1      48.128  19.459  19.080  0.00  0.00    +0.208 A 
ATOM     24  O   UNL     1      51.315  18.987  17.675  0.00  0.00    -0.452 OA
ATOM     25  O   UNL     1      47.679  18.196  19.147  0.00  0.00    -0.217 OA
ATOM     26  C   UNL     1      50.479  16.279  17.772  0.00  0.00    +0.238 A 
ENDROOT
BRANCH   8   7
ATOM      1  C   UNL     1      53.170  10.521  16.188  0.00  0.00    +0.186 C 
ATOM      2  C   UNL     1      52.297  11.687  16.577  0.00  0.00    +0.117 A 
ATOM      3  C   UNL     1      51.294  12.062  15.753  0.00  0.00    -0.086 A 
ATOM      6  C   UNL     1      50.475  13.162  16.125  0.00  0.00    +0.394 A 
ATOM      7  C   UNL     1      50.771  13.832  17.399  0.00  0.00    -0.216 A 
ATOM     29  C   UNL     1      51.809  13.365  18.146  0.00  0.00    +0.328 A 
ATOM     30  O   UNL     1      49.556  13.536  15.411  0.00  0.00    -0.466 OA
ATOM     31  O   UNL     1      52.533  12.320  17.732  0.00  0.00    -0.197 OA
BRANCH   3   4
ATOM      4  O   UNL     1      51.073  11.397  14.586  0.00  0.00    -0.301 OA
ATOM      5  C   UNL     1      50.038  10.411  14.587  0.00  0.00    +0.231 C 
ENDBRANCH   3   4
ENDBRANCH   8   7
BRANCH  17  18
ATOM     18  C   UNL     1      47.255  20.549  19.560  0.00  0.00    -0.075 A 
ATOM     19  C   UNL     1      47.566  21.230  20.739  0.00  0.00    +0.056 A 
ATOM     20  C   UNL     1      46.747  22.248  21.181  0.00  0.00    +0.014 A 
ATOM     21  C   UNL     1      45.618  22.594  20.459  0.00  0.00    +0.038 A 
ATOM     22  C   UNL     1      45.304  21.924  19.291  0.00  0.00    +0.010 A 
ATOM     23  C   UNL     1      46.117  20.908  18.834  0.00  0.00    +0.056 A 
ENDBRANCH  17  18
BRANCH   9  10
ATOM     10  O   UNL     1      48.183  13.522  18.472  0.00  0.00    -0.478 OA
ATOM     11  H   UNL     1      48.530  12.915  17.804  0.00  0.00    +0.401 HD
ENDBRANCH   9  10
BRANCH  26  27
ATOM     27  O   UNL     1      51.722  16.487  17.269  0.00  0.00    -0.469 OA
ATOM     28  H   UNL     1      52.110  15.710  16.843  0.00  0.00    +0.404 HD
ENDBRANCH  26  27
TORSDOF 5
ENDMDL
