MODEL 1
REMARK VINA RESULT:      -7.1      0.000      0.000
REMARK  Name = ZINC95485981
REMARK  13 active torsions:
REMARK  status: ('A' for Active; 'I' for Inactive)
REMARK    1  A    between atoms: C1_1  and  C2_2
REMARK    2  A    between atoms: C2_2  and  C26_37
REMARK    3  A    between atoms: C3_3  and  C4_4
REMARK    4  A    between atoms: C4_4  and  C5_5
REMARK    5  A    between atoms: C5_5  and  O1_6
REMARK    6  A    between atoms: O1_6  and  C6_7
REMARK    7  A    between atoms: C8_9  and  C17_23
REMARK    8  A    between atoms: C12_14  and  C15_21
REMARK    9  A    between atoms: C12_14  and  C16_22
REMARK   10  A    between atoms: C13_15  and  O4_20
REMARK   11  A    between atoms: C14_17  and  O3_19
REMARK   12  A    between atoms: C21_29  and  O8_36
REMARK   13  A    between atoms: C23_31  and  O7_35
REMARK                            x       y       z     vdW  Elec       q    Type
REMARK                         _______ _______ _______ _____ _____    ______ ____
ROOT
ATOM      8  C   UNL     1      48.350  18.409  20.005  0.00  0.00    +0.107 A 
ATOM      9  C   UNL     1      46.990  18.575  20.211  0.00  0.00    -0.005 A 
ATOM     10  C   UNL     1      46.086  17.880  19.431  0.00  0.00    -0.085 A 
ATOM     26  C   UNL     1      46.537  17.024  18.446  0.00  0.00    +0.030 A 
ATOM     27  C   UNL     1      47.896  16.853  18.233  0.00  0.00    -0.159 A 
ATOM     28  C   UNL     1      48.347  15.914  17.144  0.00  0.00    +0.200 C 
ATOM     31  C   UNL     1      49.814  15.546  17.353  0.00  0.00    +0.170 C 
ATOM     34  C   UNL     1      50.609  16.832  17.613  0.00  0.00    +0.124 C 
ATOM     35  C   UNL     1      52.098  16.504  17.726  0.00  0.00    +0.091 C 
ATOM     36  C   UNL     1      50.383  17.818  16.465  0.00  0.00    +0.043 C 
ATOM     37  O   UNL     1      50.148  17.405  18.838  0.00  0.00    -0.281 OA
ATOM     38  C   UNL     1      48.806  17.547  19.009  0.00  0.00    +0.142 A 
ENDROOT
BRANCH  10  11
ATOM     11  C   UNL     1      44.606  18.057  19.656  0.00  0.00    +0.242 C 
ATOM     12  C   UNL     1      44.304  17.988  21.159  0.00  0.00    +0.038 C 
ATOM     13  C   UNL     1      42.811  18.207  21.328  0.00  0.00    +0.399 C 
ATOM     14  C   UNL     1      42.195  19.226  20.471  0.00  0.00    -0.292 A 
ATOM     15  C   UNL     1      40.891  19.679  20.723  0.00  0.00    +0.222 A 
ATOM     18  C   UNL     1      40.330  20.632  19.892  0.00  0.00    -0.073 A 
ATOM     19  C   UNL     1      41.056  21.136  18.819  0.00  0.00    +0.198 A 
ATOM     22  C   UNL     1      42.349  20.695  18.569  0.00  0.00    -0.054 A 
ATOM     23  C   UNL     1      42.931  19.743  19.389  0.00  0.00    +0.214 A 
ATOM     24  O   UNL     1      42.160  17.571  22.131  0.00  0.00    -0.424 OA
ATOM     25  O   UNL     1      44.195  19.326  19.148  0.00  0.00    -0.298 OA
BRANCH  15  16
ATOM     16  O   UNL     1      40.186  19.187  21.771  0.00  0.00    -0.476 OA
ATOM     17  H   UNL     1      40.300  19.687  22.591  0.00  0.00    +0.401 HD
ENDBRANCH  15  16
BRANCH  19  20
ATOM     20  O   UNL     1      40.496  22.067  18.007  0.00  0.00    -0.490 OA
ATOM     21  H   UNL     1      39.535  21.991  17.925  0.00  0.00    +0.403 HD
ENDBRANCH  19  20
ENDBRANCH  10  11
BRANCH  28  29
ATOM     29  O   UNL     1      47.541  14.733  17.171  0.00  0.00    -0.552 OA
ATOM     30  H   UNL     1      46.784  14.788  17.769  0.00  0.00    +0.385 HD
ENDBRANCH  28  29
BRANCH  31  32
ATOM     32  O   UNL     1      49.928  14.673  18.478  0.00  0.00    -0.543 OA
ATOM     33  H   UNL     1      49.081  14.445  18.886  0.00  0.00    +0.388 HD
ENDBRANCH  31  32
BRANCH   8   7
ATOM      7  O   UNL     1      49.240  19.093  20.772  0.00  0.00    -0.299 OA
BRANCH   7   6
ATOM      6  C   UNL     1      49.351  20.499  20.541  0.00  0.00    +0.189 C 
BRANCH   6   5
ATOM      5  C   UNL     1      50.728  20.814  19.953  0.00  0.00    +0.074 C 
BRANCH   5   4
ATOM      1  C   UNL     1      52.802  20.153  18.161  0.00  0.00    +0.076 C 
ATOM      2  C   UNL     1      51.576  20.874  17.665  0.00  0.00    -0.117 C 
ATOM      3  C   UNL     1      51.486  21.302  16.222  0.00  0.00    +0.076 C 
ATOM      4  C   UNL     1      50.588  21.129  18.487  0.00  0.00    -0.062 C 
ENDBRANCH   5   4
ENDBRANCH   6   5
ENDBRANCH   7   6
ENDBRANCH   8   7
TORSDOF 9
ENDMDL
MODEL 2
REMARK VINA RESULT:      -7.0      1.989      2.957
REMARK  Name = ZINC95485981
REMARK  13 active torsions:
REMARK  status: ('A' for Active; 'I' for Inactive)
REMARK    1  A    between atoms: C1_1  and  C2_2
REMARK    2  A    between atoms: C2_2  and  C26_37
REMARK    3  A    between atoms: C3_3  and  C4_4
REMARK    4  A    between atoms: C4_4  and  C5_5
REMARK    5  A    between atoms: C5_5  and  O1_6
REMARK    6  A    between atoms: O1_6  and  C6_7
REMARK    7  A    between atoms: C8_9  and  C17_23
REMARK    8  A    between atoms: C12_14  and  C15_21
REMARK    9  A    between atoms: C12_14  and  C16_22
REMARK   10  A    between atoms: C13_15  and  O4_20
REMARK   11  A    between atoms: C14_17  and  O3_19
REMARK   12  A    between atoms: C21_29  and  O8_36
REMARK   13  A    between atoms: C23_31  and  O7_35
REMARK                            x       y       z     vdW  Elec       q    Type
REMARK                         _______ _______ _______ _____ _____    ______ ____
ROOT
ATOM      8  C   UNL     1      48.366  17.205  18.861  0.00  0.00    +0.107 A 
ATOM      9  C   UNL     1      47.523  18.260  19.164  0.00  0.00    -0.005 A 
ATOM     10  C   UNL     1      46.162  18.047  19.268  0.00  0.00    -0.085 A 
ATOM     26  C   UNL     1      45.643  16.783  19.066  0.00  0.00    +0.030 A 
ATOM     27  C   UNL     1      46.480  15.722  18.761  0.00  0.00    -0.159 A 
ATOM     28  C   UNL     1      45.872  14.359  18.544  0.00  0.00    +0.200 C 
ATOM     31  C   UNL     1      46.955  13.287  18.649  0.00  0.00    +0.170 C 
ATOM     34  C   UNL     1      48.156  13.721  17.798  0.00  0.00    +0.124 C 
ATOM     35  C   UNL     1      49.216  12.618  17.804  0.00  0.00    +0.091 C 
ATOM     36  C   UNL     1      47.700  13.991  16.363  0.00  0.00    +0.043 C 
ATOM     37  O   UNL     1      48.700  14.915  18.363  0.00  0.00    -0.281 OA
ATOM     38  C   UNL     1      47.842  15.929  18.654  0.00  0.00    +0.142 A 
ENDROOT
BRANCH  10  11
ATOM     11  C   UNL     1      45.243  19.195  19.601  0.00  0.00    +0.242 C 
ATOM     12  C   UNL     1      45.984  20.523  19.389  0.00  0.00    +0.038 C 
ATOM     13  C   UNL     1      45.005  21.639  19.704  0.00  0.00    +0.399 C 
ATOM     14  C   UNL     1      43.625  21.453  19.241  0.00  0.00    -0.292 A 
ATOM     15  C   UNL     1      42.715  22.521  19.256  0.00  0.00    +0.222 A 
ATOM     18  C   UNL     1      41.417  22.315  18.825  0.00  0.00    -0.073 A 
ATOM     19  C   UNL     1      41.021  21.058  18.381  0.00  0.00    +0.198 A 
ATOM     22  C   UNL     1      41.919  19.999  18.359  0.00  0.00    -0.054 A 
ATOM     23  C   UNL     1      43.224  20.184  18.784  0.00  0.00    +0.214 A 
ATOM     24  O   UNL     1      45.346  22.635  20.308  0.00  0.00    -0.424 OA
ATOM     25  O   UNL     1      44.098  19.151  18.749  0.00  0.00    -0.298 OA
BRANCH  15  16
ATOM     16  O   UNL     1      43.105  23.745  19.688  0.00  0.00    -0.476 OA
ATOM     17  H   UNL     1      43.507  23.743  20.568  0.00  0.00    +0.401 HD
ENDBRANCH  15  16
BRANCH  19  20
ATOM     20  O   UNL     1      39.745  20.864  17.964  0.00  0.00    -0.490 OA
ATOM     21  H   UNL     1      39.139  20.590  18.666  0.00  0.00    +0.403 HD
ENDBRANCH  19  20
ENDBRANCH  10  11
BRANCH  28  29
ATOM     29  O   UNL     1      44.861  14.127  19.527  0.00  0.00    -0.552 OA
ATOM     30  H   UNL     1      45.090  13.448  20.175  0.00  0.00    +0.385 HD
ENDBRANCH  28  29
BRANCH  31  32
ATOM     32  O   UNL     1      47.354  13.151  20.013  0.00  0.00    -0.543 OA
ATOM     33  H   UNL     1      48.174  13.615  20.231  0.00  0.00    +0.388 HD
ENDBRANCH  31  32
BRANCH   8   7
ATOM      7  O   UNL     1      49.706  17.413  18.758  0.00  0.00    -0.299 OA
BRANCH   7   6
ATOM      6  C   UNL     1      50.265  18.449  19.569  0.00  0.00    +0.189 C 
BRANCH   6   5
ATOM      5  C   UNL     1      51.606  18.891  18.979  0.00  0.00    +0.074 C 
BRANCH   5   4
ATOM      1  C   UNL     1      51.856  18.825  16.171  0.00  0.00    +0.076 C 
ATOM      2  C   UNL     1      51.584  20.128  16.875  0.00  0.00    -0.117 C 
ATOM      3  C   UNL     1      51.511  21.410  16.085  0.00  0.00    +0.076 C 
ATOM      4  C   UNL     1      51.410  20.149  18.174  0.00  0.00    -0.062 C 
ENDBRANCH   5   4
ENDBRANCH   6   5
ENDBRANCH   7   6
ENDBRANCH   8   7
TORSDOF 9
ENDMDL
MODEL 3
REMARK VINA RESULT:      -7.0      2.500      3.841
REMARK  Name = ZINC95485981
REMARK  13 active torsions:
REMARK  status: ('A' for Active; 'I' for Inactive)
REMARK    1  A    between atoms: C1_1  and  C2_2
REMARK    2  A    between atoms: C2_2  and  C26_37
REMARK    3  A    between atoms: C3_3  and  C4_4
REMARK    4  A    between atoms: C4_4  and  C5_5
REMARK    5  A    between atoms: C5_5  and  O1_6
REMARK    6  A    between atoms: O1_6  and  C6_7
REMARK    7  A    between atoms: C8_9  and  C17_23
REMARK    8  A    between atoms: C12_14  and  C15_21
REMARK    9  A    between atoms: C12_14  and  C16_22
REMARK   10  A    between atoms: C13_15  and  O4_20
REMARK   11  A    between atoms: C14_17  and  O3_19
REMARK   12  A    between atoms: C21_29  and  O8_36
REMARK   13  A    between atoms: C23_31  and  O7_35
REMARK                            x       y       z     vdW  Elec       q    Type
REMARK                         _______ _______ _______ _____ _____    ______ ____
ROOT
ATOM      8  C   UNL     1      48.975  16.569  17.888  0.00  0.00    +0.107 A 
ATOM      9  C   UNL     1      48.317  17.772  18.084  0.00  0.00    -0.005 A 
ATOM     10  C   UNL     1      46.947  17.788  18.261  0.00  0.00    -0.085 A 
ATOM     26  C   UNL     1      46.234  16.605  18.240  0.00  0.00    +0.030 A 
ATOM     27  C   UNL     1      46.884  15.397  18.044  0.00  0.00    -0.159 A 
ATOM     28  C   UNL     1      46.068  14.130  18.022  0.00  0.00    +0.200 C 
ATOM     31  C   UNL     1      46.981  12.923  18.225  0.00  0.00    +0.170 C 
ATOM     34  C   UNL     1      48.186  13.058  17.285  0.00  0.00    +0.124 C 
ATOM     35  C   UNL     1      49.067  11.813  17.394  0.00  0.00    +0.091 C 
ATOM     36  C   UNL     1      47.699  13.222  15.844  0.00  0.00    +0.043 C 
ATOM     37  O   UNL     1      48.933  14.212  17.674  0.00  0.00    -0.281 OA
ATOM     38  C   UNL     1      48.254  15.375  17.864  0.00  0.00    +0.142 A 
ENDROOT
BRANCH  10  11
ATOM     11  C   UNL     1      46.230  19.096  18.477  0.00  0.00    +0.242 C 
ATOM     12  C   UNL     1      44.739  18.829  18.726  0.00  0.00    +0.038 C 
ATOM     13  C   UNL     1      44.076  20.172  18.971  0.00  0.00    +0.399 C 
ATOM     14  C   UNL     1      44.826  21.136  19.786  0.00  0.00    -0.292 A 
ATOM     15  C   UNL     1      44.204  22.293  20.278  0.00  0.00    +0.222 A 
ATOM     18  C   UNL     1      44.936  23.191  21.034  0.00  0.00    -0.073 A 
ATOM     19  C   UNL     1      46.278  22.943  21.301  0.00  0.00    +0.198 A 
ATOM     22  C   UNL     1      46.897  21.797  20.822  0.00  0.00    -0.054 A 
ATOM     23  C   UNL     1      46.182  20.885  20.065  0.00  0.00    +0.214 A 
ATOM     24  O   UNL     1      42.982  20.437  18.517  0.00  0.00    -0.424 OA
ATOM     25  O   UNL     1      46.787  19.763  19.610  0.00  0.00    -0.298 OA
BRANCH  15  16
ATOM     16  O   UNL     1      42.895  22.530  20.016  0.00  0.00    -0.476 OA
ATOM     17  H   UNL     1      42.533  21.991  19.298  0.00  0.00    +0.401 HD
ENDBRANCH  15  16
BRANCH  19  20
ATOM     20  O   UNL     1      46.990  23.832  22.040  0.00  0.00    -0.490 OA
ATOM     21  H   UNL     1      47.464  24.491  21.514  0.00  0.00    +0.403 HD
ENDBRANCH  19  20
ENDBRANCH  10  11
BRANCH  28  29
ATOM     29  O   UNL     1      45.087  14.179  19.061  0.00  0.00    -0.552 OA
ATOM     30  H   UNL     1      44.447  13.455  19.032  0.00  0.00    +0.385 HD
ENDBRANCH  28  29
BRANCH  31  32
ATOM     32  O   UNL     1      47.428  12.891  19.581  0.00  0.00    -0.543 OA
ATOM     33  H   UNL     1      47.075  13.604  20.129  0.00  0.00    +0.388 HD
ENDBRANCH  31  32
BRANCH   8   7
ATOM      7  O   UNL     1      50.322  16.553  17.714  0.00  0.00    -0.299 OA
BRANCH   7   6
ATOM      6  C   UNL     1      51.123  17.034  18.795  0.00  0.00    +0.189 C 
BRANCH   6   5
ATOM      5  C   UNL     1      52.318  17.811  18.240  0.00  0.00    +0.074 C 
BRANCH   5   4
ATOM      1  C   UNL     1      51.879  18.782  15.629  0.00  0.00    +0.076 C 
ATOM      2  C   UNL     1      51.779  19.713  16.809  0.00  0.00    -0.117 C 
ATOM      3  C   UNL     1      51.509  21.181  16.589  0.00  0.00    +0.076 C 
ATOM      4  C   UNL     1      51.926  19.250  18.025  0.00  0.00    -0.062 C 
ENDBRANCH   5   4
ENDBRANCH   6   5
ENDBRANCH   7   6
ENDBRANCH   8   7
TORSDOF 9
ENDMDL
MODEL 4
REMARK VINA RESULT:      -7.0      2.632      7.158
REMARK  Name = ZINC95485981
REMARK  13 active torsions:
REMARK  status: ('A' for Active; 'I' for Inactive)
REMARK    1  A    between atoms: C1_1  and  C2_2
REMARK    2  A    between atoms: C2_2  and  C26_37
REMARK    3  A    between atoms: C3_3  and  C4_4
REMARK    4  A    between atoms: C4_4  and  C5_5
REMARK    5  A    between atoms: C5_5  and  O1_6
REMARK    6  A    between atoms: O1_6  and  C6_7
REMARK    7  A    between atoms: C8_9  and  C17_23
REMARK    8  A    between atoms: C12_14  and  C15_21
REMARK    9  A    between atoms: C12_14  and  C16_22
REMARK   10  A    between atoms: C13_15  and  O4_20
REMARK   11  A    between atoms: C14_17  and  O3_19
REMARK   12  A    between atoms: C21_29  and  O8_36
REMARK   13  A    between atoms: C23_31  and  O7_35
REMARK                            x       y       z     vdW  Elec       q    Type
REMARK                         _______ _______ _______ _____ _____    ______ ____
ROOT
ATOM      8  C   UNL     1      48.923  20.080  19.258  0.00  0.00    +0.107 A 
ATOM      9  C   UNL     1      49.221  18.938  18.533  0.00  0.00    -0.005 A 
ATOM     10  C   UNL     1      48.201  18.115  18.096  0.00  0.00    -0.085 A 
ATOM     26  C   UNL     1      46.888  18.428  18.385  0.00  0.00    +0.030 A 
ATOM     27  C   UNL     1      46.582  19.568  19.111  0.00  0.00    -0.159 A 
ATOM     28  C   UNL     1      45.135  19.870  19.409  0.00  0.00    +0.200 C 
ATOM     31  C   UNL     1      44.987  21.333  19.820  0.00  0.00    +0.170 C 
ATOM     34  C   UNL     1      46.056  21.656  20.873  0.00  0.00    +0.124 C 
ATOM     35  C   UNL     1      45.867  23.087  21.377  0.00  0.00    +0.091 C 
ATOM     36  C   UNL     1      45.939  20.677  22.042  0.00  0.00    +0.043 C 
ATOM     37  O   UNL     1      47.341  21.526  20.263  0.00  0.00    -0.281 OA
ATOM     38  C   UNL     1      47.597  20.395  19.553  0.00  0.00    +0.142 A 
ENDROOT
BRANCH  10  11
ATOM     11  C   UNL     1      48.524  16.873  17.303  0.00  0.00    +0.242 C 
ATOM     12  C   UNL     1      49.887  16.324  17.744  0.00  0.00    +0.038 C 
ATOM     13  C   UNL     1      50.144  15.060  16.942  0.00  0.00    +0.399 C 
ATOM     14  C   UNL     1      48.995  14.172  16.731  0.00  0.00    -0.292 A 
ATOM     15  C   UNL     1      49.176  12.874  16.230  0.00  0.00    +0.222 A 
ATOM     18  C   UNL     1      48.075  12.062  16.029  0.00  0.00    -0.073 A 
ATOM     19  C   UNL     1      46.800  12.532  16.323  0.00  0.00    +0.198 A 
ATOM     22  C   UNL     1      46.615  13.813  16.824  0.00  0.00    -0.054 A 
ATOM     23  C   UNL     1      47.704  14.642  17.035  0.00  0.00    +0.214 A 
ATOM     24  O   UNL     1      51.242  14.798  16.499  0.00  0.00    -0.424 OA
ATOM     25  O   UNL     1      47.519  15.886  17.535  0.00  0.00    -0.298 OA
BRANCH  15  16
ATOM     16  O   UNL     1      50.421  12.419  15.946  0.00  0.00    -0.476 OA
ATOM     17  H   UNL     1      50.434  11.636  15.377  0.00  0.00    +0.401 HD
ENDBRANCH  15  16
BRANCH  19  20
ATOM     20  O   UNL     1      45.725  11.729  16.119  0.00  0.00    -0.490 OA
ATOM     21  H   UNL     1      45.210  11.550  16.917  0.00  0.00    +0.403 HD
ENDBRANCH  19  20
ENDBRANCH  10  11
BRANCH  28  29
ATOM     29  O   UNL     1      44.346  19.609  18.246  0.00  0.00    -0.552 OA
ATOM     30  H   UNL     1      43.883  20.385  17.903  0.00  0.00    +0.385 HD
ENDBRANCH  28  29
BRANCH  31  32
ATOM     32  O   UNL     1      45.170  22.168  18.676  0.00  0.00    -0.543 OA
ATOM     33  H   UNL     1      45.091  23.113  18.861  0.00  0.00    +0.388 HD
ENDBRANCH  31  32
BRANCH   8   7
ATOM      7  O   UNL     1      49.926  20.891  19.689  0.00  0.00    -0.299 OA
BRANCH   7   6
ATOM      6  C   UNL     1      51.182  20.273  19.976  0.00  0.00    +0.189 C 
BRANCH   6   5
ATOM      5  C   UNL     1      52.240  20.787  18.998  0.00  0.00    +0.074 C 
BRANCH   5   4
ATOM      1  C   UNL     1      51.409  21.318  16.356  0.00  0.00    +0.076 C 
ATOM      2  C   UNL     1      52.026  19.988  16.701  0.00  0.00    -0.117 C 
ATOM      3  C   UNL     1      52.138  18.914  15.649  0.00  0.00    +0.076 C 
ATOM      4  C   UNL     1      52.463  19.763  17.916  0.00  0.00    -0.062 C 
ENDBRANCH   5   4
ENDBRANCH   6   5
ENDBRANCH   7   6
ENDBRANCH   8   7
TORSDOF 9
ENDMDL
MODEL 5
REMARK VINA RESULT:      -6.8      3.400      5.156
REMARK  Name = ZINC95485981
REMARK  13 active torsions:
REMARK  status: ('A' for Active; 'I' for Inactive)
REMARK    1  A    between atoms: C1_1  and  C2_2
REMARK    2  A    between atoms: C2_2  and  C26_37
REMARK    3  A    between atoms: C3_3  and  C4_4
REMARK    4  A    between atoms: C4_4  and  C5_5
REMARK    5  A    between atoms: C5_5  and  O1_6
REMARK    6  A    between atoms: O1_6  and  C6_7
REMARK    7  A    between atoms: C8_9  and  C17_23
REMARK    8  A    between atoms: C12_14  and  C15_21
REMARK    9  A    between atoms: C12_14  and  C16_22
REMARK   10  A    between atoms: C13_15  and  O4_20
REMARK   11  A    between atoms: C14_17  and  O3_19
REMARK   12  A    between atoms: C21_29  and  O8_36
REMARK   13  A    between atoms: C23_31  and  O7_35
REMARK                            x       y       z     vdW  Elec       q    Type
REMARK                         _______ _______ _______ _____ _____    ______ ____
ROOT
ATOM      8  C   UNL     1      45.364  14.965  20.342  0.00  0.00    +0.107 A 
ATOM      9  C   UNL     1      44.924  16.253  20.595  0.00  0.00    -0.005 A 
ATOM     10  C   UNL     1      45.217  17.269  19.705  0.00  0.00    -0.085 A 
ATOM     26  C   UNL     1      45.951  17.000  18.566  0.00  0.00    +0.030 A 
ATOM     27  C   UNL     1      46.397  15.713  18.307  0.00  0.00    -0.159 A 
ATOM     28  C   UNL     1      47.199  15.463  17.056  0.00  0.00    +0.200 C 
ATOM     31  C   UNL     1      47.218  13.968  16.743  0.00  0.00    +0.170 C 
ATOM     34  C   UNL     1      47.567  13.204  18.027  0.00  0.00    +0.124 C 
ATOM     35  C   UNL     1      47.692  11.711  17.720  0.00  0.00    +0.091 C 
ATOM     36  C   UNL     1      48.889  13.727  18.593  0.00  0.00    +0.043 C 
ATOM     37  O   UNL     1      46.520  13.416  18.975  0.00  0.00    -0.281 OA
ATOM     38  C   UNL     1      46.108  14.693  19.194  0.00  0.00    +0.142 A 
ENDROOT
BRANCH  10  11
ATOM     11  C   UNL     1      44.736  18.671  19.977  0.00  0.00    +0.242 C 
ATOM     12  C   UNL     1      45.866  19.667  19.681  0.00  0.00    +0.038 C 
ATOM     13  C   UNL     1      45.317  21.059  19.937  0.00  0.00    +0.399 C 
ATOM     14  C   UNL     1      43.940  21.313  19.499  0.00  0.00    -0.292 A 
ATOM     15  C   UNL     1      43.431  22.620  19.458  0.00  0.00    +0.222 A 
ATOM     18  C   UNL     1      42.126  22.831  19.052  0.00  0.00    -0.073 A 
ATOM     19  C   UNL     1      41.328  21.753  18.687  0.00  0.00    +0.198 A 
ATOM     22  C   UNL     1      41.827  20.458  18.720  0.00  0.00    -0.054 A 
ATOM     23  C   UNL     1      43.131  20.225  19.122  0.00  0.00    +0.214 A 
ATOM     24  O   UNL     1      45.983  21.918  20.477  0.00  0.00    -0.424 OA
ATOM     25  O   UNL     1      43.617  18.961  19.141  0.00  0.00    -0.298 OA
BRANCH  15  16
ATOM     16  O   UNL     1      44.214  23.669  19.813  0.00  0.00    -0.476 OA
ATOM     17  H   UNL     1      44.164  24.421  19.206  0.00  0.00    +0.401 HD
ENDBRANCH  15  16
BRANCH  19  20
ATOM     20  O   UNL     1      40.047  21.968  18.294  0.00  0.00    -0.490 OA
ATOM     21  H   UNL     1      39.967  22.477  17.476  0.00  0.00    +0.403 HD
ENDBRANCH  19  20
ENDBRANCH  10  11
BRANCH  28  29
ATOM     29  O   UNL     1      46.617  16.181  15.966  0.00  0.00    -0.552 OA
ATOM     30  H   UNL     1      46.106  16.957  16.234  0.00  0.00    +0.385 HD
ENDBRANCH  28  29
BRANCH  31  32
ATOM     32  O   UNL     1      45.928  13.566  16.279  0.00  0.00    -0.543 OA
ATOM     33  H   UNL     1      45.391  14.291  15.931  0.00  0.00    +0.388 HD
ENDBRANCH  31  32
BRANCH   8   7
ATOM      7  O   UNL     1      45.076  13.965  21.217  0.00  0.00    -0.299 OA
BRANCH   7   6
ATOM      6  C   UNL     1      45.748  13.993  22.478  0.00  0.00    +0.189 C 
BRANCH   6   5
ATOM      5  C   UNL     1      46.829  12.910  22.505  0.00  0.00    +0.074 C 
BRANCH   5   4
ATOM      1  C   UNL     1      49.099  11.287  22.099  0.00  0.00    +0.076 C 
ATOM      2  C   UNL     1      49.241  12.785  22.158  0.00  0.00    -0.117 C 
ATOM      3  C   UNL     1      50.608  13.416  22.067  0.00  0.00    +0.076 C 
ATOM      4  C   UNL     1      48.179  13.541  22.289  0.00  0.00    -0.062 C 
ENDBRANCH   5   4
ENDBRANCH   6   5
ENDBRANCH   7   6
ENDBRANCH   8   7
TORSDOF 9
ENDMDL
MODEL 6
REMARK VINA RESULT:      -6.6      2.809      4.309
REMARK  Name = ZINC95485981
REMARK  13 active torsions:
REMARK  status: ('A' for Active; 'I' for Inactive)
REMARK    1  A    between atoms: C1_1  and  C2_2
REMARK    2  A    between atoms: C2_2  and  C26_37
REMARK    3  A    between atoms: C3_3  and  C4_4
REMARK    4  A    between atoms: C4_4  and  C5_5
REMARK    5  A    between atoms: C5_5  and  O1_6
REMARK    6  A    between atoms: O1_6  and  C6_7
REMARK    7  A    between atoms: C8_9  and  C17_23
REMARK    8  A    between atoms: C12_14  and  C15_21
REMARK    9  A    between atoms: C12_14  and  C16_22
REMARK   10  A    between atoms: C13_15  and  O4_20
REMARK   11  A    between atoms: C14_17  and  O3_19
REMARK   12  A    between atoms: C21_29  and  O8_36
REMARK   13  A    between atoms: C23_31  and  O7_35
REMARK                            x       y       z     vdW  Elec       q    Type
REMARK                         _______ _______ _______ _____ _____    ______ ____
ROOT
ATOM      8  C   UNL     1      49.659  14.636  16.775  0.00  0.00    +0.107 A 
ATOM      9  C   UNL     1      48.644  15.280  17.462  0.00  0.00    -0.005 A 
ATOM     10  C   UNL     1      47.340  14.842  17.335  0.00  0.00    -0.085 A 
ATOM     26  C   UNL     1      47.049  13.763  16.523  0.00  0.00    +0.030 A 
ATOM     27  C   UNL     1      48.059  13.113  15.832  0.00  0.00    -0.159 A 
ATOM     28  C   UNL     1      47.698  11.944  14.951  0.00  0.00    +0.200 C 
ATOM     31  C   UNL     1      48.950  11.127  14.637  0.00  0.00    +0.170 C 
ATOM     34  C   UNL     1      50.061  12.088  14.194  0.00  0.00    +0.124 C 
ATOM     35  C   UNL     1      51.296  11.289  13.776  0.00  0.00    +0.091 C 
ATOM     36  C   UNL     1      49.572  12.935  13.018  0.00  0.00    +0.043 C 
ATOM     37  O   UNL     1      50.387  12.937  15.296  0.00  0.00    -0.281 OA
ATOM     38  C   UNL     1      49.365  13.549  15.952  0.00  0.00    +0.142 A 
ENDROOT
BRANCH  10  11
ATOM     11  C   UNL     1      46.234  15.540  18.085  0.00  0.00    +0.242 C 
ATOM     12  C   UNL     1      46.281  15.134  19.564  0.00  0.00    +0.038 C 
ATOM     13  C   UNL     1      45.173  15.890  20.274  0.00  0.00    +0.399 C 
ATOM     14  C   UNL     1      44.969  17.287  19.872  0.00  0.00    -0.292 A 
ATOM     15  C   UNL     1      44.154  18.139  20.633  0.00  0.00    +0.222 A 
ATOM     18  C   UNL     1      43.969  19.448  20.225  0.00  0.00    -0.073 A 
ATOM     19  C   UNL     1      44.590  19.911  19.070  0.00  0.00    +0.198 A 
ATOM     22  C   UNL     1      45.402  19.074  18.317  0.00  0.00    -0.054 A 
ATOM     23  C   UNL     1      45.602  17.761  18.708  0.00  0.00    +0.214 A 
ATOM     24  O   UNL     1      44.490  15.368  21.131  0.00  0.00    -0.424 OA
ATOM     25  O   UNL     1      46.404  16.953  17.977  0.00  0.00    -0.298 OA
BRANCH  15  16
ATOM     16  O   UNL     1      43.552  17.683  21.759  0.00  0.00    -0.476 OA
ATOM     17  H   UNL     1      43.994  17.950  22.577  0.00  0.00    +0.401 HD
ENDBRANCH  15  16
BRANCH  19  20
ATOM     20  O   UNL     1      44.399  21.195  18.676  0.00  0.00    -0.490 OA
ATOM     21  H   UNL     1      45.192  21.746  18.731  0.00  0.00    +0.403 HD
ENDBRANCH  19  20
ENDBRANCH  10  11
BRANCH  28  29
ATOM     29  O   UNL     1      46.737  11.124  15.621  0.00  0.00    -0.552 OA
ATOM     30  H   UNL     1      46.503  11.434  16.506  0.00  0.00    +0.385 HD
ENDBRANCH  28  29
BRANCH  31  32
ATOM     32  O   UNL     1      49.361  10.421  15.809  0.00  0.00    -0.543 OA
ATOM     33  H   UNL     1      49.303   9.459  15.729  0.00  0.00    +0.388 HD
ENDBRANCH  31  32
BRANCH   8   7
ATOM      7  O   UNL     1      50.942  15.067  16.898  0.00  0.00    -0.299 OA
BRANCH   7   6
ATOM      6  C   UNL     1      51.167  16.205  17.733  0.00  0.00    +0.189 C 
BRANCH   6   5
ATOM      5  C   UNL     1      51.533  17.411  16.865  0.00  0.00    +0.074 C 
BRANCH   5   4
ATOM      1  C   UNL     1      52.167  19.925  15.757  0.00  0.00    +0.076 C 
ATOM      2  C   UNL     1      51.383  19.841  17.040  0.00  0.00    -0.117 C 
ATOM      3  C   UNL     1      50.993  21.102  17.769  0.00  0.00    +0.076 C 
ATOM      4  C   UNL     1      51.039  18.673  17.524  0.00  0.00    -0.062 C 
ENDBRANCH   5   4
ENDBRANCH   6   5
ENDBRANCH   7   6
ENDBRANCH   8   7
TORSDOF 9
ENDMDL
MODEL 7
REMARK VINA RESULT:      -6.3      2.473      6.815
REMARK  Name = ZINC95485981
REMARK  13 active torsions:
REMARK  status: ('A' for Active; 'I' for Inactive)
REMARK    1  A    between atoms: C1_1  and  C2_2
REMARK    2  A    between atoms: C2_2  and  C26_37
REMARK    3  A    between atoms: C3_3  and  C4_4
REMARK    4  A    between atoms: C4_4  and  C5_5
REMARK    5  A    between atoms: C5_5  and  O1_6
REMARK    6  A    between atoms: O1_6  and  C6_7
REMARK    7  A    between atoms: C8_9  and  C17_23
REMARK    8  A    between atoms: C12_14  and  C15_21
REMARK    9  A    between atoms: C12_14  and  C16_22
REMARK   10  A    between atoms: C13_15  and  O4_20
REMARK   11  A    between atoms: C14_17  and  O3_19
REMARK   12  A    between atoms: C21_29  and  O8_36
REMARK   13  A    between atoms: C23_31  and  O7_35
REMARK                            x       y       z     vdW  Elec       q    Type
REMARK                         _______ _______ _______ _____ _____    ______ ____
ROOT
ATOM      8  C   UNL     1      48.094  19.821  20.005  0.00  0.00    +0.107 A 
ATOM      9  C   UNL     1      48.175  18.472  19.704  0.00  0.00    -0.005 A 
ATOM     10  C   UNL     1      47.021  17.718  19.606  0.00  0.00    -0.085 A 
ATOM     26  C   UNL     1      45.789  18.308  19.809  0.00  0.00    +0.030 A 
ATOM     27  C   UNL     1      45.701  19.658  20.111  0.00  0.00    -0.159 A 
ATOM     28  C   UNL     1      44.337  20.263  20.331  0.00  0.00    +0.200 C 
ATOM     31  C   UNL     1      44.422  21.783  20.222  0.00  0.00    +0.170 C 
ATOM     34  C   UNL     1      45.606  22.269  21.069  0.00  0.00    +0.124 C 
ATOM     35  C   UNL     1      45.654  23.797  21.060  0.00  0.00    +0.091 C 
ATOM     36  C   UNL     1      45.453  21.766  22.505  0.00  0.00    +0.043 C 
ATOM     37  O   UNL     1      46.809  21.746  20.502  0.00  0.00    -0.281 OA
ATOM     38  C   UNL     1      46.851  20.417  20.213  0.00  0.00    +0.142 A 
ENDROOT
BRANCH  10  11
ATOM     11  C   UNL     1      47.107  16.249  19.276  0.00  0.00    +0.242 C 
ATOM     12  C   UNL     1      45.695  15.690  19.055  0.00  0.00    +0.038 C 
ATOM     13  C   UNL     1      45.843  14.223  18.693  0.00  0.00    +0.399 C 
ATOM     14  C   UNL     1      46.951  13.877  17.794  0.00  0.00    -0.292 A 
ATOM     15  C   UNL     1      47.022  12.607  17.203  0.00  0.00    +0.222 A 
ATOM     18  C   UNL     1      48.083  12.303  16.369  0.00  0.00    -0.073 A 
ATOM     19  C   UNL     1      49.069  13.252  16.121  0.00  0.00    +0.198 A 
ATOM     22  C   UNL     1      49.000  14.512  16.700  0.00  0.00    -0.054 A 
ATOM     23  C   UNL     1      47.946  14.838  17.536  0.00  0.00    +0.214 A 
ATOM     24  O   UNL     1      45.085  13.379  19.124  0.00  0.00    -0.424 OA
ATOM     25  O   UNL     1      47.878  16.072  18.087  0.00  0.00    -0.298 OA
BRANCH  15  16
ATOM     16  O   UNL     1      46.058  11.684  17.445  0.00  0.00    -0.476 OA
ATOM     17  H   UNL     1      45.944  11.039  16.734  0.00  0.00    +0.401 HD
ENDBRANCH  15  16
BRANCH  19  20
ATOM     20  O   UNL     1      50.108  12.943  15.306  0.00  0.00    -0.490 OA
ATOM     21  H   UNL     1      49.882  12.326  14.597  0.00  0.00    +0.403 HD
ENDBRANCH  19  20
ENDBRANCH  10  11
BRANCH  28  29
ATOM     29  O   UNL     1      43.428  19.755  19.352  0.00  0.00    -0.552 OA
ATOM     30  H   UNL     1      42.812  20.415  19.007  0.00  0.00    +0.385 HD
ENDBRANCH  28  29
BRANCH  31  32
ATOM     32  O   UNL     1      44.624  22.150  18.857  0.00  0.00    -0.543 OA
ATOM     33  H   UNL     1      45.050  21.464  18.324  0.00  0.00    +0.388 HD
ENDBRANCH  31  32
BRANCH   8   7
ATOM      7  O   UNL     1      49.228  20.563  20.103  0.00  0.00    -0.299 OA
BRANCH   7   6
ATOM      6  C   UNL     1      49.788  21.058  18.884  0.00  0.00    +0.189 C 
BRANCH   6   5
ATOM      5  C   UNL     1      51.286  20.754  18.849  0.00  0.00    +0.074 C 
BRANCH   5   4
ATOM      1  C   UNL     1      51.815  21.042  16.094  0.00  0.00    +0.076 C 
ATOM      2  C   UNL     1      51.721  19.669  16.706  0.00  0.00    -0.117 C 
ATOM      3  C   UNL     1      51.843  18.446  15.833  0.00  0.00    +0.076 C 
ATOM      4  C   UNL     1      51.533  19.537  17.996  0.00  0.00    -0.062 C 
ENDBRANCH   5   4
ENDBRANCH   6   5
ENDBRANCH   7   6
ENDBRANCH   8   7
TORSDOF 9
ENDMDL
MODEL 8
REMARK VINA RESULT:      -6.1      1.327      2.227
REMARK  Name = ZINC95485981
REMARK  13 active torsions:
REMARK  status: ('A' for Active; 'I' for Inactive)
REMARK    1  A    between atoms: C1_1  and  C2_2
REMARK    2  A    between atoms: C2_2  and  C26_37
REMARK    3  A    between atoms: C3_3  and  C4_4
REMARK    4  A    between atoms: C4_4  and  C5_5
REMARK    5  A    between atoms: C5_5  and  O1_6
REMARK    6  A    between atoms: O1_6  and  C6_7
REMARK    7  A    between atoms: C8_9  and  C17_23
REMARK    8  A    between atoms: C12_14  and  C15_21
REMARK    9  A    between atoms: C12_14  and  C16_22
REMARK   10  A    between atoms: C13_15  and  O4_20
REMARK   11  A    between atoms: C14_17  and  O3_19
REMARK   12  A    between atoms: C21_29  and  O8_36
REMARK   13  A    between atoms: C23_31  and  O7_35
REMARK                            x       y       z     vdW  Elec       q    Type
REMARK                         _______ _______ _______ _____ _____    ______ ____
ROOT
ATOM      8  C   UNL     1      48.503  18.122  20.739  0.00  0.00    +0.107 A 
ATOM      9  C   UNL     1      47.127  18.212  20.860  0.00  0.00    -0.005 A 
ATOM     10  C   UNL     1      46.321  17.955  19.767  0.00  0.00    -0.085 A 
ATOM     26  C   UNL     1      46.888  17.612  18.555  0.00  0.00    +0.030 A 
ATOM     27  C   UNL     1      48.265  17.520  18.427  0.00  0.00    -0.159 A 
ATOM     28  C   UNL     1      48.844  17.147  17.085  0.00  0.00    +0.200 C 
ATOM     31  C   UNL     1      50.291  16.690  17.255  0.00  0.00    +0.170 C 
ATOM     34  C   UNL     1      51.025  17.710  18.135  0.00  0.00    +0.124 C 
ATOM     35  C   UNL     1      52.503  17.330  18.239  0.00  0.00    +0.091 C 
ATOM     36  C   UNL     1      50.893  19.106  17.525  0.00  0.00    +0.043 C 
ATOM     37  O   UNL     1      50.431  17.694  19.434  0.00  0.00    -0.281 OA
ATOM     38  C   UNL     1      49.077  17.778  19.515  0.00  0.00    +0.142 A 
ENDROOT
BRANCH  10  11
ATOM     11  C   UNL     1      44.822  18.050  19.898  0.00  0.00    +0.242 C 
ATOM     12  C   UNL     1      44.424  17.879  21.370  0.00  0.00    +0.038 C 
ATOM     13  C   UNL     1      42.914  18.018  21.447  0.00  0.00    +0.399 C 
ATOM     14  C   UNL     1      42.307  19.057  20.607  0.00  0.00    -0.292 A 
ATOM     15  C   UNL     1      40.968  19.434  20.792  0.00  0.00    +0.222 A 
ATOM     18  C   UNL     1      40.416  20.407  19.979  0.00  0.00    -0.073 A 
ATOM     19  C   UNL     1      41.187  21.006  18.989  0.00  0.00    +0.198 A 
ATOM     22  C   UNL     1      42.514  20.641  18.805  0.00  0.00    -0.054 A 
ATOM     23  C   UNL     1      43.086  19.670  19.609  0.00  0.00    +0.214 A 
ATOM     24  O   UNL     1      42.244  17.307  22.166  0.00  0.00    -0.424 OA
ATOM     25  O   UNL     1      44.383  19.327  19.434  0.00  0.00    -0.298 OA
BRANCH  15  16
ATOM     16  O   UNL     1      40.220  18.848  21.760  0.00  0.00    -0.476 OA
ATOM     17  H   UNL     1      40.728  18.568  22.534  0.00  0.00    +0.401 HD
ENDBRANCH  15  16
BRANCH  19  20
ATOM     20  O   UNL     1      40.636  21.957  18.193  0.00  0.00    -0.490 OA
ATOM     21  H   UNL     1      40.946  21.933  17.278  0.00  0.00    +0.403 HD
ENDBRANCH  19  20
ENDBRANCH  10  11
BRANCH  28  29
ATOM     29  O   UNL     1      48.066  16.096  16.507  0.00  0.00    -0.552 OA
ATOM     30  H   UNL     1      47.169  16.029  16.863  0.00  0.00    +0.385 HD
ENDBRANCH  28  29
BRANCH  31  32
ATOM     32  O   UNL     1      50.311  15.408  17.884  0.00  0.00    -0.543 OA
ATOM     33  H   UNL     1      50.821  15.380  18.705  0.00  0.00    +0.388 HD
ENDBRANCH  31  32
BRANCH   8   7
ATOM      7  O   UNL     1      49.297  18.375  21.813  0.00  0.00    -0.299 OA
BRANCH   7   6
ATOM      6  C   UNL     1      49.079  19.606  22.505  0.00  0.00    +0.189 C 
BRANCH   6   5
ATOM      5  C   UNL     1      49.002  20.753  21.496  0.00  0.00    +0.074 C 
BRANCH   5   4
ATOM      1  C   UNL     1      47.280  21.310  19.333  0.00  0.00    +0.076 C 
ATOM      2  C   UNL     1      46.967  21.845  20.706  0.00  0.00    -0.117 C 
ATOM      3  C   UNL     1      45.767  22.735  20.912  0.00  0.00    +0.076 C 
ATOM      4  C   UNL     1      47.737  21.538  21.721  0.00  0.00    -0.062 C 
ENDBRANCH   5   4
ENDBRANCH   6   5
ENDBRANCH   7   6
ENDBRANCH   8   7
TORSDOF 9
ENDMDL
MODEL 9
REMARK VINA RESULT:      -6.1      3.489      7.041
REMARK  Name = ZINC95485981
REMARK  13 active torsions:
REMARK  status: ('A' for Active; 'I' for Inactive)
REMARK    1  A    between atoms: C1_1  and  C2_2
REMARK    2  A    between atoms: C2_2  and  C26_37
REMARK    3  A    between atoms: C3_3  and  C4_4
REMARK    4  A    between atoms: C4_4  and  C5_5
REMARK    5  A    between atoms: C5_5  and  O1_6
REMARK    6  A    between atoms: O1_6  and  C6_7
REMARK    7  A    between atoms: C8_9  and  C17_23
REMARK    8  A    between atoms: C12_14  and  C15_21
REMARK    9  A    between atoms: C12_14  and  C16_22
REMARK   10  A    between atoms: C13_15  and  O4_20
REMARK   11  A    between atoms: C14_17  and  O3_19
REMARK   12  A    between atoms: C21_29  and  O8_36
REMARK   13  A    between atoms: C23_31  and  O7_35
REMARK                            x       y       z     vdW  Elec       q    Type
REMARK                         _______ _______ _______ _____ _____    ______ ____
ROOT
ATOM      8  C   UNL     1      49.859  17.490  20.399  0.00  0.00    +0.107 A 
ATOM      9  C   UNL     1      49.197  16.333  20.025  0.00  0.00    -0.005 A 
ATOM     10  C   UNL     1      49.213  15.926  18.705  0.00  0.00    -0.085 A 
ATOM     26  C   UNL     1      49.887  16.673  17.759  0.00  0.00    +0.030 A 
ATOM     27  C   UNL     1      50.551  17.833  18.125  0.00  0.00    -0.159 A 
ATOM     28  C   UNL     1      51.270  18.622  17.060  0.00  0.00    +0.200 C 
ATOM     31  C   UNL     1      52.263  19.583  17.710  0.00  0.00    +0.170 C 
ATOM     34  C   UNL     1      51.550  20.327  18.847  0.00  0.00    +0.124 C 
ATOM     35  C   UNL     1      52.492  21.370  19.451  0.00  0.00    +0.091 C 
ATOM     36  C   UNL     1      50.297  21.017  18.305  0.00  0.00    +0.043 C 
ATOM     37  O   UNL     1      51.181  19.375  19.846  0.00  0.00    -0.281 OA
ATOM     38  C   UNL     1      50.537  18.247  19.443  0.00  0.00    +0.142 A 
ENDROOT
BRANCH  10  11
ATOM     11  C   UNL     1      48.495  14.664  18.297  0.00  0.00    +0.242 C 
ATOM     12  C   UNL     1      47.007  14.970  18.078  0.00  0.00    +0.038 C 
ATOM     13  C   UNL     1      46.342  13.678  17.637  0.00  0.00    +0.399 C 
ATOM     14  C   UNL     1      47.096  12.839  16.698  0.00  0.00    -0.292 A 
ATOM     15  C   UNL     1      46.475  11.767  16.040  0.00  0.00    +0.222 A 
ATOM     18  C   UNL     1      47.212  10.984  15.169  0.00  0.00    -0.073 A 
ATOM     19  C   UNL     1      48.556  11.263  14.950  0.00  0.00    +0.198 A 
ATOM     22  C   UNL     1      49.174  12.326  15.594  0.00  0.00    -0.054 A 
ATOM     23  C   UNL     1      48.455  13.123  16.469  0.00  0.00    +0.214 A 
ATOM     24  O   UNL     1      45.244  13.356  18.040  0.00  0.00    -0.424 OA
ATOM     25  O   UNL     1      49.059  14.165  17.085  0.00  0.00    -0.298 OA
BRANCH  15  16
ATOM     16  O   UNL     1      45.163  11.500  16.255  0.00  0.00    -0.476 OA
ATOM     17  H   UNL     1      44.997  10.626  16.635  0.00  0.00    +0.401 HD
ENDBRANCH  15  16
BRANCH  19  20
ATOM     20  O   UNL     1      49.272  10.487  14.097  0.00  0.00    -0.490 OA
ATOM     21  H   UNL     1      50.161  10.272  14.412  0.00  0.00    +0.403 HD
ENDBRANCH  19  20
ENDBRANCH  10  11
BRANCH  28  29
ATOM     29  O   UNL     1      51.961  17.725  16.188  0.00  0.00    -0.552 OA
ATOM     30  H   UNL     1      52.916  17.694  16.332  0.00  0.00    +0.385 HD
ENDBRANCH  28  29
BRANCH  31  32
ATOM     32  O   UNL     1      53.364  18.841  18.236  0.00  0.00    -0.543 OA
ATOM     33  H   UNL     1      53.118  17.988  18.618  0.00  0.00    +0.388 HD
ENDBRANCH  31  32
BRANCH   8   7
ATOM      7  O   UNL     1      49.844  17.892  21.697  0.00  0.00    -0.299 OA
BRANCH   7   6
ATOM      6  C   UNL     1      48.567  17.983  22.333  0.00  0.00    +0.189 C 
BRANCH   6   5
ATOM      5  C   UNL     1      47.735  19.074  21.656  0.00  0.00    +0.074 C 
BRANCH   5   4
ATOM      1  C   UNL     1      47.004  19.227  18.937  0.00  0.00    +0.076 C 
ATOM      2  C   UNL     1      46.061  18.616  19.940  0.00  0.00    -0.117 C 
ATOM      3  C   UNL     1      44.697  18.145  19.503  0.00  0.00    +0.076 C 
ATOM      4  C   UNL     1      46.425  18.493  21.193  0.00  0.00    -0.062 C 
ENDBRANCH   5   4
ENDBRANCH   6   5
ENDBRANCH   7   6
ENDBRANCH   8   7
TORSDOF 9
ENDMDL
