MODEL 1
REMARK VINA RESULT:      -6.1      0.000      0.000
REMARK  Name = ZINC05854400
REMARK  12 active torsions:
REMARK  status: ('A' for Active; 'I' for Inactive)
REMARK    1  A    between atoms: C1_1  and  C2_2
REMARK    2  A    between atoms: C2_2  and  C23_29
REMARK    3  A    between atoms: C3_3  and  C4_4
REMARK    4  A    between atoms: C4_4  and  C5_5
REMARK    5  A    between atoms: C6_6  and  O6_28
REMARK    6  A    between atoms: C7_7  and  C18_23
REMARK    7  A    between atoms: C10_10  and  O1_11
REMARK    8  A    between atoms: C13_15  and  O5_22
REMARK    9  A    between atoms: C16_18  and  O4_21
REMARK   10  A    between atoms: C18_23  and  C19_24
REMARK   11  A    between atoms: C20_25  and  C21_26
REMARK   12  A    between atoms: C20_25  and  C22_27
REMARK                            x       y       z     vdW  Elec       q    Type
REMARK                         _______ _______ _______ _____ _____    ______ ____
ROOT
ATOM      6  C   UNL     1      50.008  17.194  17.871  0.00  0.00    -0.202 A 
ATOM      7  C   UNL     1      48.631  17.336  18.010  0.00  0.00    +0.278 A 
ATOM     10  C   UNL     1      47.774  16.312  17.640  0.00  0.00    -0.249 A 
ATOM     16  C   UNL     1      48.280  15.130  17.117  0.00  0.00    +0.247 A 
ATOM     17  C   UNL     1      49.670  14.987  16.972  0.00  0.00    -0.366 A 
ATOM     18  C   UNL     1      50.201  13.732  16.415  0.00  0.00    +0.459 A 
ATOM     19  C   UNL     1      49.215  12.699  16.044  0.00  0.00    -0.235 A 
ATOM     20  C   UNL     1      49.629  11.473  15.508  0.00  0.00    +0.213 A 
ATOM     23  C   UNL     1      48.682  10.522  15.168  0.00  0.00    -0.062 A 
ATOM     24  C   UNL     1      47.335  10.783  15.361  0.00  0.00    +0.092 A 
ATOM     25  C   UNL     1      46.917  11.989  15.890  0.00  0.00    +0.100 A 
ATOM     28  C   UNL     1      47.852  12.963  16.238  0.00  0.00    +0.111 A 
ATOM     29  O   UNL     1      51.397  13.554  16.267  0.00  0.00    -0.456 OA
ATOM     30  O   UNL     1      47.439  14.140  16.756  0.00  0.00    -0.230 OA
ATOM     31  C   UNL     1      50.533  16.025  17.352  0.00  0.00    +0.302 A 
ENDROOT
BRANCH   7   8
ATOM      8  O   UNL     1      48.124  18.488  18.516  0.00  0.00    -0.487 OA
ATOM      9  H   UNL     1      48.705  19.071  19.246  0.00  0.00    +0.422 HD
ENDBRANCH   7   8
BRANCH  20  21
ATOM     21  O   UNL     1      50.949  11.220  15.320  0.00  0.00    -0.477 OA
ATOM     22  H   UNL     1      51.265  10.474  14.576  0.00  0.00    +0.439 HD
ENDBRANCH  20  21
BRANCH  25  26
ATOM     26  O   UNL     1      45.589  12.228  16.071  0.00  0.00    -0.501 OA
ATOM     27  H   UNL     1      44.938  12.401  15.203  0.00  0.00    +0.439 HD
ENDBRANCH  25  26
BRANCH  31  32
ATOM     32  O   UNL     1      51.875  15.883  17.210  0.00  0.00    -0.497 OA
ATOM     33  H   UNL     1      52.396  15.052  17.707  0.00  0.00    +0.448 HD
ENDBRANCH  31  32
BRANCH   6   5
ATOM      5  C   UNL     1      50.927  18.315  18.282  0.00  0.00    +0.138 C 
BRANCH   5   4
ATOM      1  C   UNL     1      50.767  21.119  18.531  0.00  0.00    +0.074 C 
ATOM      2  C   UNL     1      51.189  20.499  17.224  0.00  0.00    -0.135 C 
ATOM      3  C   UNL     1      51.589  21.379  16.068  0.00  0.00    +0.068 C 
ATOM      4  C   UNL     1      51.207  19.196  17.092  0.00  0.00    -0.047 C 
ENDBRANCH   5   4
ENDBRANCH   6   5
BRANCH  10  11
ATOM     11  C   UNL     1      46.286  16.484  17.804  0.00  0.00    +0.128 C 
BRANCH  11  12
ATOM     12  C   UNL     1      45.850  15.878  19.112  0.00  0.00    -0.047 C 
ATOM     13  C   UNL     1      45.115  16.575  19.944  0.00  0.00    -0.133 C 
ATOM     14  C   UNL     1      44.719  17.987  19.599  0.00  0.00    +0.087 C 
ATOM     15  C   UNL     1      44.666  15.963  21.247  0.00  0.00    +0.078 C 
ENDBRANCH  11  12
ENDBRANCH  10  11
TORSDOF 8
ENDMDL
MODEL 2
REMARK VINA RESULT:      -6.1      2.231      6.262
REMARK  Name = ZINC05854400
REMARK  12 active torsions:
REMARK  status: ('A' for Active; 'I' for Inactive)
REMARK    1  A    between atoms: C1_1  and  C2_2
REMARK    2  A    between atoms: C2_2  and  C23_29
REMARK    3  A    between atoms: C3_3  and  C4_4
REMARK    4  A    between atoms: C4_4  and  C5_5
REMARK    5  A    between atoms: C6_6  and  O6_28
REMARK    6  A    between atoms: C7_7  and  C18_23
REMARK    7  A    between atoms: C10_10  and  O1_11
REMARK    8  A    between atoms: C13_15  and  O5_22
REMARK    9  A    between atoms: C16_18  and  O4_21
REMARK   10  A    between atoms: C18_23  and  C19_24
REMARK   11  A    between atoms: C20_25  and  C21_26
REMARK   12  A    between atoms: C20_25  and  C22_27
REMARK                            x       y       z     vdW  Elec       q    Type
REMARK                         _______ _______ _______ _____ _____    ______ ____
ROOT
ATOM      6  C   UNL     1      46.161  19.322  19.891  0.00  0.00    -0.202 A 
ATOM      7  C   UNL     1      47.312  20.103  19.916  0.00  0.00    +0.278 A 
ATOM     10  C   UNL     1      48.497  19.633  19.374  0.00  0.00    -0.249 A 
ATOM     16  C   UNL     1      48.553  18.368  18.805  0.00  0.00    +0.247 A 
ATOM     17  C   UNL     1      47.393  17.576  18.785  0.00  0.00    -0.366 A 
ATOM     18  C   UNL     1      47.458  16.235  18.181  0.00  0.00    +0.459 A 
ATOM     19  C   UNL     1      48.763  15.814  17.634  0.00  0.00    -0.235 A 
ATOM     20  C   UNL     1      48.919  14.556  17.040  0.00  0.00    +0.213 A 
ATOM     23  C   UNL     1      50.154  14.187  16.535  0.00  0.00    -0.062 A 
ATOM     24  C   UNL     1      51.226  15.060  16.615  0.00  0.00    +0.092 A 
ATOM     25  C   UNL     1      51.082  16.306  17.199  0.00  0.00    +0.100 A 
ATOM     28  C   UNL     1      49.849  16.698  17.716  0.00  0.00    +0.111 A 
ATOM     29  O   UNL     1      46.484  15.506  18.136  0.00  0.00    -0.456 OA
ATOM     30  O   UNL     1      49.712  17.916  18.283  0.00  0.00    -0.230 OA
ATOM     31  C   UNL     1      46.195  18.059  19.330  0.00  0.00    +0.302 A 
ENDROOT
BRANCH   7   8
ATOM      8  O   UNL     1      47.272  21.340  20.473  0.00  0.00    -0.487 OA
ATOM      9  H   UNL     1      47.002  21.457  21.533  0.00  0.00    +0.422 HD
ENDBRANCH   7   8
BRANCH  20  21
ATOM     21  O   UNL     1      47.867  13.702  16.963  0.00  0.00    -0.477 OA
ATOM     22  H   UNL     1      47.620  13.055  17.818  0.00  0.00    +0.439 HD
ENDBRANCH  20  21
BRANCH  25  26
ATOM     26  O   UNL     1      52.147  17.150  17.270  0.00  0.00    -0.501 OA
ATOM     27  H   UNL     1      52.976  16.935  17.960  0.00  0.00    +0.439 HD
ENDBRANCH  25  26
BRANCH  31  32
ATOM     32  O   UNL     1      45.076  17.292  19.308  0.00  0.00    -0.497 OA
ATOM     33  H   UNL     1      44.566  17.090  18.355  0.00  0.00    +0.448 HD
ENDBRANCH  31  32
BRANCH   6   5
ATOM      5  C   UNL     1      44.879  19.850  20.481  0.00  0.00    +0.138 C 
BRANCH   5   4
ATOM      1  C   UNL     1      42.165  19.091  20.546  0.00  0.00    +0.074 C 
ATOM      2  C   UNL     1      42.678  19.964  19.431  0.00  0.00    -0.135 C 
ATOM      3  C   UNL     1      41.727  20.487  18.385  0.00  0.00    +0.068 C 
ATOM      4  C   UNL     1      43.950  20.269  19.370  0.00  0.00    -0.047 C 
ENDBRANCH   5   4
ENDBRANCH   6   5
BRANCH  10  11
ATOM     11  C   UNL     1      49.732  20.497  19.406  0.00  0.00    +0.128 C 
BRANCH  11  12
ATOM     12  C   UNL     1      50.039  20.987  18.015  0.00  0.00    -0.047 C 
ATOM     13  C   UNL     1      51.268  20.944  17.562  0.00  0.00    -0.133 C 
ATOM     14  C   UNL     1      52.376  20.420  18.437  0.00  0.00    +0.087 C 
ATOM     15  C   UNL     1      51.573  21.421  16.164  0.00  0.00    +0.078 C 
ENDBRANCH  11  12
ENDBRANCH  10  11
TORSDOF 8
ENDMDL
MODEL 3
REMARK VINA RESULT:      -5.8      4.612      7.163
REMARK  Name = ZINC05854400
REMARK  12 active torsions:
REMARK  status: ('A' for Active; 'I' for Inactive)
REMARK    1  A    between atoms: C1_1  and  C2_2
REMARK    2  A    between atoms: C2_2  and  C23_29
REMARK    3  A    between atoms: C3_3  and  C4_4
REMARK    4  A    between atoms: C4_4  and  C5_5
REMARK    5  A    between atoms: C6_6  and  O6_28
REMARK    6  A    between atoms: C7_7  and  C18_23
REMARK    7  A    between atoms: C10_10  and  O1_11
REMARK    8  A    between atoms: C13_15  and  O5_22
REMARK    9  A    between atoms: C16_18  and  O4_21
REMARK   10  A    between atoms: C18_23  and  C19_24
REMARK   11  A    between atoms: C20_25  and  C21_26
REMARK   12  A    between atoms: C20_25  and  C22_27
REMARK                            x       y       z     vdW  Elec       q    Type
REMARK                         _______ _______ _______ _____ _____    ______ ____
ROOT
ATOM      6  C   UNL     1      48.536  19.387  20.035  0.00  0.00    -0.202 A 
ATOM      7  C   UNL     1      48.361  18.311  20.899  0.00  0.00    +0.278 A 
ATOM     10  C   UNL     1      47.091  17.916  21.288  0.00  0.00    -0.249 A 
ATOM     16  C   UNL     1      45.974  18.598  20.827  0.00  0.00    +0.247 A 
ATOM     17  C   UNL     1      46.149  19.688  19.959  0.00  0.00    -0.366 A 
ATOM     18  C   UNL     1      44.961  20.408  19.473  0.00  0.00    +0.459 A 
ATOM     19  C   UNL     1      43.650  19.923  19.944  0.00  0.00    -0.235 A 
ATOM     20  C   UNL     1      42.464  20.545  19.534  0.00  0.00    +0.213 A 
ATOM     23  C   UNL     1      41.248  20.069  19.991  0.00  0.00    -0.062 A 
ATOM     24  C   UNL     1      41.206  18.981  20.848  0.00  0.00    +0.092 A 
ATOM     25  C   UNL     1      42.370  18.358  21.259  0.00  0.00    +0.100 A 
ATOM     28  C   UNL     1      43.607  18.821  20.812  0.00  0.00    +0.111 A 
ATOM     29  O   UNL     1      45.054  21.361  18.719  0.00  0.00    -0.456 OA
ATOM     30  O   UNL     1      44.742  18.210  21.214  0.00  0.00    -0.230 OA
ATOM     31  C   UNL     1      47.436  20.081  19.564  0.00  0.00    +0.302 A 
ENDROOT
BRANCH   7   8
ATOM      8  O   UNL     1      49.446  17.639  21.361  0.00  0.00    -0.487 OA
ATOM      9  H   UNL     1      50.275  18.189  21.830  0.00  0.00    +0.422 HD
ENDBRANCH   7   8
BRANCH  20  21
ATOM     21  O   UNL     1      42.508  21.611  18.695  0.00  0.00    -0.477 OA
ATOM     22  H   UNL     1      42.879  21.486  17.666  0.00  0.00    +0.439 HD
ENDBRANCH  20  21
BRANCH  25  26
ATOM     26  O   UNL     1      42.310  17.291  22.101  0.00  0.00    -0.501 OA
ATOM     27  H   UNL     1      41.726  16.402  21.822  0.00  0.00    +0.439 HD
ENDBRANCH  25  26
BRANCH  31  32
ATOM     32  O   UNL     1      47.602  21.134  18.725  0.00  0.00    -0.497 OA
ATOM     33  H   UNL     1      46.756  21.496  18.122  0.00  0.00    +0.448 HD
ENDBRANCH  31  32
BRANCH   6   5
ATOM      5  C   UNL     1      49.923  19.801  19.617  0.00  0.00    +0.138 C 
BRANCH   5   4
ATOM      1  C   UNL     1      51.253  21.130  17.516  0.00  0.00    +0.074 C 
ATOM      2  C   UNL     1      50.989  19.649  17.426  0.00  0.00    -0.135 C 
ATOM      3  C   UNL     1      51.493  18.865  16.242  0.00  0.00    +0.068 C 
ATOM      4  C   UNL     1      50.320  19.044  18.375  0.00  0.00    -0.047 C 
ENDBRANCH   5   4
ENDBRANCH   6   5
BRANCH  10  11
ATOM     11  C   UNL     1      46.923  16.744  22.221  0.00  0.00    +0.128 C 
BRANCH  11  12
ATOM     12  C   UNL     1      46.864  15.469  21.421  0.00  0.00    -0.047 C 
ATOM     13  C   UNL     1      45.838  14.663  21.548  0.00  0.00    -0.133 C 
ATOM     14  C   UNL     1      44.726  15.004  22.505  0.00  0.00    +0.087 C 
ATOM     15  C   UNL     1      45.771  13.395  20.735  0.00  0.00    +0.078 C 
ENDBRANCH  11  12
ENDBRANCH  10  11
TORSDOF 8
ENDMDL
MODEL 4
REMARK VINA RESULT:      -5.8      1.774      4.719
REMARK  Name = ZINC05854400
REMARK  12 active torsions:
REMARK  status: ('A' for Active; 'I' for Inactive)
REMARK    1  A    between atoms: C1_1  and  C2_2
REMARK    2  A    between atoms: C2_2  and  C23_29
REMARK    3  A    between atoms: C3_3  and  C4_4
REMARK    4  A    between atoms: C4_4  and  C5_5
REMARK    5  A    between atoms: C6_6  and  O6_28
REMARK    6  A    between atoms: C7_7  and  C18_23
REMARK    7  A    between atoms: C10_10  and  O1_11
REMARK    8  A    between atoms: C13_15  and  O5_22
REMARK    9  A    between atoms: C16_18  and  O4_21
REMARK   10  A    between atoms: C18_23  and  C19_24
REMARK   11  A    between atoms: C20_25  and  C21_26
REMARK   12  A    between atoms: C20_25  and  C22_27
REMARK                            x       y       z     vdW  Elec       q    Type
REMARK                         _______ _______ _______ _____ _____    ______ ____
ROOT
ATOM      6  C   UNL     1      47.573  17.177  19.215  0.00  0.00    -0.202 A 
ATOM      7  C   UNL     1      48.905  17.469  18.940  0.00  0.00    +0.278 A 
ATOM     10  C   UNL     1      49.640  16.670  18.079  0.00  0.00    -0.249 A 
ATOM     16  C   UNL     1      49.057  15.560  17.484  0.00  0.00    +0.247 A 
ATOM     17  C   UNL     1      47.713  15.261  17.765  0.00  0.00    -0.366 A 
ATOM     18  C   UNL     1      47.100  14.082  17.132  0.00  0.00    +0.459 A 
ATOM     19  C   UNL     1      47.960  13.286  16.234  0.00  0.00    -0.235 A 
ATOM     20  C   UNL     1      47.462  12.148  15.587  0.00  0.00    +0.213 A 
ATOM     23  C   UNL     1      48.289  11.421  14.750  0.00  0.00    -0.062 A 
ATOM     24  C   UNL     1      49.602  11.819  14.553  0.00  0.00    +0.092 A 
ATOM     25  C   UNL     1      50.103  12.942  15.186  0.00  0.00    +0.100 A 
ATOM     28  C   UNL     1      49.288  13.690  16.035  0.00  0.00    +0.111 A 
ATOM     29  O   UNL     1      45.940  13.776  17.340  0.00  0.00    -0.456 OA
ATOM     30  O   UNL     1      49.781  14.786  16.650  0.00  0.00    -0.230 OA
ATOM     31  C   UNL     1      46.973  16.075  18.634  0.00  0.00    +0.302 A 
ENDROOT
BRANCH   7   8
ATOM      8  O   UNL     1      49.488  18.549  19.519  0.00  0.00    -0.487 OA
ATOM      9  H   UNL     1      49.024  19.542  19.422  0.00  0.00    +0.422 HD
ENDBRANCH   7   8
BRANCH  20  21
ATOM     21  O   UNL     1      46.176  11.760  15.782  0.00  0.00    -0.477 OA
ATOM     22  H   UNL     1      45.954  10.900  16.433  0.00  0.00    +0.439 HD
ENDBRANCH  20  21
BRANCH  25  26
ATOM     26  O   UNL     1      51.395  13.318  14.981  0.00  0.00    -0.501 OA
ATOM     27  H   UNL     1      51.785  13.409  13.957  0.00  0.00    +0.439 HD
ENDBRANCH  25  26
BRANCH  31  32
ATOM     32  O   UNL     1      45.675  15.783  18.903  0.00  0.00    -0.497 OA
ATOM     33  H   UNL     1      45.242  16.047  19.879  0.00  0.00    +0.448 HD
ENDBRANCH  31  32
BRANCH   6   5
ATOM      5  C   UNL     1      46.786  18.057  20.150  0.00  0.00    +0.138 C 
BRANCH   5   4
ATOM      1  C   UNL     1      47.144  20.756  20.886  0.00  0.00    +0.074 C 
ATOM      2  C   UNL     1      46.325  20.406  19.670  0.00  0.00    -0.135 C 
ATOM      3  C   UNL     1      45.751  21.501  18.809  0.00  0.00    +0.068 C 
ATOM      4  C   UNL     1      46.111  19.151  19.362  0.00  0.00    -0.047 C 
ENDBRANCH   5   4
ENDBRANCH   6   5
BRANCH  10  11
ATOM     11  C   UNL     1      51.081  17.007  17.790  0.00  0.00    +0.128 C 
BRANCH  11  12
ATOM     12  C   UNL     1      51.147  18.016  16.673  0.00  0.00    -0.047 C 
ATOM     13  C   UNL     1      51.876  19.096  16.809  0.00  0.00    -0.133 C 
ATOM     14  C   UNL     1      52.634  19.338  18.088  0.00  0.00    +0.087 C 
ATOM     15  C   UNL     1      51.955  20.098  15.685  0.00  0.00    +0.078 C 
ENDBRANCH  11  12
ENDBRANCH  10  11
TORSDOF 8
ENDMDL
MODEL 5
REMARK VINA RESULT:      -5.5      3.268      8.597
REMARK  Name = ZINC05854400
REMARK  12 active torsions:
REMARK  status: ('A' for Active; 'I' for Inactive)
REMARK    1  A    between atoms: C1_1  and  C2_2
REMARK    2  A    between atoms: C2_2  and  C23_29
REMARK    3  A    between atoms: C3_3  and  C4_4
REMARK    4  A    between atoms: C4_4  and  C5_5
REMARK    5  A    between atoms: C6_6  and  O6_28
REMARK    6  A    between atoms: C7_7  and  C18_23
REMARK    7  A    between atoms: C10_10  and  O1_11
REMARK    8  A    between atoms: C13_15  and  O5_22
REMARK    9  A    between atoms: C16_18  and  O4_21
REMARK   10  A    between atoms: C18_23  and  C19_24
REMARK   11  A    between atoms: C20_25  and  C21_26
REMARK   12  A    between atoms: C20_25  and  C22_27
REMARK                            x       y       z     vdW  Elec       q    Type
REMARK                         _______ _______ _______ _____ _____    ______ ____
ROOT
ATOM      6  C   UNL     1      48.362  17.376  18.218  0.00  0.00    -0.202 A 
ATOM      7  C   UNL     1      49.338  17.859  19.084  0.00  0.00    +0.278 A 
ATOM     10  C   UNL     1      49.102  18.982  19.860  0.00  0.00    -0.249 A 
ATOM     16  C   UNL     1      47.887  19.647  19.776  0.00  0.00    +0.247 A 
ATOM     17  C   UNL     1      46.903  19.164  18.899  0.00  0.00    -0.366 A 
ATOM     18  C   UNL     1      45.616  19.874  18.813  0.00  0.00    +0.459 A 
ATOM     19  C   UNL     1      45.454  21.064  19.672  0.00  0.00    -0.235 A 
ATOM     20  C   UNL     1      44.264  21.802  19.658  0.00  0.00    +0.213 A 
ATOM     23  C   UNL     1      44.139  22.913  20.474  0.00  0.00    -0.062 A 
ATOM     24  C   UNL     1      45.186  23.289  21.299  0.00  0.00    +0.092 A 
ATOM     25  C   UNL     1      46.365  22.567  21.321  0.00  0.00    +0.100 A 
ATOM     28  C   UNL     1      46.514  21.445  20.507  0.00  0.00    +0.111 A 
ATOM     29  O   UNL     1      44.727  19.500  18.069  0.00  0.00    -0.456 OA
ATOM     30  O   UNL     1      47.666  20.742  20.533  0.00  0.00    -0.230 OA
ATOM     31  C   UNL     1      47.145  18.024  18.119  0.00  0.00    +0.302 A 
ENDROOT
BRANCH   7   8
ATOM      8  O   UNL     1      50.533  17.220  19.172  0.00  0.00    -0.487 OA
ATOM      9  H   UNL     1      50.989  16.781  18.272  0.00  0.00    +0.422 HD
ENDBRANCH   7   8
BRANCH  20  21
ATOM     21  O   UNL     1      43.240  21.431  18.848  0.00  0.00    -0.477 OA
ATOM     22  H   UNL     1      42.777  20.439  18.966  0.00  0.00    +0.439 HD
ENDBRANCH  20  21
BRANCH  25  26
ATOM     26  O   UNL     1      47.383  22.952  22.138  0.00  0.00    -0.501 OA
ATOM     27  H   UNL     1      48.421  22.694  21.883  0.00  0.00    +0.439 HD
ENDBRANCH  25  26
BRANCH  31  32
ATOM     32  O   UNL     1      46.192  17.560  17.272  0.00  0.00    -0.497 OA
ATOM     33  H   UNL     1      46.280  16.551  16.844  0.00  0.00    +0.448 HD
ENDBRANCH  31  32
BRANCH   6   5
ATOM      5  C   UNL     1      48.634  16.151  17.384  0.00  0.00    +0.138 C 
BRANCH   5   4
ATOM      1  C   UNL     1      46.918  14.189  16.308  0.00  0.00    +0.074 C 
ATOM      2  C   UNL     1      47.553  13.980  17.659  0.00  0.00    -0.135 C 
ATOM      3  C   UNL     1      47.322  12.692  18.407  0.00  0.00    +0.068 C 
ATOM      4  C   UNL     1      48.303  14.916  18.183  0.00  0.00    -0.047 C 
ENDBRANCH   5   4
ENDBRANCH   6   5
BRANCH  10  11
ATOM     11  C   UNL     1      50.171  19.485  20.796  0.00  0.00    +0.128 C 
BRANCH  11  12
ATOM     12  C   UNL     1      51.007  20.523  20.094  0.00  0.00    -0.047 C 
ATOM     13  C   UNL     1      52.017  21.079  20.716  0.00  0.00    -0.133 C 
ATOM     14  C   UNL     1      52.333  20.694  22.137  0.00  0.00    +0.087 C 
ATOM     15  C   UNL     1      52.864  22.107  20.008  0.00  0.00    +0.078 C 
ENDBRANCH  11  12
ENDBRANCH  10  11
TORSDOF 8
ENDMDL
MODEL 6
REMARK VINA RESULT:      -5.5      3.223      6.835
REMARK  Name = ZINC05854400
REMARK  12 active torsions:
REMARK  status: ('A' for Active; 'I' for Inactive)
REMARK    1  A    between atoms: C1_1  and  C2_2
REMARK    2  A    between atoms: C2_2  and  C23_29
REMARK    3  A    between atoms: C3_3  and  C4_4
REMARK    4  A    between atoms: C4_4  and  C5_5
REMARK    5  A    between atoms: C6_6  and  O6_28
REMARK    6  A    between atoms: C7_7  and  C18_23
REMARK    7  A    between atoms: C10_10  and  O1_11
REMARK    8  A    between atoms: C13_15  and  O5_22
REMARK    9  A    between atoms: C16_18  and  O4_21
REMARK   10  A    between atoms: C18_23  and  C19_24
REMARK   11  A    between atoms: C20_25  and  C21_26
REMARK   12  A    between atoms: C20_25  and  C22_27
REMARK                            x       y       z     vdW  Elec       q    Type
REMARK                         _______ _______ _______ _____ _____    ______ ____
ROOT
ATOM      6  C   UNL     1      45.426  18.905  20.046  0.00  0.00    -0.202 A 
ATOM      7  C   UNL     1      45.429  17.572  19.647  0.00  0.00    +0.278 A 
ATOM     10  C   UNL     1      46.535  17.026  19.016  0.00  0.00    -0.249 A 
ATOM     16  C   UNL     1      47.655  17.808  18.766  0.00  0.00    +0.247 A 
ATOM     17  C   UNL     1      47.651  19.154  19.165  0.00  0.00    -0.366 A 
ATOM     18  C   UNL     1      48.841  19.979  18.897  0.00  0.00    +0.459 A 
ATOM     19  C   UNL     1      49.970  19.316  18.216  0.00  0.00    -0.235 A 
ATOM     20  C   UNL     1      51.143  20.021  17.921  0.00  0.00    +0.213 A 
ATOM     23  C   UNL     1      52.187  19.374  17.281  0.00  0.00    -0.062 A 
ATOM     24  C   UNL     1      52.069  18.037  16.938  0.00  0.00    +0.092 A 
ATOM     25  C   UNL     1      50.915  17.332  17.226  0.00  0.00    +0.100 A 
ATOM     28  C   UNL     1      49.851  17.962  17.868  0.00  0.00    +0.111 A 
ATOM     29  O   UNL     1      48.892  21.152  19.221  0.00  0.00    -0.456 OA
ATOM     30  O   UNL     1      48.726  17.269  18.148  0.00  0.00    -0.230 OA
ATOM     31  C   UNL     1      46.530  19.701  19.807  0.00  0.00    +0.302 A 
ENDROOT
BRANCH   7   8
ATOM      8  O   UNL     1      44.338  16.799  19.881  0.00  0.00    -0.487 OA
ATOM      9  H   UNL     1      44.285  16.184  20.792  0.00  0.00    +0.422 HD
ENDBRANCH   7   8
BRANCH  20  21
ATOM     21  O   UNL     1      51.256  21.330  18.258  0.00  0.00    -0.477 OA
ATOM     22  H   UNL     1      50.370  21.983  18.229  0.00  0.00    +0.439 HD
ENDBRANCH  20  21
BRANCH  25  26
ATOM     26  O   UNL     1      50.817  16.019  16.881  0.00  0.00    -0.501 OA
ATOM     27  H   UNL     1      50.164  15.346  17.455  0.00  0.00    +0.439 HD
ENDBRANCH  25  26
BRANCH  31  32
ATOM     32  O   UNL     1      46.530  21.002  20.191  0.00  0.00    -0.497 OA
ATOM     33  H   UNL     1      47.408  21.425  20.702  0.00  0.00    +0.448 HD
ENDBRANCH  31  32
BRANCH   6   5
ATOM      5  C   UNL     1      44.217  19.482  20.735  0.00  0.00    +0.138 C 
BRANCH   5   4
ATOM      1  C   UNL     1      41.470  18.901  21.001  0.00  0.00    +0.074 C 
ATOM      2  C   UNL     1      41.955  19.753  19.856  0.00  0.00    -0.135 C 
ATOM      3  C   UNL     1      40.965  20.350  18.890  0.00  0.00    +0.068 C 
ATOM      4  C   UNL     1      43.236  19.974  19.701  0.00  0.00    -0.047 C 
ENDBRANCH   5   4
ENDBRANCH   6   5
BRANCH  10  11
ATOM     11  C   UNL     1      46.521  15.579  18.595  0.00  0.00    +0.128 C 
BRANCH  11  12
ATOM     12  C   UNL     1      47.178  14.739  19.659  0.00  0.00    -0.047 C 
ATOM     13  C   UNL     1      46.530  13.733  20.192  0.00  0.00    -0.133 C 
ATOM     14  C   UNL     1      45.122  13.425  19.754  0.00  0.00    +0.087 C 
ATOM     15  C   UNL     1      47.194  12.883  21.246  0.00  0.00    +0.078 C 
ENDBRANCH  11  12
ENDBRANCH  10  11
TORSDOF 8
ENDMDL
MODEL 7
REMARK VINA RESULT:      -5.4      2.122      6.607
REMARK  Name = ZINC05854400
REMARK  12 active torsions:
REMARK  status: ('A' for Active; 'I' for Inactive)
REMARK    1  A    between atoms: C1_1  and  C2_2
REMARK    2  A    between atoms: C2_2  and  C23_29
REMARK    3  A    between atoms: C3_3  and  C4_4
REMARK    4  A    between atoms: C4_4  and  C5_5
REMARK    5  A    between atoms: C6_6  and  O6_28
REMARK    6  A    between atoms: C7_7  and  C18_23
REMARK    7  A    between atoms: C10_10  and  O1_11
REMARK    8  A    between atoms: C13_15  and  O5_22
REMARK    9  A    between atoms: C16_18  and  O4_21
REMARK   10  A    between atoms: C18_23  and  C19_24
REMARK   11  A    between atoms: C20_25  and  C21_26
REMARK   12  A    between atoms: C20_25  and  C22_27
REMARK                            x       y       z     vdW  Elec       q    Type
REMARK                         _______ _______ _______ _____ _____    ______ ____
ROOT
ATOM      6  C   UNL     1      50.630  14.943  17.007  0.00  0.00    -0.202 A 
ATOM      7  C   UNL     1      51.060  16.245  16.773  0.00  0.00    +0.278 A 
ATOM     10  C   UNL     1      50.279  17.325  17.149  0.00  0.00    -0.249 A 
ATOM     16  C   UNL     1      49.048  17.121  17.759  0.00  0.00    +0.247 A 
ATOM     17  C   UNL     1      48.611  15.807  17.991  0.00  0.00    -0.366 A 
ATOM     18  C   UNL     1      47.305  15.596  18.637  0.00  0.00    +0.459 A 
ATOM     19  C   UNL     1      46.539  16.805  18.998  0.00  0.00    -0.235 A 
ATOM     20  C   UNL     1      45.286  16.701  19.617  0.00  0.00    +0.213 A 
ATOM     23  C   UNL     1      44.589  17.851  19.945  0.00  0.00    -0.062 A 
ATOM     24  C   UNL     1      45.130  19.095  19.663  0.00  0.00    +0.092 A 
ATOM     25  C   UNL     1      46.366  19.208  19.053  0.00  0.00    +0.100 A 
ATOM     28  C   UNL     1      47.086  18.064  18.713  0.00  0.00    +0.111 A 
ATOM     29  O   UNL     1      46.876  14.479  18.862  0.00  0.00    -0.456 OA
ATOM     30  O   UNL     1      48.292  18.179  18.118  0.00  0.00    -0.230 OA
ATOM     31  C   UNL     1      49.408  14.717  17.612  0.00  0.00    +0.302 A 
ENDROOT
BRANCH   7   8
ATOM      8  O   UNL     1      52.259  16.458  16.174  0.00  0.00    -0.487 OA
ATOM      9  H   UNL     1      52.367  16.302  15.090  0.00  0.00    +0.422 HD
ENDBRANCH   7   8
BRANCH  20  21
ATOM     21  O   UNL     1      44.759  15.482  19.891  0.00  0.00    -0.477 OA
ATOM     22  H   UNL     1      44.234  15.311  20.843  0.00  0.00    +0.439 HD
ENDBRANCH  20  21
BRANCH  25  26
ATOM     26  O   UNL     1      46.881  20.439  18.784  0.00  0.00    -0.501 OA
ATOM     27  H   UNL     1      46.781  21.250  19.520  0.00  0.00    +0.439 HD
ENDBRANCH  25  26
BRANCH  31  32
ATOM     32  O   UNL     1      48.982  13.448  17.839  0.00  0.00    -0.497 OA
ATOM     33  H   UNL     1      49.232  12.649  17.126  0.00  0.00    +0.448 HD
ENDBRANCH  31  32
BRANCH   6   5
ATOM      5  C   UNL     1      51.493  13.779  16.596  0.00  0.00    +0.138 C 
BRANCH   5   4
ATOM      1  C   UNL     1      52.450  11.334  15.567  0.00  0.00    +0.074 C 
ATOM      2  C   UNL     1      51.532  12.196  14.738  0.00  0.00    -0.135 C 
ATOM      3  C   UNL     1      51.072  11.720  13.384  0.00  0.00    +0.068 C 
ATOM      4  C   UNL     1      51.135  13.357  15.194  0.00  0.00    -0.047 C 
ENDBRANCH   5   4
ENDBRANCH   6   5
BRANCH  10  11
ATOM     11  C   UNL     1      50.765  18.729  16.892  0.00  0.00    +0.128 C 
BRANCH  11  12
ATOM     12  C   UNL     1      51.676  19.159  18.012  0.00  0.00    -0.047 C 
ATOM     13  C   UNL     1      51.429  20.266  18.667  0.00  0.00    -0.133 C 
ATOM     14  C   UNL     1      50.244  21.117  18.291  0.00  0.00    +0.087 C 
ATOM     15  C   UNL     1      52.332  20.689  19.799  0.00  0.00    +0.078 C 
ENDBRANCH  11  12
ENDBRANCH  10  11
TORSDOF 8
ENDMDL
MODEL 8
REMARK VINA RESULT:      -5.4      2.074      4.823
REMARK  Name = ZINC05854400
REMARK  12 active torsions:
REMARK  status: ('A' for Active; 'I' for Inactive)
REMARK    1  A    between atoms: C1_1  and  C2_2
REMARK    2  A    between atoms: C2_2  and  C23_29
REMARK    3  A    between atoms: C3_3  and  C4_4
REMARK    4  A    between atoms: C4_4  and  C5_5
REMARK    5  A    between atoms: C6_6  and  O6_28
REMARK    6  A    between atoms: C7_7  and  C18_23
REMARK    7  A    between atoms: C10_10  and  O1_11
REMARK    8  A    between atoms: C13_15  and  O5_22
REMARK    9  A    between atoms: C16_18  and  O4_21
REMARK   10  A    between atoms: C18_23  and  C19_24
REMARK   11  A    between atoms: C20_25  and  C21_26
REMARK   12  A    between atoms: C20_25  and  C22_27
REMARK                            x       y       z     vdW  Elec       q    Type
REMARK                         _______ _______ _______ _____ _____    ______ ____
ROOT
ATOM      6  C   UNL     1      50.172  16.408  17.834  0.00  0.00    -0.202 A 
ATOM      7  C   UNL     1      50.985  15.749  16.918  0.00  0.00    +0.278 A 
ATOM     10  C   UNL     1      50.537  14.609  16.268  0.00  0.00    -0.249 A 
ATOM     16  C   UNL     1      49.271  14.106  16.532  0.00  0.00    +0.247 A 
ATOM     17  C   UNL     1      48.452  14.768  17.461  0.00  0.00    -0.366 A 
ATOM     18  C   UNL     1      47.110  14.229  17.737  0.00  0.00    +0.459 A 
ATOM     19  C   UNL     1      46.720  13.009  17.004  0.00  0.00    -0.235 A 
ATOM     20  C   UNL     1      45.462  12.425  17.202  0.00  0.00    +0.213 A 
ATOM     23  C   UNL     1      45.122  11.281  16.501  0.00  0.00    -0.062 A 
ATOM     24  C   UNL     1      46.020  10.720  15.608  0.00  0.00    +0.092 A 
ATOM     25  C   UNL     1      47.264  11.289  15.405  0.00  0.00    +0.100 A 
ATOM     28  C   UNL     1      47.630  12.441  16.100  0.00  0.00    +0.111 A 
ATOM     29  O   UNL     1      46.358  14.762  18.533  0.00  0.00    -0.456 OA
ATOM     30  O   UNL     1      48.844  12.994  15.898  0.00  0.00    -0.230 OA
ATOM     31  C   UNL     1      48.908  15.923  18.112  0.00  0.00    +0.302 A 
ENDROOT
BRANCH   7   8
ATOM      8  O   UNL     1      52.226  16.229  16.655  0.00  0.00    -0.487 OA
ATOM      9  H   UNL     1      53.114  15.636  16.924  0.00  0.00    +0.422 HD
ENDBRANCH   7   8
BRANCH  20  21
ATOM     21  O   UNL     1      44.584  12.976  18.077  0.00  0.00    -0.477 OA
ATOM     22  H   UNL     1      44.032  13.887  17.802  0.00  0.00    +0.439 HD
ENDBRANCH  20  21
BRANCH  25  26
ATOM     26  O   UNL     1      48.134  10.724  14.524  0.00  0.00    -0.501 OA
ATOM     27  H   UNL     1      48.675  11.355  13.803  0.00  0.00    +0.439 HD
ENDBRANCH  25  26
BRANCH  31  32
ATOM     32  O   UNL     1      48.114  16.560  19.009  0.00  0.00    -0.497 OA
ATOM     33  H   UNL     1      48.345  17.592  19.313  0.00  0.00    +0.448 HD
ENDBRANCH  31  32
BRANCH   6   5
ATOM      5  C   UNL     1      50.672  17.648  18.528  0.00  0.00    +0.138 C 
BRANCH   5   4
ATOM      1  C   UNL     1      52.738  19.564  18.407  0.00  0.00    +0.074 C 
ATOM      2  C   UNL     1      51.541  19.685  17.500  0.00  0.00    -0.135 C 
ATOM      3  C   UNL     1      51.478  20.793  16.481  0.00  0.00    +0.068 C 
ATOM      4  C   UNL     1      50.556  18.828  17.597  0.00  0.00    -0.047 C 
ENDBRANCH   5   4
ENDBRANCH   6   5
BRANCH  10  11
ATOM     11  C   UNL     1      51.431  13.913  15.274  0.00  0.00    +0.128 C 
BRANCH  11  12
ATOM     12  C   UNL     1      51.985  12.655  15.891  0.00  0.00    -0.047 C 
ATOM     13  C   UNL     1      51.969  11.533  15.214  0.00  0.00    -0.133 C 
ATOM     14  C   UNL     1      51.383  11.496  13.827  0.00  0.00    +0.087 C 
ATOM     15  C   UNL     1      52.537  10.277  15.825  0.00  0.00    +0.078 C 
ENDBRANCH  11  12
ENDBRANCH  10  11
TORSDOF 8
ENDMDL
MODEL 9
REMARK VINA RESULT:      -5.4      1.958      4.981
REMARK  Name = ZINC05854400
REMARK  12 active torsions:
REMARK  status: ('A' for Active; 'I' for Inactive)
REMARK    1  A    between atoms: C1_1  and  C2_2
REMARK    2  A    between atoms: C2_2  and  C23_29
REMARK    3  A    between atoms: C3_3  and  C4_4
REMARK    4  A    between atoms: C4_4  and  C5_5
REMARK    5  A    between atoms: C6_6  and  O6_28
REMARK    6  A    between atoms: C7_7  and  C18_23
REMARK    7  A    between atoms: C10_10  and  O1_11
REMARK    8  A    between atoms: C13_15  and  O5_22
REMARK    9  A    between atoms: C16_18  and  O4_21
REMARK   10  A    between atoms: C18_23  and  C19_24
REMARK   11  A    between atoms: C20_25  and  C21_26
REMARK   12  A    between atoms: C20_25  and  C22_27
REMARK                            x       y       z     vdW  Elec       q    Type
REMARK                         _______ _______ _______ _____ _____    ______ ____
ROOT
ATOM      6  C   UNL     1      50.947  17.188  17.865  0.00  0.00    -0.202 A 
ATOM      7  C   UNL     1      51.406  16.167  17.041  0.00  0.00    +0.278 A 
ATOM     10  C   UNL     1      50.625  15.048  16.799  0.00  0.00    -0.249 A 
ATOM     16  C   UNL     1      49.373  14.928  17.387  0.00  0.00    +0.247 A 
ATOM     17  C   UNL     1      48.910  15.957  18.224  0.00  0.00    -0.366 A 
ATOM     18  C   UNL     1      47.582  15.825  18.845  0.00  0.00    +0.459 A 
ATOM     19  C   UNL     1      46.823  14.597  18.537  0.00  0.00    -0.235 A 
ATOM     20  C   UNL     1      45.550  14.385  19.082  0.00  0.00    +0.213 A 
ATOM     23  C   UNL     1      44.860  13.226  18.776  0.00  0.00    -0.062 A 
ATOM     24  C   UNL     1      45.426  12.283  17.933  0.00  0.00    +0.092 A 
ATOM     25  C   UNL     1      46.682  12.482  17.390  0.00  0.00    +0.100 A 
ATOM     28  C   UNL     1      47.396  13.642  17.684  0.00  0.00    +0.111 A 
ATOM     29  O   UNL     1      47.131  16.686  19.579  0.00  0.00    -0.456 OA
ATOM     30  O   UNL     1      48.621  13.834  17.150  0.00  0.00    -0.230 OA
ATOM     31  C   UNL     1      49.703  17.089  18.461  0.00  0.00    +0.302 A 
ENDROOT
BRANCH   7   8
ATOM      8  O   UNL     1      52.630  16.269  16.464  0.00  0.00    -0.487 OA
ATOM      9  H   UNL     1      52.872  17.141  15.837  0.00  0.00    +0.422 HD
ENDBRANCH   7   8
BRANCH  20  21
ATOM     21  O   UNL     1      44.998  15.311  19.907  0.00  0.00    -0.477 OA
ATOM     22  H   UNL     1      45.562  15.676  20.779  0.00  0.00    +0.439 HD
ENDBRANCH  20  21
BRANCH  25  26
ATOM     26  O   UNL     1      47.222  11.544  16.564  0.00  0.00    -0.501 OA
ATOM     27  H   UNL     1      48.197  11.726  16.089  0.00  0.00    +0.439 HD
ENDBRANCH  25  26
BRANCH  31  32
ATOM     32  O   UNL     1      49.252  18.081  19.270  0.00  0.00    -0.497 OA
ATOM     33  H   UNL     1      48.308  18.595  19.037  0.00  0.00    +0.448 HD
ENDBRANCH  31  32
BRANCH   6   5
ATOM      5  C   UNL     1      51.806  18.400  18.114  0.00  0.00    +0.138 C 
BRANCH   5   4
ATOM      1  C   UNL     1      51.093  21.103  18.485  0.00  0.00    +0.074 C 
ATOM      2  C   UNL     1      51.445  20.596  17.110  0.00  0.00    -0.135 C 
ATOM      3  C   UNL     1      51.480  21.549  15.943  0.00  0.00    +0.068 C 
ATOM      4  C   UNL     1      51.720  19.329  16.929  0.00  0.00    -0.047 C 
ENDBRANCH   5   4
ENDBRANCH   6   5
BRANCH  10  11
ATOM     11  C   UNL     1      51.139  13.954  15.898  0.00  0.00    +0.128 C 
BRANCH  11  12
ATOM     12  C   UNL     1      51.776  12.873  16.731  0.00  0.00    -0.047 C 
ATOM     13  C   UNL     1      52.216  11.780  16.159  0.00  0.00    -0.133 C 
ATOM     14  C   UNL     1      52.071  11.596  14.671  0.00  0.00    +0.087 C 
ATOM     15  C   UNL     1      52.868  10.704  16.991  0.00  0.00    +0.078 C 
ENDBRANCH  11  12
ENDBRANCH  10  11
TORSDOF 8
ENDMDL
