REMARK  Name = ZINC14645874
REMARK  8 active torsions:
REMARK  status: ('A' for Active; 'I' for Inactive)
REMARK    1  A    between atoms: C1_1  and  O1_2
REMARK    2  A    between atoms: O1_2  and  C2_3
REMARK    3  A    between atoms: C3_4  and  C8_10
REMARK    4  A    between atoms: C7_8  and  O2_9
REMARK    5  A    between atoms: C12_15  and  O7_24
REMARK    6  A    between atoms: C13_16  and  O6_23
REMARK    7  A    between atoms: C14_17  and  O5_21
REMARK    8  A    between atoms: O5_21  and  C17_22
REMARK                            x       y       z     vdW  Elec       q    Type
REMARK                         _______ _______ _______ _____ _____    ______ ____
ROOT
ATOM      5  C   UNL     1       5.138   3.364  -2.342  0.00  0.00    -0.234 A 
ATOM      6  C   UNL     1       5.646   3.587  -1.103  0.00  0.00    +0.332 A 
ATOM      7  O   UNL     1       4.985   3.270   0.013  0.00  0.00    -0.216 OA
ATOM      8  C   UNL     1       3.761   2.705   0.013  0.00  0.00    +0.168 A 
ATOM      9  C   UNL     1       3.127   2.400   1.209  0.00  0.00    -0.005 A 
ATOM     10  C   UNL     1       1.867   1.824   1.202  0.00  0.00    +0.162 A 
ATOM     13  C   UNL     1       1.225   1.534  -0.001  0.00  0.00    +0.033 A 
ATOM     16  C   UNL     1       1.842   1.830  -1.206  0.00  0.00    +0.179 A 
ATOM     19  C   UNL     1       3.114   2.418  -1.202  0.00  0.00    -0.239 A 
ATOM     20  C   UNL     1       3.804   2.749  -2.459  0.00  0.00    +0.429 A 
ATOM     21  O   UNL     1       3.297   2.525  -3.544  0.00  0.00    -0.418 OA
ENDROOT
BRANCH   5   4
ATOM      3  C   UNL     1       5.435   4.727  -4.411  0.00  0.00    +0.097 A 
ATOM      4  C   UNL     1       5.909   3.732  -3.554  0.00  0.00    -0.034 A 
ATOM     22  C   UNL     1       7.113   3.091  -3.838  0.00  0.00    +0.031 A 
ATOM     23  C   UNL     1       7.827   3.432  -4.969  0.00  0.00    +0.029 A 
ATOM     24  C   UNL     1       7.358   4.417  -5.819  0.00  0.00    +0.010 A 
ATOM     25  C   UNL     1       6.164   5.066  -5.544  0.00  0.00    +0.089 A 
BRANCH   3   2
ATOM      1  C   UNL     1       4.337   6.544  -3.338  0.00  0.00    +0.219 C 
ATOM      2  O   UNL     1       4.263   5.362  -4.138  0.00  0.00    -0.318 OA
ENDBRANCH   3   2
BRANCH  25  26
ATOM     26  O   UNL     1       5.707   6.034  -6.383  0.00  0.00    -0.484 OA
ATOM     27  H   UNL     1       6.013   6.924  -6.161  0.00  0.00    +0.387 HD
ENDBRANCH  25  26
ENDBRANCH   5   4
BRANCH  10  11
ATOM     11  O   UNL     1       1.252   1.536   2.378  0.00  0.00    -0.476 OA
ATOM     12  H   UNL     1       1.445   0.650   2.715  0.00  0.00    +0.401 HD
ENDBRANCH  10  11
BRANCH  13  14
ATOM     14  O   UNL     1      -0.011   0.963   0.007  0.00  0.00    -0.472 OA
ATOM     15  H   UNL     1       0.002  -0.004   0.002  0.00  0.00    +0.392 HD
ENDBRANCH  13  14
BRANCH  16  17
ATOM     17  O   UNL     1       1.219   1.553  -2.380  0.00  0.00    -0.315 OA
ATOM     18  C   UNL     1       0.388   2.576  -2.931  0.00  0.00    +0.252 C 
ENDBRANCH  16  17
TORSDOF 6
