REMARK  Name = ZINC85967903
REMARK  12 active torsions:
REMARK  status: ('A' for Active; 'I' for Inactive)
REMARK    1  A    between atoms: C1_1  and  C2_2
REMARK    2  A    between atoms: C2_2  and  C3_3
REMARK    3  A    between atoms: C2_2  and  C4_4
REMARK    4  A    between atoms: C10_10  and  C19_21
REMARK    5  A    between atoms: C10_10  and  C20_22
REMARK    6  A    between atoms: C14_14  and  C18_20
REMARK    7  A    between atoms: C16_16  and  O2_19
REMARK    8  A    between atoms: C20_22  and  O3_23
REMARK    9  A    between atoms: O3_23  and  C21_24
REMARK   10  A    between atoms: C21_24  and  C22_26
REMARK   11  A    between atoms: C23_27  and  C24_28
REMARK   12  A    between atoms: C23_27  and  C25_29
REMARK                            x       y       z     vdW  Elec       q    Type
REMARK                         _______ _______ _______ _____ _____    ______ ____
ROOT
ATOM      3  C   UNL     1      -1.613  -0.002   0.342  0.00  0.00    -0.193 C 
ATOM      4  C   UNL     1      -2.092  -0.843  -0.608  0.00  0.00    +0.109 C 
ATOM      5  C   UNL     1      -3.424  -1.316  -0.527  0.00  0.00    -0.110 C 
ATOM      6  C   UNL     1      -3.929  -2.171  -1.507  0.00  0.00    +0.144 C 
ATOM      7  C   UNL     1      -5.245  -2.646  -1.493  0.00  0.00    -0.035 C 
ATOM      8  C   UNL     1      -6.106  -2.333  -0.518  0.00  0.00    -0.016 C 
ATOM      9  C   UNL     1      -7.538  -2.805  -0.545  0.00  0.00    -0.021 C 
ATOM     18  C   UNL     1      -7.823  -3.510  -1.872  0.00  0.00    +0.055 C 
ATOM     19  C   UNL     1      -8.451  -1.581  -0.403  0.00  0.00    +0.044 C 
ATOM     20  C   UNL     1      -8.043  -0.782   0.836  0.00  0.00    +0.012 C 
ATOM     21  C   UNL     1      -6.609  -0.270   0.682  0.00  0.00    +0.046 C 
ATOM     22  C   UNL     1      -5.648  -1.458   0.631  0.00  0.00    +0.010 C 
ATOM     23  C   UNL     1      -5.803  -2.251   1.931  0.00  0.00    +0.059 C 
ATOM     24  C   UNL     1      -4.241  -0.916   0.560  0.00  0.00    -0.052 C 
ATOM     25  C   UNL     1      -3.764  -0.075   1.507  0.00  0.00    +0.018 C 
ATOM     28  C   UNL     1      -2.431   0.400   1.416  0.00  0.00    +0.388 C 
ATOM     29  O   UNL     1      -1.993   1.161   2.268  0.00  0.00    -0.471 OA
ENDROOT
BRANCH   3   2
ATOM      1  C   UNL     1      -0.200   2.028   0.163  0.00  0.00    +0.028 C 
ATOM      2  C   UNL     1      -0.195   0.500   0.251  0.00  0.00    +0.038 C 
ATOM     30  C   UNL     1       0.582   0.063   1.494  0.00  0.00    +0.027 C 
ENDBRANCH   3   2
BRANCH  25  26
ATOM     26  O   UNL     1      -4.557   0.310   2.542  0.00  0.00    -0.459 OA
ATOM     27  H   UNL     1      -4.127   0.911   3.165  0.00  0.00    +0.399 HD
ENDBRANCH  25  26
BRANCH   9  10
ATOM     10  C   UNL     1      -7.785  -3.770   0.616  0.00  0.00    +0.225 C 
BRANCH  10  11
ATOM     11  O   UNL     1      -9.094  -4.331   0.500  0.00  0.00    -0.345 OA
BRANCH  11  12
ATOM     12  C   UNL     1      -9.471  -5.208   1.452  0.00  0.00    +0.493 C 
ATOM     17  O   UNL     1      -8.709  -5.489   2.356  0.00  0.00    -0.507 OA
BRANCH  12  13
ATOM     13  C   UNL     1     -10.804  -5.824   1.396  0.00  0.00    -0.082 C 
ATOM     14  C   UNL     1     -11.134  -6.776   2.266  0.00  0.00    -0.012 C 
ATOM     15  C   UNL     1     -12.550  -7.289   2.321  0.00  0.00    +0.107 C 
ATOM     16  C   UNL     1     -10.091  -7.340   3.197  0.00  0.00    +0.102 C 
ENDBRANCH  12  13
ENDBRANCH  11  12
ENDBRANCH  10  11
ENDBRANCH   9  10
TORSDOF 6
