REMARK  Name = ZINC95486066
REMARK  6 active torsions:
REMARK  status: ('A' for Active; 'I' for Inactive)
REMARK    1  A    between atoms: C1_1  and  C2_2
REMARK    2  A    between atoms: C2_2  and  C4_4
REMARK    3  A    between atoms: C17_21  and  O5_31
REMARK    4  A    between atoms: C18_22  and  O4_29
REMARK    5  A    between atoms: O4_29  and  C23_30
REMARK    6  A    between atoms: O5_31  and  C24_32
REMARK                            x       y       z     vdW  Elec       q    Type
REMARK                         _______ _______ _______ _____ _____    ______ ____
ROOT
ATOM      3  C   UNL     1      -0.000  -0.750  -1.307  0.00  0.00    +0.293 C 
ATOM      4  C   UNL     1      -1.305  -0.503  -2.017  0.00  0.00    -0.059 C 
ATOM      5  C   UNL     1      -1.428   0.528  -2.848  0.00  0.00    +0.066 C 
ATOM      6  C   UNL     1      -0.250   1.390  -3.075  0.00  0.00    -0.178 A 
ATOM      7  C   UNL     1       1.008   0.927  -2.659  0.00  0.00    +0.209 A 
ATOM      8  C   UNL     1       2.138   1.713  -2.838  0.00  0.00    -0.044 A 
ATOM      9  C   UNL     1       2.032   2.947  -3.442  0.00  0.00    +0.161 A 
ATOM     10  C   UNL     1       0.788   3.408  -3.884  0.00  0.00    -0.280 A 
ATOM     11  C   UNL     1       0.659   4.723  -4.528  0.00  0.00    +0.421 C 
ATOM     12  O   UNL     1       1.565   5.529  -4.506  0.00  0.00    -0.440 OA
ATOM     13  C   UNL     1      -0.643   5.032  -5.206  0.00  0.00    +0.009 C 
ATOM     14  C   UNL     1      -0.669   4.419  -6.594  0.00  0.00    -0.155 A 
ATOM     15  C   UNL     1       0.480   4.464  -7.366  0.00  0.00    +0.007 A 
ATOM     16  C   UNL     1       0.491   3.916  -8.636  0.00  0.00    +0.076 A 
ATOM     19  C   UNL     1      -0.659   3.317  -9.141  0.00  0.00    +0.145 A 
ATOM     22  C   UNL     1      -1.807   3.272  -8.370  0.00  0.00    -0.054 A 
ATOM     23  C   UNL     1      -1.815   3.822  -7.093  0.00  0.00    +0.156 A 
ATOM     24  O   UNL     1      -2.961   3.752  -6.365  0.00  0.00    -0.298 OA
ATOM     25  C   UNL     1      -3.082   4.586  -5.211  0.00  0.00    +0.296 C 
ATOM     26  C   UNL     1      -1.794   4.439  -4.382  0.00  0.00    +0.172 C 
ATOM     27  O   UNL     1      -1.563   3.045  -4.171  0.00  0.00    -0.288 OA
ATOM     28  C   UNL     1      -0.365   2.623  -3.714  0.00  0.00    +0.233 A 
ATOM     29  O   UNL     1       1.098  -0.307  -2.103  0.00  0.00    -0.293 OA
ENDROOT
BRANCH   3   2
ATOM      1  C   UNL     1      -0.018   1.503   0.010  0.00  0.00    +0.076 C 
ATOM      2  C   UNL     1       0.002  -0.004   0.002  0.00  0.00    -0.157 C 
ATOM     30  C   UNL     1       0.022  -0.665   1.133  0.00  0.00    +0.045 C 
ENDBRANCH   3   2
BRANCH  16  17
ATOM     17  O   UNL     1       1.623   3.963  -9.390  0.00  0.00    -0.303 OA
ATOM     18  C   UNL     1       2.765   4.593  -8.807  0.00  0.00    +0.237 C 
ENDBRANCH  16  17
BRANCH  19  20
ATOM     20  O   UNL     1      -0.655   2.777 -10.390  0.00  0.00    -0.299 OA
ATOM     21  C   UNL     1      -1.872   2.180 -10.842  0.00  0.00    +0.244 C 
ENDBRANCH  19  20
TORSDOF 3
