REMARK  Name = ZINC01618678
REMARK  10 active torsions:
REMARK  status: ('A' for Active; 'I' for Inactive)
REMARK    1  A    between atoms: C1_1  and  C2_2
REMARK    2  A    between atoms: C2_2  and  C25_31
REMARK    3  A    between atoms: C3_3  and  C4_4
REMARK    4  A    between atoms: C4_4  and  C5_5
REMARK    5  A    between atoms: C6_6  and  O4_30
REMARK    6  A    between atoms: C18_22  and  O3_29
REMARK    7  A    between atoms: C19_23  and  C20_24
REMARK    8  A    between atoms: C20_24  and  C21_25
REMARK    9  A    between atoms: C22_26  and  C23_27
REMARK   10  A    between atoms: C22_26  and  C24_28
REMARK                            x       y       z     vdW  Elec       q    Type
REMARK                         _______ _______ _______ _____ _____    ______ ____
ROOT
ATOM      6  C   UNL     1       0.045   2.302  -0.973  0.00  0.00    -0.107 A 
ATOM      7  C   UNL     1      -0.301   1.689   0.228  0.00  0.00    +0.144 A 
ATOM     10  C   UNL     1      -0.424   2.410   1.403  0.00  0.00    -0.033 A 
ATOM     11  C   UNL     1      -0.224   3.784   1.433  0.00  0.00    +0.089 A 
ATOM     12  C   UNL     1       0.106   4.402   0.248  0.00  0.00    -0.161 A 
ATOM     13  C   UNL     1       0.368   5.815  -0.115  0.00  0.00    -0.015 C 
ATOM     14  C   UNL     1       1.152   6.701   0.821  0.00  0.00    +0.274 C 
ATOM     15  O   UNL     1       1.597   7.862   0.109  0.00  0.00    -0.316 OA
ATOM     16  C   UNL     1       1.346   8.040  -1.210  0.00  0.00    +0.163 A 
ATOM     17  C   UNL     1       1.191   6.939  -2.067  0.00  0.00    -0.167 A 
ATOM     18  C   UNL     1       0.992   7.109  -3.411  0.00  0.00    +0.087 A 
ATOM     19  C   UNL     1       0.926   8.387  -3.942  0.00  0.00    -0.035 A 
ATOM     20  C   UNL     1       1.060   9.487  -3.107  0.00  0.00    +0.147 A 
ATOM     23  C   UNL     1       1.269   9.315  -1.748  0.00  0.00    -0.128 A 
ATOM     29  C   UNL     1       1.260   5.611  -1.389  0.00  0.00    +0.226 C 
ATOM     30  O   UNL     1       0.605   4.498  -1.983  0.00  0.00    -0.276 OA
ATOM     31  C   UNL     1       0.249   3.676  -0.955  0.00  0.00    +0.116 A 
ENDROOT
BRANCH   7   8
ATOM      8  O   UNL     1      -0.518   0.348   0.248  0.00  0.00    -0.491 OA
ATOM      9  H   UNL     1       0.273  -0.177   0.430  0.00  0.00    +0.392 HD
ENDBRANCH   7   8
BRANCH  20  21
ATOM     21  O   UNL     1       0.986  10.741  -3.625  0.00  0.00    -0.491 OA
ATOM     22  H   UNL     1       0.091  11.108  -3.640  0.00  0.00    +0.394 HD
ENDBRANCH  20  21
BRANCH   6   5
ATOM      5  C   UNL     1       0.187   1.506  -2.245  0.00  0.00    +0.129 C 
BRANCH   5   4
ATOM      1  C   UNL     1       3.288  -0.718  -2.671  0.00  0.00    +0.073 C 
ATOM      2  C   UNL     1       1.869  -0.247  -2.480  0.00  0.00    -0.128 C 
ATOM      3  C   UNL     1       0.748  -1.250  -2.399  0.00  0.00    +0.076 C 
ATOM      4  C   UNL     1       1.611   1.033  -2.386  0.00  0.00    -0.054 C 
ENDBRANCH   5   4
ENDBRANCH   6   5
BRANCH  23  24
ATOM     24  C   UNL     1       1.413  10.518  -0.852  0.00  0.00    +0.130 C 
BRANCH  24  25
ATOM     25  C   UNL     1       0.057  10.925  -0.336  0.00  0.00    -0.058 C 
ATOM     26  C   UNL     1      -0.144  11.050   0.953  0.00  0.00    -0.125 C 
ATOM     27  C   UNL     1      -1.457  11.583   1.463  0.00  0.00    +0.071 C 
ATOM     28  C   UNL     1       0.940  10.659   1.925  0.00  0.00    +0.076 C 
ENDBRANCH  24  25
ENDBRANCH  23  24
TORSDOF 6
