REMARK  Name = ZINC04098020
REMARK  11 active torsions:
REMARK  status: ('A' for Active; 'I' for Inactive)
REMARK    1  A    between atoms: C1_1  and  C2_2
REMARK    2  A    between atoms: C4_4  and  O4_30
REMARK    3  A    between atoms: C7_7  and  C8_8
REMARK    4  A    between atoms: C9_9  and  O2_23
REMARK    5  A    between atoms: C11_11  and  O1_21
REMARK    6  A    between atoms: C15_15  and  C18_20
REMARK    7  A    between atoms: C16_17  and  C17_19
REMARK    8  A    between atoms: O1_21  and  C19_22
REMARK    9  A    between atoms: C23_27  and  O3_28
REMARK   10  A    between atoms: O3_28  and  C24_29
REMARK   11  A    between atoms: O4_30  and  C25_31
REMARK                            x       y       z     vdW  Elec       q    Type
REMARK                         _______ _______ _______ _____ _____    ______ ____
ROOT
ATOM     16  C   UNL     1      -2.295   6.823   3.945  0.00  0.00    -0.070 A 
ATOM     17  C   UNL     1      -1.294   7.525   4.623  0.00  0.00    +0.192 A 
ATOM     20  C   UNL     1      -1.407   8.895   4.782  0.00  0.00    -0.082 A 
ATOM     21  C   UNL     1      -2.509   9.561   4.273  0.00  0.00    +0.176 A 
ATOM     24  C   UNL     1      -3.510   8.865   3.598  0.00  0.00    -0.174 A 
ATOM     25  C   UNL     1      -4.691   9.639   3.074  0.00  0.00    +0.244 C 
ATOM     26  N   UNL     1      -5.403   8.862   2.048  0.00  0.00    -0.511 N 
ATOM     27  H   UNL     1      -4.803   8.760   1.221  0.00  0.00    +0.433 HD
ATOM     28  H   UNL     1      -6.266   9.352   1.786  0.00  0.00    +0.435 HD
ATOM     29  C   UNL     1      -5.738   7.528   2.577  0.00  0.00    +0.171 C 
ATOM     30  C   UNL     1      -6.709   6.829   1.623  0.00  0.00    +0.094 C 
ATOM     31  C   UNL     1      -4.450   6.712   2.689  0.00  0.00    +0.136 C 
ATOM     32  C   UNL     1      -5.638   9.961   4.233  0.00  0.00    +0.096 C 
ATOM     33  C   UNL     1      -3.402   7.504   3.426  0.00  0.00    -0.023 A 
ENDROOT
BRANCH  16  15
ATOM      1  C   UNL     1      -3.401   5.066   5.932  0.00  0.00    +0.095 C 
ATOM      2  C   UNL     1      -2.709   4.500   4.719  0.00  0.00    +0.011 A 
ATOM      3  C   UNL     1      -2.608   3.123   4.566  0.00  0.00    -0.111 A 
ATOM      4  C   UNL     1      -1.982   2.576   3.467  0.00  0.00    +0.191 A 
ATOM      7  C   UNL     1      -1.434   3.421   2.480  0.00  0.00    -0.106 A 
ATOM      8  C   UNL     1      -1.532   4.824   2.630  0.00  0.00    +0.046 A 
ATOM      9  C   UNL     1      -0.986   5.664   1.649  0.00  0.00    -0.061 A 
ATOM     10  C   UNL     1      -0.365   5.126   0.561  0.00  0.00    +0.083 A 
ATOM     11  C   UNL     1      -0.259   3.748   0.406  0.00  0.00    -0.114 A 
ATOM     12  C   UNL     1      -0.787   2.891   1.346  0.00  0.00    +0.182 A 
ATOM     15  C   UNL     1      -2.182   5.357   3.769  0.00  0.00    -0.116 A 
BRANCH   4   5
ATOM      5  O   UNL     1      -1.893   1.228   3.334  0.00  0.00    -0.287 OA
ATOM      6  C   UNL     1      -2.471   0.435   4.373  0.00  0.00    +0.247 C 
ENDBRANCH   4   5
BRANCH  12  13
ATOM     13  O   UNL     1      -0.682   1.547   1.184  0.00  0.00    -0.289 OA
ATOM     14  C   UNL     1      -0.013   1.086   0.008  0.00  0.00    +0.247 C 
ENDBRANCH  12  13
ENDBRANCH  16  15
BRANCH  17  18
ATOM     18  O   UNL     1      -0.216   6.865   5.122  0.00  0.00    -0.484 OA
ATOM     19  H   UNL     1       0.525   6.798   4.505  0.00  0.00    +0.403 HD
ENDBRANCH  17  18
BRANCH  21  22
ATOM     22  O   UNL     1      -2.615  10.906   4.432  0.00  0.00    -0.314 OA
ATOM     23  C   UNL     1      -1.556  11.562   5.132  0.00  0.00    +0.263 C 
ENDBRANCH  21  22
TORSDOF 5
