REMARK  Name = ZINC95485921
REMARK  7 active torsions:
REMARK  status: ('A' for Active; 'I' for Inactive)
REMARK    1  A    between atoms: C1_1  and  C2_2
REMARK    2  A    between atoms: C2_2  and  C18_23
REMARK    3  A    between atoms: C3_3  and  C4_4
REMARK    4  A    between atoms: C4_4  and  C5_5
REMARK    5  A    between atoms: C8_8  and  O5_22
REMARK    6  A    between atoms: C12_13  and  O4_21
REMARK    7  A    between atoms: C15_16  and  O3_20
REMARK                            x       y       z     vdW  Elec       q    Type
REMARK                         _______ _______ _______ _____ _____    ______ ____
ROOT
ATOM      6  C   UNL     1      -0.864  -0.562   3.381  0.00  0.00    -0.106 A 
ATOM      7  C   UNL     1      -2.148  -0.065   3.472  0.00  0.00    +0.108 A 
ATOM      8  C   UNL     1      -3.071  -0.636   4.331  0.00  0.00    -0.029 A 
ATOM      9  C   UNL     1      -2.713  -1.724   5.111  0.00  0.00    +0.196 A 
ATOM     12  C   UNL     1      -1.416  -2.238   5.018  0.00  0.00    -0.255 A 
ATOM     13  C   UNL     1      -1.000  -3.408   5.817  0.00  0.00    +0.440 A 
ATOM     14  O   UNL     1      -1.671  -3.830   6.742  0.00  0.00    -0.416 OA
ATOM     15  C   UNL     1       0.272  -4.044   5.413  0.00  0.00    -0.245 A 
ATOM     16  C   UNL     1       0.636  -5.305   5.897  0.00  0.00    +0.193 A 
ATOM     19  C   UNL     1       1.832  -5.872   5.492  0.00  0.00    -0.013 A 
ATOM     20  C   UNL     1       2.661  -5.193   4.614  0.00  0.00    +0.088 A 
ATOM     21  C   UNL     1       2.312  -3.943   4.134  0.00  0.00    +0.075 A 
ATOM     24  C   UNL     1       1.114  -3.350   4.529  0.00  0.00    +0.147 A 
ATOM     25  O   UNL     1       0.780  -2.130   4.063  0.00  0.00    -0.211 OA
ATOM     26  C   UNL     1      -0.479  -1.654   4.149  0.00  0.00    +0.172 A 
ENDROOT
BRANCH   9  10
ATOM     10  O   UNL     1      -3.613  -2.285   5.958  0.00  0.00    -0.476 OA
ATOM     11  H   UNL     1      -4.136  -2.994   5.561  0.00  0.00    +0.399 HD
ENDBRANCH   9  10
BRANCH  16  17
ATOM     17  O   UNL     1      -0.177  -5.968   6.759  0.00  0.00    -0.478 OA
ATOM     18  H   UNL     1      -0.001  -5.779   7.691  0.00  0.00    +0.403 HD
ENDBRANCH  16  17
BRANCH  21  22
ATOM     22  O   UNL     1       3.141  -3.292   3.274  0.00  0.00    -0.478 OA
ATOM     23  H   UNL     1       3.793  -2.725   3.709  0.00  0.00    +0.392 HD
ENDBRANCH  21  22
BRANCH   6   5
ATOM      5  C   UNL     1       0.123   0.078   2.439  0.00  0.00    +0.126 C 
BRANCH   5   4
ATOM      1  C   UNL     1      -0.200   1.488   0.018  0.00  0.00    +0.074 C 
ATOM      2  C   UNL     1      -0.087  -0.015   0.009  0.00  0.00    -0.128 C 
ATOM      3  C   UNL     1      -0.213  -0.772  -1.289  0.00  0.00    +0.074 C 
ATOM      4  C   UNL     1       0.121  -0.664   1.128  0.00  0.00    -0.051 C 
ENDBRANCH   5   4
ENDBRANCH   6   5
TORSDOF 5
