REMARK  Name = ZINC04098683
REMARK  10 active torsions:
REMARK  status: ('A' for Active; 'I' for Inactive)
REMARK    1  A    between atoms: C1_1  and  C2_2
REMARK    2  A    between atoms: C4_4  and  O8_32
REMARK    3  A    between atoms: C7_7  and  C8_8
REMARK    4  A    between atoms: C9_9  and  O4_20
REMARK    5  A    between atoms: C11_11  and  O3_18
REMARK    6  A    between atoms: C12_12  and  C14_15
REMARK    7  A    between atoms: C13_13  and  O1_14
REMARK    8  A    between atoms: C14_15  and  C15_17
REMARK    9  A    between atoms: O3_18  and  C16_19
REMARK   10  A    between atoms: C22_27  and  O7_31
REMARK                            x       y       z     vdW  Elec       q    Type
REMARK                         _______ _______ _______ _____ _____    ______ ____
ROOT
ATOM      1  C   UNL     1      -2.421  -0.446   3.120  0.00  0.00    +0.111 C 
ATOM      2  C   UNL     1      -1.104  -0.163   3.795  0.00  0.00    -0.029 A 
ATOM      3  C   UNL     1      -1.087   0.333   5.077  0.00  0.00    +0.020 A 
ATOM      4  C   UNL     1       0.123   0.601   5.718  0.00  0.00    +0.172 A 
ATOM      7  C   UNL     1       1.331   0.366   5.057  0.00  0.00    -0.156 A 
ATOM      8  C   UNL     1       1.321  -0.146   3.745  0.00  0.00    -0.088 A 
ATOM      9  C   UNL     1       2.587  -0.393   3.039  0.00  0.00    +0.433 C 
ATOM     10  C   UNL     1       3.872  -0.112   3.712  0.00  0.00    -0.105 A 
ATOM     11  C   UNL     1       5.075  -0.348   3.055  0.00  0.00    +0.068 A 
ATOM     12  C   UNL     1       6.277  -0.084   3.691  0.00  0.00    +0.061 A 
ATOM     13  C   UNL     1       6.294   0.414   4.978  0.00  0.00    +0.018 A 
ATOM     14  C   UNL     1       5.103   0.658   5.655  0.00  0.00    +0.161 A 
ATOM     17  C   UNL     1       3.882   0.396   5.025  0.00  0.00    -0.150 A 
ATOM     18  O   UNL     1       2.577  -0.831   1.904  0.00  0.00    -0.413 OA
ATOM     19  C   UNL     1       2.612   0.647   5.729  0.00  0.00    +0.430 C 
ATOM     20  O   UNL     1       2.622   1.086   6.864  0.00  0.00    -0.401 OA
ATOM     21  C   UNL     1       0.095  -0.406   3.112  0.00  0.00    +0.013 A 
ENDROOT
BRANCH  21  22
ATOM     22  C   UNL     1       0.069  -0.938   1.735  0.00  0.00    -0.125 A 
ATOM     23  C   UNL     1       0.037  -0.058   0.642  0.00  0.00    +0.201 A 
ATOM     26  C   UNL     1       0.007  -0.552  -0.653  0.00  0.00    -0.094 A 
ATOM     27  C   UNL     1       0.019  -1.917  -0.881  0.00  0.00    +0.197 A 
ATOM     30  C   UNL     1       0.051  -2.814   0.204  0.00  0.00    -0.221 A 
ATOM     34  C   UNL     1       0.076  -2.318   1.518  0.00  0.00    +0.215 A 
BRANCH  30  31
ATOM     31  C   UNL     1       0.059  -4.256  -0.036  0.00  0.00    +0.426 C 
ATOM     32  C   UNL     1       1.368  -4.990  -0.173  0.00  0.00    +0.079 C 
ATOM     33  O   UNL     1      -0.989  -4.862  -0.125  0.00  0.00    -0.447 OA
ENDBRANCH  30  31
BRANCH  23  24
ATOM     24  O   UNL     1       0.029   1.281   0.853  0.00  0.00    -0.488 OA
ATOM     25  H   UNL     1       0.910   1.678   0.895  0.00  0.00    +0.397 HD
ENDBRANCH  23  24
BRANCH  27  28
ATOM     28  O   UNL     1      -0.005  -2.391  -2.151  0.00  0.00    -0.308 OA
ATOM     29  C   UNL     1      -0.037  -1.425  -3.203  0.00  0.00    +0.255 C 
ENDBRANCH  27  28
BRANCH  34  35
ATOM     35  O   UNL     1       0.107  -3.172   2.569  0.00  0.00    -0.483 OA
ATOM     36  H   UNL     1      -0.767  -3.428   2.894  0.00  0.00    +0.398 HD
ENDBRANCH  34  35
ENDBRANCH  21  22
BRANCH   4   5
ATOM      5  O   UNL     1       0.126   1.090   6.982  0.00  0.00    -0.475 OA
ATOM      6  H   UNL     1       0.141   0.408   7.668  0.00  0.00    +0.400 HD
ENDBRANCH   4   5
BRANCH  14  15
ATOM     15  O   UNL     1       5.126   1.147   6.919  0.00  0.00    -0.476 OA
ATOM     16  H   UNL     1       5.145   0.466   7.604  0.00  0.00    +0.399 HD
ENDBRANCH  14  15
TORSDOF 7
