REMARK  Name = ZINC95485981
REMARK  13 active torsions:
REMARK  status: ('A' for Active; 'I' for Inactive)
REMARK    1  A    between atoms: C1_1  and  C2_2
REMARK    2  A    between atoms: C2_2  and  C26_37
REMARK    3  A    between atoms: C3_3  and  C4_4
REMARK    4  A    between atoms: C4_4  and  C5_5
REMARK    5  A    between atoms: C5_5  and  O1_6
REMARK    6  A    between atoms: O1_6  and  C6_7
REMARK    7  A    between atoms: C8_9  and  C17_23
REMARK    8  A    between atoms: C12_14  and  C15_21
REMARK    9  A    between atoms: C12_14  and  C16_22
REMARK   10  A    between atoms: C13_15  and  O4_20
REMARK   11  A    between atoms: C14_17  and  O3_19
REMARK   12  A    between atoms: C21_29  and  O8_36
REMARK   13  A    between atoms: C23_31  and  O7_35
REMARK                            x       y       z     vdW  Elec       q    Type
REMARK                         _______ _______ _______ _____ _____    ______ ____
ROOT
ATOM      8  C   UNL     1      -1.718  -0.321   5.606  0.00  0.00    +0.107 A 
ATOM      9  C   UNL     1      -2.522  -1.422   5.363  0.00  0.00    -0.005 A 
ATOM     10  C   UNL     1      -3.376  -1.882   6.347  0.00  0.00    -0.085 A 
ATOM     26  C   UNL     1      -3.426  -1.246   7.572  0.00  0.00    +0.030 A 
ATOM     27  C   UNL     1      -2.624  -0.144   7.823  0.00  0.00    -0.159 A 
ATOM     28  C   UNL     1      -2.705   0.518   9.175  0.00  0.00    +0.200 C 
ATOM     31  C   UNL     1      -2.095   1.916   9.104  0.00  0.00    +0.170 C 
ATOM     34  C   UNL     1      -0.739   1.822   8.392  0.00  0.00    +0.124 C 
ATOM     35  C   UNL     1      -0.059   3.192   8.396  0.00  0.00    +0.091 C 
ATOM     36  C   UNL     1       0.149   0.803   9.108  0.00  0.00    +0.043 C 
ATOM     37  O   UNL     1      -0.966   1.401   7.046  0.00  0.00    -0.281 OA
ATOM     38  C   UNL     1      -1.766   0.320   6.844  0.00  0.00    +0.142 A 
ENDROOT
BRANCH  10  11
ATOM     11  C   UNL     1      -4.254  -3.079   6.083  0.00  0.00    +0.242 C 
ATOM     12  C   UNL     1      -5.483  -2.644   5.273  0.00  0.00    +0.038 C 
ATOM     13  C   UNL     1      -6.310  -3.889   5.007  0.00  0.00    +0.399 C 
ATOM     14  C   UNL     1      -5.569  -5.111   4.674  0.00  0.00    -0.292 A 
ATOM     15  C   UNL     1      -6.236  -6.237   4.168  0.00  0.00    +0.222 A 
ATOM     18  C   UNL     1      -5.515  -7.380   3.873  0.00  0.00    -0.073 A 
ATOM     19  C   UNL     1      -4.140  -7.408   4.077  0.00  0.00    +0.198 A 
ATOM     22  C   UNL     1      -3.474  -6.295   4.572  0.00  0.00    -0.054 A 
ATOM     23  C   UNL     1      -4.176  -5.140   4.872  0.00  0.00    +0.214 A 
ATOM     24  O   UNL     1      -7.522  -3.875   5.067  0.00  0.00    -0.424 OA
ATOM     25  O   UNL     1      -3.520  -4.054   5.343  0.00  0.00    -0.298 OA
BRANCH  15  16
ATOM     16  O   UNL     1      -7.577  -6.205   3.969  0.00  0.00    -0.476 OA
ATOM     17  H   UNL     1      -7.837  -5.902   3.088  0.00  0.00    +0.401 HD
ENDBRANCH  15  16
BRANCH  19  20
ATOM     20  O   UNL     1      -3.442  -8.535   3.789  0.00  0.00    -0.490 OA
ATOM     21  H   UNL     1      -3.111  -8.572   2.881  0.00  0.00    +0.403 HD
ENDBRANCH  19  20
ENDBRANCH  10  11
BRANCH  28  29
ATOM     29  O   UNL     1      -4.073   0.604   9.581  0.00  0.00    -0.552 OA
ATOM     30  H   UNL     1      -4.516  -0.252   9.655  0.00  0.00    +0.385 HD
ENDBRANCH  28  29
BRANCH  31  32
ATOM     32  O   UNL     1      -2.967   2.776   8.369  0.00  0.00    -0.543 OA
ATOM     33  H   UNL     1      -3.843   2.880   8.765  0.00  0.00    +0.388 HD
ENDBRANCH  31  32
BRANCH   8   7
ATOM      7  O   UNL     1      -0.877   0.132   4.639  0.00  0.00    -0.299 OA
BRANCH   7   6
ATOM      6  C   UNL     1      -0.879  -0.572   3.395  0.00  0.00    +0.189 C 
BRANCH   6   5
ATOM      5  C   UNL     1       0.123   0.078   2.439  0.00  0.00    +0.074 C 
BRANCH   5   4
ATOM      1  C   UNL     1      -0.201   1.487   0.018  0.00  0.00    +0.076 C 
ATOM      2  C   UNL     1      -0.087  -0.015   0.009  0.00  0.00    -0.117 C 
ATOM      3  C   UNL     1      -0.213  -0.772  -1.289  0.00  0.00    +0.076 C 
ATOM      4  C   UNL     1       0.121  -0.664   1.128  0.00  0.00    -0.062 C 
ENDBRANCH   5   4
ENDBRANCH   6   5
ENDBRANCH   7   6
ENDBRANCH   8   7
TORSDOF 9
