REMARK  Name = ZINC95486007
REMARK  15 active torsions:
REMARK  status: ('A' for Active; 'I' for Inactive)
REMARK    1  A    between atoms: C1_1  and  C2_2
REMARK    2  A    between atoms: C6_7  and  C34_62
REMARK    3  A    between atoms: C7_9  and  C33_61
REMARK    4  A    between atoms: C16_23  and  C32_60
REMARK    5  A    between atoms: C19_26  and  C21_29
REMARK    6  A    between atoms: C22_31  and  O6_44
REMARK    7  A    between atoms: C23_33  and  O5_43
REMARK    8  A    between atoms: C24_35  and  O4_42
REMARK    9  A    between atoms: C25_37  and  C26_40
REMARK   10  A    between atoms: C26_40  and  O3_41
REMARK   11  A    between atoms: O6_44  and  C27_45
REMARK   12  A    between atoms: C28_47  and  O11_59
REMARK   13  A    between atoms: C29_49  and  O10_58
REMARK   14  A    between atoms: C30_51  and  O9_57
REMARK   15  A    between atoms: C31_53  and  O8_56
REMARK                            x       y       z     vdW  Elec       q    Type
REMARK                         _______ _______ _______ _____ _____    ______ ____
ROOT
ATOM     20  C   UNL     1      -7.472  -4.876   6.709  0.00  0.00    +0.171 C 
ATOM     21  C   UNL     1      -8.503  -3.771   6.953  0.00  0.00    +0.161 C 
ATOM     37  C   UNL     1      -9.716  -4.007   6.048  0.00  0.00    +0.162 C 
ATOM     40  C   UNL     1     -10.283  -5.403   6.324  0.00  0.00    +0.117 C 
ATOM     43  C   UNL     1      -9.182  -6.444   6.104  0.00  0.00    +0.128 C 
ATOM     47  O   UNL     1      -8.072  -6.149   6.954  0.00  0.00    -0.338 OA
ENDROOT
BRANCH  20  19
ATOM      1  C   UNL     1       0.022   1.442  -0.024  0.00  0.00    +0.026 C 
ATOM      2  C   UNL     1       0.035  -0.088  -0.022  0.00  0.00    -0.051 C 
ATOM      3  C   UNL     1      -1.405  -0.612  -0.006  0.00  0.00    +0.023 C 
ATOM      4  C   UNL     1      -1.377  -2.142   0.062  0.00  0.00    +0.001 C 
ATOM      5  C   UNL     1      -0.573  -2.578   1.284  0.00  0.00    +0.272 C 
ATOM      6  O   UNL     1       0.737  -2.021   1.248  0.00  0.00    -0.353 OA
ATOM      7  C   UNL     1      -0.482  -4.122   1.319  0.00  0.00    -0.006 C 
ATOM      8  C   UNL     1       0.978  -4.579   1.282  0.00  0.00    +0.050 C 
ATOM      9  C   UNL     1      -1.131  -4.473   2.662  0.00  0.00    -0.091 C 
ATOM     10  C   UNL     1      -0.076  -4.510   3.770  0.00  0.00    +0.047 C 
ATOM     11  C   UNL     1      -1.982  -5.727   2.681  0.00  0.00    +0.032 C 
ATOM     12  C   UNL     1      -2.632  -5.837   4.074  0.00  0.00    +0.024 C 
ATOM     13  C   UNL     1      -3.453  -4.593   4.376  0.00  0.00    -0.001 C 
ATOM     14  C   UNL     1      -2.591  -3.324   4.271  0.00  0.00    +0.051 C 
ATOM     15  C   UNL     1      -3.379  -2.121   4.670  0.00  0.00    -0.034 C 
ATOM     16  C   UNL     1      -4.476  -2.179   5.370  0.00  0.00    -0.045 C 
ATOM     17  C   UNL     1      -5.096  -3.457   5.828  0.00  0.00    +0.021 C 
ATOM     18  C   UNL     1      -5.633  -3.373   7.253  0.00  0.00    +0.037 C 
ATOM     19  C   UNL     1      -6.283  -4.682   7.653  0.00  0.00    +0.030 C 
ATOM     48  C   UNL     1      -5.321  -5.860   7.505  0.00  0.00    +0.029 C 
ATOM     49  C   UNL     1      -4.774  -5.921   6.074  0.00  0.00    +0.020 C 
ATOM     50  C   UNL     1      -4.053  -4.611   5.772  0.00  0.00    -0.043 C 
ATOM     51  C   UNL     1      -2.942  -4.404   6.804  0.00  0.00    +0.028 C 
ATOM     52  C   UNL     1      -2.080  -3.253   2.854  0.00  0.00    +0.155 C 
ATOM     53  O   UNL     1      -1.252  -2.155   2.488  0.00  0.00    -0.368 OA
ATOM     54  C   UNL     1       0.768  -0.592   1.224  0.00  0.00    +0.218 C 
ENDBRANCH  20  19
BRANCH  37  38
ATOM     38  O   UNL     1     -10.714  -3.021   6.320  0.00  0.00    -0.550 OA
ATOM     39  H   UNL     1     -11.512  -3.110   5.781  0.00  0.00    +0.379 HD
ENDBRANCH  37  38
BRANCH  40  41
ATOM     41  O   UNL     1     -10.744  -5.472   7.675  0.00  0.00    -0.523 OA
ATOM     42  H   UNL     1     -11.117  -6.330   7.920  0.00  0.00    +0.370 HD
ENDBRANCH  40  41
BRANCH  21  22
ATOM     22  O   UNL     1      -8.915  -3.797   8.321  0.00  0.00    -0.306 OA
BRANCH  22  23
ATOM     23  C   UNL     1      -9.295  -2.519   8.838  0.00  0.00    +0.314 C 
ATOM     24  C   UNL     1      -9.833  -2.684  10.262  0.00  0.00    +0.182 C 
ATOM     27  C   UNL     1     -10.181  -1.305  10.830  0.00  0.00    +0.201 C 
ATOM     30  C   UNL     1      -8.936  -0.413  10.777  0.00  0.00    +0.127 C 
ATOM     33  C   UNL     1      -8.434  -0.337   9.334  0.00  0.00    +0.307 C 
ATOM     36  O   UNL     1      -8.157  -1.655   8.856  0.00  0.00    -0.417 OA
BRANCH  24  25
ATOM     25  O   UNL     1      -8.837  -3.301  11.080  0.00  0.00    -0.516 OA
ATOM     26  H   UNL     1      -8.565  -4.177  10.775  0.00  0.00    +0.375 HD
ENDBRANCH  24  25
BRANCH  27  28
ATOM     28  O   UNL     1     -10.617  -1.441  12.184  0.00  0.00    -0.533 OA
ATOM     29  H   UNL     1     -10.854  -0.605  12.607  0.00  0.00    +0.379 HD
ENDBRANCH  27  28
BRANCH  30  31
ATOM     31  O   UNL     1      -7.917  -0.968  11.611  0.00  0.00    -0.512 OA
ATOM     32  H   UNL     1      -7.098  -0.454  11.626  0.00  0.00    +0.375 HD
ENDBRANCH  30  31
BRANCH  33  34
ATOM     34  O   UNL     1      -7.240   0.447   9.286  0.00  0.00    -0.539 OA
ATOM     35  H   UNL     1      -6.865   0.539   8.399  0.00  0.00    +0.391 HD
ENDBRANCH  33  34
ENDBRANCH  22  23
ENDBRANCH  21  22
BRANCH  43  44
ATOM     44  C   UNL     1      -9.724  -7.836   6.437  0.00  0.00    +0.200 C 
BRANCH  44  45
ATOM     45  O   UNL     1      -8.736  -8.819   6.121  0.00  0.00    -0.560 OA
ATOM     46  H   UNL     1      -9.011  -9.727   6.307  0.00  0.00    +0.383 HD
ENDBRANCH  44  45
ENDBRANCH  43  44
TORSDOF 11
