REMARK  Name = ZINC95486171
REMARK  8 active torsions:
REMARK  status: ('A' for Active; 'I' for Inactive)
REMARK    1  A    between atoms: C1_1  and  C2_2
REMARK    2  A    between atoms: C2_2  and  O2_4
REMARK    3  A    between atoms: O2_4  and  C3_5
REMARK    4  A    between atoms: C5_7  and  C9_14
REMARK    5  A    between atoms: C9_14  and  O5_15
REMARK    6  A    between atoms: O5_15  and  C10_16
REMARK    7  A    between atoms: C10_16  and  C11_18
REMARK    8  A    between atoms: C11_18  and  C12_19
REMARK                            x       y       z     vdW  Elec       q    Type
REMARK                         _______ _______ _______ _____ _____    ______ ____
ROOT
ATOM      4  C   UNL     1      -1.179  -2.050   0.048  0.00  0.00    +0.106 C 
ATOM      5  C   UNL     1       0.000  -2.611   0.114  0.00  0.00    -0.011 C 
ATOM      6  C   UNL     1       0.302  -4.070   0.087  0.00  0.00    +0.318 C 
ATOM     18  O   UNL     1      -0.682  -4.845   0.741  0.00  0.00    -0.362 OA
ATOM     19  C   UNL     1      -1.886  -4.979   0.184  0.00  0.00    +0.513 C 
ATOM     20  C   UNL     1      -2.850  -3.897   0.126  0.00  0.00    -0.011 C 
ATOM     21  O   UNL     1      -2.189  -6.055  -0.296  0.00  0.00    -0.430 OA
ATOM     22  C   UNL     1      -2.497  -2.615   0.016  0.00  0.00    +0.068 C 
ENDROOT
BRANCH   4   3
ATOM      3  O   UNL     1      -1.151  -0.691   0.009  0.00  0.00    -0.310 OA
BRANCH   3   2
ATOM      1  C   UNL     1      -1.669   1.419  -1.164  0.00  0.00    +0.174 C 
ATOM      2  C   UNL     1      -1.569  -0.084  -1.113  0.00  0.00    +0.459 C 
ATOM     23  O   UNL     1      -1.865  -0.742  -2.082  0.00  0.00    -0.490 OA
ENDBRANCH   3   2
ENDBRANCH   4   3
BRANCH   6   7
ATOM      7  C   UNL     1       0.398  -4.527  -1.370  0.00  0.00    +0.199 C 
BRANCH   7   8
ATOM      8  O   UNL     1       0.802  -5.897  -1.413  0.00  0.00    -0.338 OA
BRANCH   8   9
ATOM      9  C   UNL     1       0.935  -6.455  -2.627  0.00  0.00    +0.464 C 
ATOM     17  O   UNL     1       0.716  -5.802  -3.620  0.00  0.00    -0.493 OA
BRANCH   9  10
ATOM     10  C   UNL     1       1.357  -7.897  -2.752  0.00  0.00    +0.167 C 
BRANCH  10  11
ATOM     11  C   UNL     1       1.430  -8.274  -4.209  0.00  0.00    -0.083 A 
ATOM     12  C   UNL     1       0.314  -8.781  -4.848  0.00  0.00    +0.021 A 
ATOM     13  C   UNL     1       0.382  -9.128  -6.185  0.00  0.00    +0.006 A 
ATOM     14  C   UNL     1       1.565  -8.967  -6.882  0.00  0.00    +0.009 A 
ATOM     15  C   UNL     1       2.680  -8.460  -6.242  0.00  0.00    +0.005 A 
ATOM     16  C   UNL     1       2.611  -8.109  -4.907  0.00  0.00    +0.019 A 
ENDBRANCH  10  11
ENDBRANCH   9  10
ENDBRANCH   8   9
ENDBRANCH   7   8
ENDBRANCH   6   7
TORSDOF 7
