REMARK  Name = ZINC95486076
REMARK  9 active torsions:
REMARK  status: ('A' for Active; 'I' for Inactive)
REMARK    1  A    between atoms: C1_1  and  C2_2
REMARK    2  A    between atoms: C2_2  and  C20_27
REMARK    3  A    between atoms: C3_3  and  C4_4
REMARK    4  A    between atoms: C6_6  and  C11_13
REMARK    5  A    between atoms: C8_8  and  O2_12
REMARK    6  A    between atoms: C9_9  and  O1_10
REMARK    7  A    between atoms: O1_10  and  C10_11
REMARK    8  A    between atoms: C15_19  and  O6_26
REMARK    9  A    between atoms: C17_21  and  O5_25
REMARK                            x       y       z     vdW  Elec       q    Type
REMARK                         _______ _______ _______ _____ _____    ______ ____
ROOT
ATOM      8  C   UNL     1      -0.367   3.639   3.656  0.00  0.00    +0.241 C 
ATOM      9  C   UNL     1       0.975   4.385   3.649  0.00  0.00    +0.040 C 
ATOM     10  C   UNL     1       0.663   5.870   3.710  0.00  0.00    +0.404 C 
ATOM     11  C   UNL     1      -0.431   6.275   4.599  0.00  0.00    -0.294 A 
ATOM     12  C   UNL     1      -0.630   7.627   4.920  0.00  0.00    +0.223 A 
ATOM     15  C   UNL     1      -1.677   7.983   5.751  0.00  0.00    -0.074 A 
ATOM     16  C   UNL     1      -2.522   7.006   6.263  0.00  0.00    +0.198 A 
ATOM     19  C   UNL     1      -2.327   5.667   5.954  0.00  0.00    -0.052 A 
ATOM     20  C   UNL     1      -1.284   5.288   5.126  0.00  0.00    +0.214 A 
ATOM     21  O   UNL     1       1.288   6.680   3.057  0.00  0.00    -0.431 OA
ATOM     22  O   UNL     1      -1.092   3.980   4.837  0.00  0.00    -0.297 OA
ENDROOT
BRANCH   8   7
ATOM      5  C   UNL     1       0.111   0.100   2.402  0.00  0.00    -0.049 A 
ATOM      6  C   UNL     1      -0.121   1.476   2.429  0.00  0.00    +0.045 A 
ATOM      7  C   UNL     1      -0.116   2.153   3.631  0.00  0.00    -0.081 A 
ATOM     23  C   UNL     1       0.119   1.474   4.814  0.00  0.00    +0.034 A 
ATOM     24  C   UNL     1       0.351   0.108   4.801  0.00  0.00    +0.093 A 
ATOM     27  C   UNL     1       0.343  -0.587   3.598  0.00  0.00    +0.088 A 
BRANCH   5   4
ATOM      1  C   UNL     1      -1.887   0.660   0.489  0.00  0.00    +0.079 C 
ATOM      2  C   UNL     1      -0.784  -0.320   0.184  0.00  0.00    -0.102 C 
ATOM      3  C   UNL     1      -0.693  -0.951  -1.182  0.00  0.00    +0.085 C 
ATOM      4  C   UNL     1       0.107  -0.628   1.117  0.00  0.00    -0.011 C 
ENDBRANCH   5   4
BRANCH  24  25
ATOM     25  O   UNL     1       0.583  -0.553   5.967  0.00  0.00    -0.489 OA
ATOM     26  H   UNL     1      -0.217  -0.893   6.392  0.00  0.00    +0.395 HD
ENDBRANCH  24  25
BRANCH  27  28
ATOM     28  O   UNL     1       0.565  -1.928   3.582  0.00  0.00    -0.328 OA
ATOM     29  C   UNL     1       1.921  -2.360   3.452  0.00  0.00    +0.231 C 
ENDBRANCH  27  28
ENDBRANCH   8   7
BRANCH  12  13
ATOM     13  O   UNL     1       0.199   8.577   4.420  0.00  0.00    -0.479 OA
ATOM     14  H   UNL     1      -0.088   8.942   3.572  0.00  0.00    +0.404 HD
ENDBRANCH  12  13
BRANCH  16  17
ATOM     17  O   UNL     1      -3.549   7.365   7.075  0.00  0.00    -0.490 OA
ATOM     18  H   UNL     1      -4.373   7.555   6.606  0.00  0.00    +0.403 HD
ENDBRANCH  16  17
TORSDOF 6
