REMARK  Name = ZINC02026346
REMARK  9 active torsions:
REMARK  status: ('A' for Active; 'I' for Inactive)
REMARK    1  A    between atoms: C4_4  and  C7_7
REMARK    2  A    between atoms: C7_7  and  C8_8
REMARK    3  A    between atoms: C8_8  and  C9_9
REMARK    4  A    between atoms: C9_9  and  C10_11
REMARK    5  A    between atoms: C11_12  and  O5_34
REMARK    6  A    between atoms: C14_15  and  C16_18
REMARK    7  A    between atoms: C15_16  and  O2_17
REMARK    8  A    between atoms: C16_18  and  C17_19
REMARK    9  A    between atoms: C22_24  and  O3_25
REMARK                            x       y       z     vdW  Elec       q    Type
REMARK                         _______ _______ _______ _____ _____    ______ ____
ROOT
ATOM      8  C   UNL     1      -0.018   1.457   0.010  0.00  0.00    -0.253 A 
ATOM      9  C   UNL     1       1.187   2.183   0.002  0.00  0.00    +0.219 A 
ATOM     12  C   UNL     1       1.163   3.567   0.009  0.00  0.00    -0.203 A 
ATOM     13  C   UNL     1      -0.050   4.242   0.023  0.00  0.00    +0.189 A 
ATOM     14  O   UNL     1      -0.093   5.594   0.029  0.00  0.00    -0.232 OA
ATOM     15  C   UNL     1       0.986   6.308   0.431  0.00  0.00    +0.107 A 
ATOM     16  C   UNL     1       0.813   7.626   0.841  0.00  0.00    +0.008 A 
ATOM     17  C   UNL     1       1.899   8.370   1.254  0.00  0.00    +0.046 A 
ATOM     18  C   UNL     1       3.162   7.806   1.262  0.00  0.00    -0.004 A 
ATOM     19  C   UNL     1       3.337   6.497   0.856  0.00  0.00    +0.047 A 
ATOM     20  C   UNL     1       2.251   5.745   0.440  0.00  0.00    -0.141 A 
ATOM     21  C   UNL     1      -1.248   3.531   0.032  0.00  0.00    -0.145 A 
ATOM     31  C   UNL     1       2.464   4.323  -0.000  0.00  0.00    +0.164 C 
ATOM     32  C   UNL     1      -1.243   2.150   0.020  0.00  0.00    +0.219 A 
ENDROOT
BRANCH   8   7
ATOM      7  C   UNL     1       0.002  -0.004   0.002  0.00  0.00    +0.400 C 
ATOM     35  O   UNL     1       1.061  -0.597  -0.011  0.00  0.00    -0.443 OA
BRANCH   7   6
ATOM      6  C   UNL     1      -1.293  -0.775   0.010  0.00  0.00    +0.061 C 
BRANCH   6   5
ATOM      5  C   UNL     1      -0.993  -2.276  -0.001  0.00  0.00    +0.076 C 
BRANCH   5   4
ATOM      1  C   UNL     1      -4.662  -4.462   0.023  0.00  0.00    -0.005 A 
ATOM      2  C   UNL     1      -4.080  -4.102  -1.178  0.00  0.00    +0.004 A 
ATOM      3  C   UNL     1      -2.893  -3.394  -1.186  0.00  0.00    +0.006 A 
ATOM      4  C   UNL     1      -2.287  -3.047   0.007  0.00  0.00    -0.079 A 
ATOM     36  C   UNL     1      -2.867  -3.412   1.208  0.00  0.00    +0.002 A 
ATOM     37  C   UNL     1      -4.057  -4.114   1.216  0.00  0.00    +0.003 A 
ENDBRANCH   5   4
ENDBRANCH   6   5
ENDBRANCH   7   6
ENDBRANCH   8   7
BRANCH   9  10
ATOM     10  O   UNL     1       2.374   1.526  -0.012  0.00  0.00    -0.472 OA
ATOM     11  H   UNL     1       2.710   1.340  -0.899  0.00  0.00    +0.400 HD
ENDBRANCH   9  10
BRANCH  32  33
ATOM     33  O   UNL     1      -2.413   1.464   0.022  0.00  0.00    -0.454 OA
ATOM     34  H   UNL     1      -2.748   1.261   0.906  0.00  0.00    +0.391 HD
ENDBRANCH  32  33
BRANCH  21  22
ATOM     22  C   UNL     1      -2.559   4.273   0.047  0.00  0.00    +0.153 C 
BRANCH  22  23
ATOM     23  C   UNL     1      -3.010   4.527  -1.368  0.00  0.00    -0.108 A 
ATOM     24  C   UNL     1      -2.719   5.731  -1.981  0.00  0.00    +0.031 A 
ATOM     25  C   UNL     1      -3.128   5.963  -3.281  0.00  0.00    -0.009 A 
ATOM     26  C   UNL     1      -3.837   4.995  -3.968  0.00  0.00    +0.019 A 
ATOM     27  C   UNL     1      -4.135   3.792  -3.358  0.00  0.00    -0.024 A 
ATOM     28  C   UNL     1      -3.721   3.555  -2.055  0.00  0.00    +0.119 A 
BRANCH  28  29
ATOM     29  O   UNL     1      -4.013   2.372  -1.453  0.00  0.00    -0.471 OA
ATOM     30  H   UNL     1      -4.855   2.371  -0.976  0.00  0.00    +0.381 HD
ENDBRANCH  28  29
ENDBRANCH  22  23
ENDBRANCH  21  22
TORSDOF 9
