REMARK  Name = ZINC95485933
REMARK  6 active torsions:
REMARK  status: ('A' for Active; 'I' for Inactive)
REMARK    1  A    between atoms: C1_1  and  C2_2
REMARK    2  A    between atoms: C2_2  and  C4_4
REMARK    3  A    between atoms: C13_17  and  C30_40
REMARK    4  A    between atoms: C18_24  and  C28_38
REMARK    5  A    between atoms: C18_24  and  C29_39
REMARK    6  A    between atoms: C25_35  and  C27_37
REMARK                            x       y       z     vdW  Elec       q    Type
REMARK                         _______ _______ _______ _____ _____    ______ ____
ROOT
ATOM      3  C   UNL     1       1.001  -1.521  -3.163  0.00  0.00    +0.018 C 
ATOM      4  C   UNL     1      -0.162  -1.037  -4.067  0.00  0.00    +0.053 C 
ATOM      5  C   UNL     1       0.468  -1.032  -5.480  0.00  0.00    -0.048 C 
ATOM      6  C   UNL     1       1.434  -2.164  -5.831  0.00  0.00    +0.029 C 
ATOM      7  C   UNL     1       1.975  -0.837  -5.275  0.00  0.00    -0.123 C 
ATOM      8  C   UNL     1       2.836   0.016  -6.191  0.00  0.00    +0.065 C 
ATOM      9  C   UNL     1       3.556   1.106  -5.375  0.00  0.00    -0.004 C 
ATOM     10  C   UNL     1       4.774   0.464  -4.713  0.00  0.00    +0.027 C 
ATOM     11  C   UNL     1       4.016   2.193  -6.373  0.00  0.00    -0.007 C 
ATOM     12  C   UNL     1       2.997   3.312  -6.616  0.00  0.00    -0.004 C 
ATOM     13  C   UNL     1       4.270   3.566  -5.791  0.00  0.00    -0.099 C 
ATOM     14  C   UNL     1       5.245   4.561  -6.439  0.00  0.00    +0.062 C 
ATOM     15  C   UNL     1       4.542   5.913  -6.423  0.00  0.00    +0.152 C 
ATOM     16  O   UNL     1       5.396   7.012  -6.119  0.00  0.00    -0.371 OA
ATOM     17  C   UNL     1       4.768   7.849  -5.112  0.00  0.00    +0.192 C 
ATOM     18  C   UNL     1       3.270   7.454  -5.150  0.00  0.00    -0.096 C 
ATOM     19  C   UNL     1       2.577   8.095  -6.367  0.00  0.00    +0.031 C 
ATOM     20  C   UNL     1       2.509   7.819  -3.878  0.00  0.00    +0.045 C 
ATOM     21  C   UNL     1       5.337   7.403  -3.759  0.00  0.00    -0.009 C 
ATOM     22  C   UNL     1       5.312   5.875  -3.688  0.00  0.00    +0.024 C 
ATOM     23  C   UNL     1       3.951   5.294  -4.059  0.00  0.00    +0.011 C 
ATOM     24  C   UNL     1       3.421   5.919  -5.355  0.00  0.00    +0.004 C 
ATOM     25  C   UNL     1       4.098   3.769  -4.285  0.00  0.00    -0.009 C 
ATOM     26  C   UNL     1       5.326   3.275  -3.519  0.00  0.00    +0.028 C 
ATOM     27  C   UNL     1       2.871   3.039  -3.779  0.00  0.00    +0.018 C 
ATOM     28  C   UNL     1       2.583   1.685  -4.383  0.00  0.00    -0.014 C 
ATOM     29  C   UNL     1       2.176   0.696  -3.293  0.00  0.00    +0.027 C 
ATOM     30  C   UNL     1       2.214  -0.752  -3.753  0.00  0.00    +0.043 C 
ENDROOT
BRANCH   3   2
ATOM      1  C   UNL     1       1.771  -1.607  -0.674  0.00  0.00    +0.071 C 
ATOM      2  C   UNL     1       0.762  -1.197  -1.715  0.00  0.00    -0.107 C 
ATOM     31  C   UNL     1      -0.324  -0.557  -1.358  0.00  0.00    -0.009 C 
ENDBRANCH   3   2
TORSDOF 1
