REMARK  Name = ZINC95485955
REMARK  2 active torsions:
REMARK  status: ('A' for Active; 'I' for Inactive)
REMARK    1  A    between atoms: C1_1  and  O1_2
REMARK    2  A    between atoms: O1_2  and  C2_3
REMARK                            x       y       z     vdW  Elec       q    Type
REMARK                         _______ _______ _______ _____ _____    ______ ____
ROOT
ATOM      3  C   UNL     1       0.605  -0.607  -1.055  0.00  0.00    +0.176 A 
ATOM      4  C   UNL     1       1.173   0.166  -2.063  0.00  0.00    -0.028 A 
ATOM      5  C   UNL     1       1.791  -0.406  -3.160  0.00  0.00    +0.157 A 
ATOM      6  C   UNL     1       1.841  -1.790  -3.265  0.00  0.00    -0.172 A 
ATOM      7  C   UNL     1       1.266  -2.570  -2.239  0.00  0.00    -0.037 A 
ATOM      8  C   UNL     1       1.334  -4.030  -2.373  0.00  0.00    -0.073 A 
ATOM      9  C   UNL     1       2.107  -4.605  -3.380  0.00  0.00    +0.155 A 
ATOM     10  O   UNL     1       2.832  -3.807  -4.204  0.00  0.00    -0.268 OA
ATOM     11  C   UNL     1       2.130  -5.993  -3.475  0.00  0.00    +0.068 A 
ATOM     12  C   UNL     1       1.414  -6.771  -2.562  0.00  0.00    +0.072 A 
ATOM     13  O   UNL     1       1.611  -8.088  -2.870  0.00  0.00    -0.292 OA
ATOM     14  C   UNL     1       2.113  -8.097  -4.219  0.00  0.00    +0.454 C 
ATOM     15  C   UNL     1       0.678  -6.191  -1.539  0.00  0.00    +0.134 A 
ATOM     16  O   UNL     1       2.769  -6.823  -4.349  0.00  0.00    -0.287 OA
ATOM     17  C   UNL     1       0.621  -4.808  -1.439  0.00  0.00    -0.116 A 
ATOM     18  C   UNL     1      -0.161  -4.077  -0.429  0.00  0.00    +0.541 A 
ATOM     19  O   UNL     1      -1.094  -4.613   0.137  0.00  0.00    -0.413 OA
ATOM     20  O   UNL     1       0.175  -2.795  -0.141  0.00  0.00    -0.257 OA
ATOM     21  C   UNL     1       2.448  -2.520  -4.389  0.00  0.00    +0.541 A 
ATOM     22  O   UNL     1       2.603  -1.978  -5.467  0.00  0.00    -0.419 OA
ATOM     23  C   UNL     1       0.659  -1.997  -1.125  0.00  0.00    +0.097 A 
ENDROOT
BRANCH   3   2
ATOM      1  C   UNL     1      -0.017   1.425   0.010  0.00  0.00    +0.261 C 
ATOM      2  O   UNL     1       0.002  -0.004   0.002  0.00  0.00    -0.292 OA
ENDBRANCH   3   2
TORSDOF 1
