REMARK  Name = ZINC05854400
REMARK  12 active torsions:
REMARK  status: ('A' for Active; 'I' for Inactive)
REMARK    1  A    between atoms: C1_1  and  C2_2
REMARK    2  A    between atoms: C2_2  and  C23_29
REMARK    3  A    between atoms: C3_3  and  C4_4
REMARK    4  A    between atoms: C4_4  and  C5_5
REMARK    5  A    between atoms: C6_6  and  O6_28
REMARK    6  A    between atoms: C7_7  and  C18_23
REMARK    7  A    between atoms: C10_10  and  O1_11
REMARK    8  A    between atoms: C13_15  and  O5_22
REMARK    9  A    between atoms: C16_18  and  O4_21
REMARK   10  A    between atoms: C18_23  and  C19_24
REMARK   11  A    between atoms: C20_25  and  C21_26
REMARK   12  A    between atoms: C20_25  and  C22_27
REMARK                            x       y       z     vdW  Elec       q    Type
REMARK                         _______ _______ _______ _____ _____    ______ ____
ROOT
ATOM      6  C   UNL     1      -0.797   4.121   3.732  0.00  0.00    -0.202 A 
ATOM      7  C   UNL     1      -0.548   3.222   2.700  0.00  0.00    +0.278 A 
ATOM     10  C   UNL     1       0.207   3.599   1.601  0.00  0.00    -0.249 A 
ATOM     16  C   UNL     1       0.719   4.886   1.512  0.00  0.00    +0.247 A 
ATOM     17  C   UNL     1       0.464   5.796   2.551  0.00  0.00    -0.366 A 
ATOM     18  C   UNL     1       1.009   7.160   2.451  0.00  0.00    +0.459 A 
ATOM     19  C   UNL     1       1.796   7.475   1.243  0.00  0.00    -0.235 A 
ATOM     20  C   UNL     1       2.354   8.747   1.062  0.00  0.00    +0.213 A 
ATOM     23  C   UNL     1       3.088   9.015  -0.080  0.00  0.00    -0.062 A 
ATOM     24  C   UNL     1       3.270   8.029  -1.036  0.00  0.00    +0.092 A 
ATOM     25  C   UNL     1       2.724   6.770  -0.867  0.00  0.00    +0.100 A 
ATOM     28  C   UNL     1       1.980   6.477   0.275  0.00  0.00    +0.111 A 
ATOM     29  O   UNL     1       0.819   7.990   3.322  0.00  0.00    -0.456 OA
ATOM     30  O   UNL     1       1.450   5.246   0.437  0.00  0.00    -0.230 OA
ATOM     31  C   UNL     1      -0.297   5.408   3.663  0.00  0.00    +0.302 A 
ENDROOT
BRANCH   7   8
ATOM      8  O   UNL     1      -1.047   1.962   2.773  0.00  0.00    -0.487 OA
ATOM      9  H   UNL     1      -0.854   1.246   1.960  0.00  0.00    +0.422 HD
ENDBRANCH   7   8
BRANCH  20  21
ATOM     21  O   UNL     1       2.174   9.711   2.000  0.00  0.00    -0.477 OA
ATOM     22  H   UNL     1       2.614  10.709   1.854  0.00  0.00    +0.439 HD
ENDBRANCH  20  21
BRANCH  25  26
ATOM     26  O   UNL     1       2.913   5.814  -1.817  0.00  0.00    -0.501 OA
ATOM     27  H   UNL     1       2.480   4.812  -1.683  0.00  0.00    +0.439 HD
ENDBRANCH  25  26
BRANCH  31  32
ATOM     32  O   UNL     1      -0.541   6.290   4.665  0.00  0.00    -0.497 OA
ATOM     33  H   UNL     1      -0.141   7.313   4.607  0.00  0.00    +0.448 HD
ENDBRANCH  31  32
BRANCH   6   5
ATOM      5  C   UNL     1      -1.616   3.694   4.922  0.00  0.00    +0.138 C 
BRANCH   5   4
ATOM      1  C   UNL     1      -3.509   1.609   5.067  0.00  0.00    +0.074 C 
ATOM      2  C   UNL     1      -3.958   3.019   4.781  0.00  0.00    -0.135 C 
ATOM      3  C   UNL     1      -5.426   3.327   4.637  0.00  0.00    +0.068 C 
ATOM      4  C   UNL     1      -3.073   3.976   4.657  0.00  0.00    -0.047 C 
ENDBRANCH   5   4
ENDBRANCH   6   5
BRANCH  10  11
ATOM     11  C   UNL     1       0.470   2.608   0.496  0.00  0.00    +0.128 C 
BRANCH  11  12
ATOM     12  C   UNL     1       1.741   1.854   0.788  0.00  0.00    -0.047 C 
ATOM     13  C   UNL     1       1.721   0.547   0.877  0.00  0.00    -0.133 C 
ATOM     14  C   UNL     1       0.425  -0.201   0.703  0.00  0.00    +0.087 C 
ATOM     15  C   UNL     1       2.996  -0.209   1.154  0.00  0.00    +0.078 C 
ENDBRANCH  11  12
ENDBRANCH  10  11
TORSDOF 8
