REMARK  Name = ZINC95486192
REMARK  19 active torsions:
REMARK  status: ('A' for Active; 'I' for Inactive)
REMARK    1  A    between atoms: C1_1  and  C2_2
REMARK    2  A    between atoms: C5_5  and  C36_47
REMARK    3  A    between atoms: C7_7  and  C13_15
REMARK    4  A    between atoms: C8_8  and  O2_14
REMARK    5  A    between atoms: C10_10  and  O1_12
REMARK    6  A    between atoms: O1_12  and  C12_13
REMARK    7  A    between atoms: C15_17  and  C25_29
REMARK    8  A    between atoms: C18_20  and  C24_28
REMARK    9  A    between atoms: C20_22  and  O4_26
REMARK   10  A    between atoms: C22_24  and  O3_25
REMARK   11  A    between atoms: O4_26  and  C23_27
REMARK   12  A    between atoms: C26_30  and  O6_46
REMARK   13  A    between atoms: C28_32  and  O5_45
REMARK   14  A    between atoms: C32_38  and  C35_44
REMARK   15  A    between atoms: C33_41  and  C34_43
REMARK   16  A    between atoms: C40_51  and  O8_54
REMARK   17  A    between atoms: C41_52  and  O7_53
REMARK   18  A    between atoms: C42_55  and  C46_61
REMARK   19  A    between atoms: C43_57  and  C45_60
REMARK                            x       y       z     vdW  Elec       q    Type
REMARK                         _______ _______ _______ _____ _____    ______ ____
ROOT
ATOM     24  C   UNL     1       0.084  -6.350  -1.231  0.00  0.00    -0.094 A 
ATOM     25  C   UNL     1       1.198  -7.015  -1.753  0.00  0.00    +0.055 A 
ATOM     26  C   UNL     1       1.242  -8.403  -1.779  0.00  0.00    -0.038 A 
ATOM     45  C   UNL     1       0.105  -9.159  -1.252  0.00  0.00    +0.025 A 
ATOM     46  C   UNL     1       0.102 -10.559  -1.256  0.00  0.00    -0.030 A 
ATOM     47  C   UNL     1      -0.971 -11.238  -0.758  0.00  0.00    -0.027 A 
ATOM     48  C   UNL     1      -0.964 -12.745  -0.766  0.00  0.00    +0.092 C 
ATOM     49  C   UNL     1      -2.071 -10.561  -0.242  0.00  0.00    -0.101 A 
ATOM     50  C   UNL     1      -2.104  -9.184  -0.223  0.00  0.00    +0.167 A 
ATOM     53  C   UNL     1      -1.008  -8.457  -0.730  0.00  0.00    -0.106 A 
ATOM     54  C   UNL     1      -1.001  -7.051  -0.722  0.00  0.00    +0.189 A 
ENDROOT
BRANCH  26  27
ATOM     27  C   UNL     1       2.411  -9.100  -2.328  0.00  0.00    -0.179 C 
ATOM     28  C   UNL     1       3.308  -9.706  -1.504  0.00  0.00    +0.177 C 
ATOM     31  C   UNL     1       4.491 -10.362  -2.069  0.00  0.00    -0.140 C 
ATOM     32  C   UNL     1       4.896 -10.064  -3.315  0.00  0.00    +0.140 C 
ATOM     35  C   UNL     1       4.138  -9.034  -4.101  0.00  0.00    +0.061 C 
ATOM     36  C   UNL     1       4.349  -9.184  -5.604  0.00  0.00    +0.191 C 
ATOM     37  C   UNL     1       3.798 -10.534  -6.068  0.00  0.00    +0.094 C 
ATOM     38  N   UNL     1       3.638  -8.099  -6.297  0.00  0.00    -0.503 N 
ATOM     39  H   UNL     1       3.974  -7.209  -5.958  0.00  0.00    +0.426 HD
ATOM     40  H   UNL     1       3.812  -8.163  -7.289  0.00  0.00    +0.431 HD
ATOM     41  C   UNL     1       2.196  -8.195  -6.052  0.00  0.00    +0.159 C 
ATOM     42  C   UNL     1       1.481  -7.079  -6.816  0.00  0.00    +0.090 C 
ATOM     43  C   UNL     1       1.897  -8.057  -4.554  0.00  0.00    +0.089 C 
ATOM     44  C   UNL     1       2.638  -9.166  -3.811  0.00  0.00    +0.076 C 
BRANCH  28  29
ATOM     29  O   UNL     1       3.109  -9.702  -0.161  0.00  0.00    -0.456 OA
ATOM     30  H   UNL     1       3.799 -10.156   0.341  0.00  0.00    +0.400 HD
ENDBRANCH  28  29
BRANCH  32  33
ATOM     33  O   UNL     1       5.973 -10.683  -3.853  0.00  0.00    -0.472 OA
ATOM     34  H   UNL     1       6.390 -11.328  -3.266  0.00  0.00    +0.415 HD
ENDBRANCH  32  33
ENDBRANCH  26  27
BRANCH  24  23
ATOM      1  C   UNL     1      -0.018   1.503   0.010  0.00  0.00    +0.095 C 
ATOM      2  C   UNL     1       0.002  -0.004   0.002  0.00  0.00    -0.018 A 
ATOM      3  C   UNL     1       0.005  -0.668  -1.188  0.00  0.00    -0.043 A 
ATOM      4  C   UNL     1       0.024  -2.070  -1.208  0.00  0.00    +0.024 A 
ATOM      5  C   UNL     1       0.029  -2.781  -2.434  0.00  0.00    -0.059 A 
ATOM     22  C   UNL     1       0.048  -4.162  -2.425  0.00  0.00    +0.073 A 
ATOM     23  C   UNL     1       0.063  -4.868  -1.216  0.00  0.00    -0.095 A 
ATOM     57  C   UNL     1       0.059  -4.192  -0.002  0.00  0.00    +0.191 A 
ATOM     60  C   UNL     1       0.040  -2.785   0.014  0.00  0.00    -0.105 A 
ATOM     61  C   UNL     1       0.036  -2.073   1.231  0.00  0.00    +0.168 A 
ATOM     64  C   UNL     1       0.023  -0.695   1.209  0.00  0.00    -0.098 A 
BRANCH   5   6
ATOM      6  C   UNL     1       0.012  -2.046  -3.720  0.00  0.00    -0.049 A 
ATOM      7  C   UNL     1       1.204  -1.688  -4.334  0.00  0.00    -0.045 A 
ATOM      8  C   UNL     1       1.185  -0.995  -5.547  0.00  0.00    -0.107 A 
ATOM      9  C   UNL     1       2.469  -0.632  -6.173  0.00  0.00    +0.212 C 
ATOM     10  C   UNL     1       2.525  -0.283  -7.638  0.00  0.00    +0.135 C 
ATOM     11  N   UNL     1       3.547  -0.614  -5.461  0.00  0.00    -0.507 NA
ATOM     12  C   UNL     1       3.543  -0.928  -4.036  0.00  0.00    +0.151 C 
ATOM     13  C   UNL     1       4.941  -1.392  -3.621  0.00  0.00    +0.054 C 
ATOM     14  C   UNL     1      -0.032  -0.660  -6.143  0.00  0.00    +0.052 A 
ATOM     15  C   UNL     1      -1.220  -1.017  -5.531  0.00  0.00    +0.079 A 
ATOM     18  C   UNL     1       2.535  -2.031  -3.717  0.00  0.00    +0.072 C 
ATOM     19  C   UNL     1      -1.206  -1.714  -4.325  0.00  0.00    +0.117 A 
BRANCH  15  16
ATOM     16  O   UNL     1      -2.406  -0.691  -6.111  0.00  0.00    -0.486 OA
ATOM     17  H   UNL     1      -2.745  -1.363  -6.718  0.00  0.00    +0.395 HD
ENDBRANCH  15  16
BRANCH  19  20
ATOM     20  O   UNL     1      -2.376  -2.066  -3.733  0.00  0.00    -0.483 OA
ATOM     21  H   UNL     1      -2.724  -1.401  -3.123  0.00  0.00    +0.398 HD
ENDBRANCH  19  20
ENDBRANCH   5   6
BRANCH  57  58
ATOM     58  O   UNL     1       0.073  -4.886   1.164  0.00  0.00    -0.463 OA
ATOM     59  H   UNL     1       0.961  -5.075   1.499  0.00  0.00    +0.387 HD
ENDBRANCH  57  58
BRANCH  61  62
ATOM     62  O   UNL     1       0.051  -2.739   2.414  0.00  0.00    -0.292 OA
ATOM     63  C   UNL     1       0.046  -1.948   3.604  0.00  0.00    +0.243 C 
ENDBRANCH  61  62
ENDBRANCH  24  23
BRANCH  50  51
ATOM     51  O   UNL     1      -3.183  -8.532   0.283  0.00  0.00    -0.292 OA
ATOM     52  C   UNL     1      -4.254  -9.338   0.779  0.00  0.00    +0.243 C 
ENDBRANCH  50  51
BRANCH  54  55
ATOM     55  O   UNL     1      -2.065  -6.374  -0.217  0.00  0.00    -0.465 OA
ATOM     56  H   UNL     1      -2.750  -6.175  -0.869  0.00  0.00    +0.388 HD
ENDBRANCH  54  55
TORSDOF 11
