REMARK  Name = ZINC95486235
REMARK  7 active torsions:
REMARK  status: ('A' for Active; 'I' for Inactive)
REMARK    1  A    between atoms: C1_1  and  N1_2
REMARK    2  A    between atoms: C4_6  and  O5_35
REMARK    3  A    between atoms: N2_18  and  C17_23
REMARK    4  A    between atoms: C17_23  and  C18_24
REMARK    5  A    between atoms: C18_24  and  C19_25
REMARK    6  A    between atoms: C22_28  and  O2_31
REMARK    7  A    between atoms: O5_35  and  C26_36
REMARK                            x       y       z     vdW  Elec       q    Type
REMARK                         _______ _______ _______ _____ _____    ______ ____
ROOT
ATOM      1  C   UNL     1      -0.018   1.458   0.010  0.00  0.00    +0.302 C 
ATOM      2  N   UNL     1       0.002  -0.004   0.002  0.00  0.00    -0.614 N 
ATOM      3  C   UNL     1      -1.153  -0.877  -0.017  0.00  0.00    +0.213 C 
ATOM      4  C   UNL     1      -2.488  -0.404   0.485  0.00  0.00    +0.056 C 
ATOM      5  C   UNL     1      -3.506  -1.528   0.227  0.00  0.00    +0.201 C 
ATOM      8  C   UNL     1      -2.916  -2.896   0.356  0.00  0.00    -0.064 C 
ATOM      9  C   UNL     1      -1.669  -3.188   0.614  0.00  0.00    +0.034 C 
ATOM     10  C   UNL     1      -0.679  -2.101   0.810  0.00  0.00    +0.013 C 
ATOM     11  C   UNL     1      -0.540  -1.734   2.264  0.00  0.00    -0.047 A 
ATOM     12  C   UNL     1      -1.711  -1.501   2.990  0.00  0.00    +0.065 A 
ATOM     13  C   UNL     1      -1.599  -1.118   4.315  0.00  0.00    +0.027 A 
ATOM     14  C   UNL     1      -0.342  -0.991   4.927  0.00  0.00    +0.041 A 
ATOM     15  O   UNL     1      -0.513  -0.574   6.202  0.00  0.00    -0.305 OA
ATOM     16  C   UNL     1      -1.869  -0.084   6.266  0.00  0.00    +0.431 C 
ATOM     17  C   UNL     1       0.815  -1.277   4.223  0.00  0.00    +0.041 A 
ATOM     18  O   UNL     1      -2.552  -0.819   5.227  0.00  0.00    -0.302 OA
ATOM     19  C   UNL     1       0.686  -1.679   2.893  0.00  0.00    -0.061 A 
ATOM     20  C   UNL     1       1.953  -2.105   2.191  0.00  0.00    +0.249 C 
ATOM     21  N   UNL     1       1.612  -2.951   1.046  0.00  0.00    -0.509 NA
ATOM     32  C   UNL     1       0.694  -2.248   0.148  0.00  0.00    +0.205 C 
ATOM     33  C   UNL     1       1.120  -0.792  -0.013  0.00  0.00    +0.496 C 
ATOM     34  O   UNL     1       2.254  -0.384  -0.146  0.00  0.00    -0.511 OA
ENDROOT
BRANCH   5   6
ATOM      6  O   UNL     1      -4.594  -1.396   1.142  0.00  0.00    -0.375 OA
ATOM      7  C   UNL     1      -5.842  -1.873   0.633  0.00  0.00    +0.207 C 
ENDBRANCH   5   6
BRANCH  21  22
ATOM     22  C   UNL     1       2.807  -3.427   0.345  0.00  0.00    +0.195 C 
BRANCH  22  23
ATOM     23  C   UNL     1       3.594  -4.368   1.260  0.00  0.00    +0.082 C 
BRANCH  23  24
ATOM     24  C   UNL     1       4.824  -4.857   0.539  0.00  0.00    -0.090 A 
ATOM     25  C   UNL     1       4.765  -6.010  -0.222  0.00  0.00    +0.030 A 
ATOM     26  C   UNL     1       5.891  -6.461  -0.883  0.00  0.00    -0.016 A 
ATOM     27  C   UNL     1       7.082  -5.755  -0.783  0.00  0.00    +0.101 A 
ATOM     30  C   UNL     1       7.138  -4.598  -0.019  0.00  0.00    -0.015 A 
ATOM     31  C   UNL     1       6.007  -4.149   0.635  0.00  0.00    +0.028 A 
BRANCH  27  28
ATOM     28  O   UNL     1       8.191  -6.197  -1.432  0.00  0.00    -0.501 OA
ATOM     29  H   UNL     1       8.288  -5.847  -2.328  0.00  0.00    +0.391 HD
ENDBRANCH  27  28
ENDBRANCH  23  24
ENDBRANCH  22  23
ENDBRANCH  21  22
TORSDOF 5
