REMARK  Name = ZINC95486211
REMARK  11 active torsions:
REMARK  status: ('A' for Active; 'I' for Inactive)
REMARK    1  A    between atoms: C1_1  and  O1_2
REMARK    2  A    between atoms: O1_2  and  C2_3
REMARK    3  A    between atoms: C3_4  and  O9_26
REMARK    4  A    between atoms: C7_8  and  O2_9
REMARK    5  A    between atoms: C10_13  and  O8_25
REMARK    6  A    between atoms: C11_14  and  O7_23
REMARK    7  A    between atoms: C12_15  and  O6_21
REMARK    8  A    between atoms: C13_16  and  O5_19
REMARK    9  A    between atoms: O5_19  and  C15_20
REMARK   10  A    between atoms: O6_21  and  C16_22
REMARK   11  A    between atoms: O7_23  and  C17_24
REMARK                            x       y       z     vdW  Elec       q    Type
REMARK                         _______ _______ _______ _____ _____    ______ ____
ROOT
ATOM      3  C   UNL     1       0.913   0.288   1.518  0.00  0.00    +0.012 A 
ATOM      4  C   UNL     1       2.266  -0.034   1.437  0.00  0.00    +0.176 A 
ATOM      7  C   UNL     1       2.857  -0.852   2.387  0.00  0.00    -0.007 A 
ATOM      8  C   UNL     1       2.105  -1.361   3.437  0.00  0.00    +0.184 A 
ATOM      9  C   UNL     1       0.743  -1.027   3.526  0.00  0.00    -0.254 A 
ATOM     10  C   UNL     1      -0.039  -1.555   4.660  0.00  0.00    +0.449 A 
ATOM     11  C   UNL     1       0.742  -2.155   5.758  0.00  0.00    -0.238 A 
ATOM     12  C   UNL     1       0.144  -2.449   6.989  0.00  0.00    +0.195 A 
ATOM     15  C   UNL     1       0.907  -3.000   8.006  0.00  0.00    +0.033 A 
ATOM     18  C   UNL     1       2.260  -3.261   7.797  0.00  0.00    +0.144 A 
ATOM     21  C   UNL     1       2.855  -2.976   6.576  0.00  0.00    +0.058 A 
ATOM     24  C   UNL     1       2.104  -2.425   5.543  0.00  0.00    +0.162 A 
ATOM     25  O   UNL     1      -1.255  -1.499   4.688  0.00  0.00    -0.414 OA
ATOM     26  O   UNL     1       2.686  -2.164   4.352  0.00  0.00    -0.207 OA
ATOM     27  C   UNL     1       0.147  -0.203   2.563  0.00  0.00    +0.205 A 
ENDROOT
BRANCH   3   2
ATOM      1  C   UNL     1       0.367   2.497   0.821  0.00  0.00    +0.230 C 
ATOM      2  O   UNL     1       0.346   1.090   0.575  0.00  0.00    -0.314 OA
ENDBRANCH   3   2
BRANCH   4   5
ATOM      5  O   UNL     1       3.014   0.458   0.416  0.00  0.00    -0.475 OA
ATOM      6  H   UNL     1       3.429   1.310   0.607  0.00  0.00    +0.401 HD
ENDBRANCH   4   5
BRANCH  12  13
ATOM     13  O   UNL     1      -1.176  -2.195   7.187  0.00  0.00    -0.460 OA
ATOM     14  H   UNL     1      -1.758  -2.931   6.954  0.00  0.00    +0.401 HD
ENDBRANCH  12  13
BRANCH  15  16
ATOM     16  O   UNL     1       0.336  -3.288   9.208  0.00  0.00    -0.311 OA
ATOM     17  C   UNL     1      -0.207  -4.600   9.370  0.00  0.00    +0.233 C 
ENDBRANCH  15  16
BRANCH  18  19
ATOM     19  O   UNL     1       3.004  -3.798   8.800  0.00  0.00    -0.321 OA
ATOM     20  C   UNL     1       3.643  -2.885   9.694  0.00  0.00    +0.255 C 
ENDBRANCH  18  19
BRANCH  21  22
ATOM     22  O   UNL     1       4.178  -3.238   6.388  0.00  0.00    -0.311 OA
ATOM     23  C   UNL     1       4.519  -4.533   5.889  0.00  0.00    +0.238 C 
ENDBRANCH  21  22
BRANCH  27  28
ATOM     28  O   UNL     1      -1.172   0.108   2.650  0.00  0.00    -0.468 OA
ATOM     29  H   UNL     1      -1.754  -0.514   2.193  0.00  0.00    +0.408 HD
ENDBRANCH  27  28
TORSDOF 7
