REMARK  Name = ZINC95485966
REMARK  18 active torsions:
REMARK  status: ('A' for Active; 'I' for Inactive)
REMARK    1  A    between atoms: C1_1  and  C2_2
REMARK    2  A    between atoms: C3_3  and  C28_33
REMARK    3  A    between atoms: C8_8  and  O2_19
REMARK    4  A    between atoms: C10_10  and  O1_18
REMARK    5  A    between atoms: C11_11  and  C12_12
REMARK    6  A    between atoms: C12_12  and  C13_13
REMARK    7  A    between atoms: C13_13  and  C14_14
REMARK    8  A    between atoms: C15_15  and  C16_16
REMARK    9  A    between atoms: C15_15  and  C17_17
REMARK   10  A    between atoms: C21_24  and  C22_26
REMARK   11  A    between atoms: C22_26  and  C23_27
REMARK   12  A    between atoms: C23_27  and  C24_28
REMARK   13  A    between atoms: C25_29  and  C26_30
REMARK   14  A    between atoms: C25_29  and  C27_31
REMARK   15  A    between atoms: C28_33  and  C29_34
REMARK   16  A    between atoms: C29_34  and  C30_35
REMARK   17  A    between atoms: C31_36  and  C32_37
REMARK   18  A    between atoms: C31_36  and  C33_38
REMARK                            x       y       z     vdW  Elec       q    Type
REMARK                         _______ _______ _______ _____ _____    ______ ____
ROOT
ATOM      1  C   UNL     1       4.926  -8.230   2.999  0.00  0.00    +0.099 C 
ATOM      2  C   UNL     1       3.841  -9.165   2.531  0.00  0.00    -0.037 A 
ATOM      3  C   UNL     1       3.083  -8.825   1.449  0.00  0.00    -0.089 A 
ATOM     10  C   UNL     1       2.071  -9.688   1.002  0.00  0.00    +0.012 A 
ATOM     11  C   UNL     1       1.284  -9.362  -0.118  0.00  0.00    +0.017 A 
ATOM     12  C   UNL     1       0.304 -10.202  -0.549  0.00  0.00    -0.016 A 
ATOM     13  C   UNL     1      -0.479  -9.804  -1.776  0.00  0.00    +0.018 C 
ATOM     20  C   UNL     1      -1.745 -10.618  -1.875  0.00  0.00    +0.376 C 
ATOM     21  O   UNL     1      -2.805 -10.094  -2.121  0.00  0.00    -0.430 OA
ATOM     22  C   UNL     1      -1.642 -12.115  -1.657  0.00  0.00    +0.043 C 
ATOM     23  C   UNL     1      -1.026 -12.310  -0.288  0.00  0.00    +0.403 C 
ATOM     24  O   UNL     1      -1.415 -13.195   0.446  0.00  0.00    -0.420 OA
ATOM     25  C   UNL     1       0.052 -11.407   0.134  0.00  0.00    -0.211 A 
ATOM     26  C   UNL     1       0.823 -11.766   1.246  0.00  0.00    +0.216 A 
ATOM     29  C   UNL     1       1.844 -10.906   1.689  0.00  0.00    -0.119 A 
ATOM     30  C   UNL     1       2.643 -11.234   2.802  0.00  0.00    +0.142 A 
ATOM     33  C   UNL     1       3.633 -10.363   3.205  0.00  0.00    -0.108 A 
ENDROOT
BRANCH  26  27
ATOM     27  O   UNL     1       0.586 -12.932   1.892  0.00  0.00    -0.457 OA
ATOM     28  H   UNL     1       1.092 -13.681   1.549  0.00  0.00    +0.393 HD
ENDBRANCH  26  27
BRANCH  30  31
ATOM     31  O   UNL     1       2.443 -12.399   3.469  0.00  0.00    -0.472 OA
ATOM     32  H   UNL     1       2.962 -13.140   3.129  0.00  0.00    +0.386 HD
ENDBRANCH  30  31
BRANCH   3   4
ATOM      4  C   UNL     1       3.333  -7.523   0.735  0.00  0.00    +0.078 C 
BRANCH   4   5
ATOM      5  C   UNL     1       4.382  -7.733  -0.359  0.00  0.00    +0.059 C 
BRANCH   5   6
ATOM      6  C   UNL     1       4.631  -6.430  -1.074  0.00  0.00    -0.061 C 
ATOM      7  C   UNL     1       5.822  -5.886  -1.048  0.00  0.00    -0.127 C 
ATOM      8  C   UNL     1       6.088  -4.617  -1.816  0.00  0.00    +0.071 C 
ATOM      9  C   UNL     1       6.927  -6.530  -0.250  0.00  0.00    +0.071 C 
ENDBRANCH   5   6
ENDBRANCH   4   5
ENDBRANCH   3   4
BRANCH  13  14
ATOM     14  C   UNL     1       0.376 -10.043  -3.022  0.00  0.00    +0.063 C 
BRANCH  14  15
ATOM     15  C   UNL     1      -0.366  -9.525  -4.256  0.00  0.00    +0.047 C 
BRANCH  15  16
ATOM     16  C   UNL     1       0.476  -9.760  -5.483  0.00  0.00    -0.060 C 
ATOM     17  C   UNL     1       0.759  -8.763  -6.285  0.00  0.00    -0.126 C 
ATOM     18  C   UNL     1       1.688  -8.975  -7.452  0.00  0.00    +0.072 C 
ATOM     19  C   UNL     1       0.155  -7.405  -6.039  0.00  0.00    +0.073 C 
ENDBRANCH  15  16
ENDBRANCH  14  15
ENDBRANCH  13  14
BRANCH  33  34
ATOM     34  C   UNL     1       4.495 -10.710   4.391  0.00  0.00    +0.082 C 
BRANCH  34  35
ATOM     35  C   UNL     1       3.846 -10.172   5.668  0.00  0.00    +0.058 C 
BRANCH  35  36
ATOM     36  C   UNL     1       4.708 -10.519   6.855  0.00  0.00    -0.063 C 
ATOM     37  C   UNL     1       4.183 -11.126   7.890  0.00  0.00    -0.127 C 
ATOM     38  C   UNL     1       5.067 -11.602   9.014  0.00  0.00    +0.071 C 
ATOM     39  C   UNL     1       2.694 -11.349   7.958  0.00  0.00    +0.073 C 
ENDBRANCH  35  36
ENDBRANCH  34  35
ENDBRANCH  33  34
TORSDOF 11
