REMARK  Name = ZINC85909641
REMARK  7 active torsions:
REMARK  status: ('A' for Active; 'I' for Inactive)
REMARK    1  A    between atoms: C1_1  and  O1_2
REMARK    2  A    between atoms: O1_2  and  C2_3
REMARK    3  A    between atoms: C3_4  and  C4_5
REMARK    4  A    between atoms: C3_4  and  C21_28
REMARK    5  A    between atoms: C18_24  and  C19_26
REMARK    6  A    between atoms: C21_28  and  O3_30
REMARK    7  A    between atoms: O3_30  and  C22_31
REMARK                            x       y       z     vdW  Elec       q    Type
REMARK                         _______ _______ _______ _____ _____    ______ ____
ROOT
ATOM      9  C   UNL     1       1.323  -2.614  -2.289  0.00  0.00    +0.066 C 
ATOM     10  C   UNL     1       2.486  -3.477  -1.790  0.00  0.00    +0.049 C 
ATOM     11  C   UNL     1       3.118  -4.200  -2.980  0.00  0.00    +0.216 C 
ATOM     12  C   UNL     1       4.253  -5.073  -2.506  0.00  0.00    +0.074 A 
ATOM     13  C   UNL     1       4.445  -6.335  -2.956  0.00  0.00    -0.155 A 
ATOM     14  C   UNL     1       3.553  -7.003  -3.972  0.00  0.00    +0.115 C 
ATOM     15  C   UNL     1       2.701  -5.919  -4.647  0.00  0.00    +0.179 C 
ATOM     16  C   UNL     1       5.616  -6.854  -2.285  0.00  0.00    -0.100 A 
ATOM     17  C   UNL     1       6.282  -8.082  -2.349  0.00  0.00    +0.061 A 
ATOM     18  C   UNL     1       7.389  -8.230  -1.550  0.00  0.00    -0.033 A 
ATOM     19  C   UNL     1       7.836  -7.219  -0.715  0.00  0.00    +0.019 A 
ATOM     20  C   UNL     1       7.197  -5.994  -0.633  0.00  0.00    -0.006 A 
ATOM     21  C   UNL     1       6.070  -5.814  -1.433  0.00  0.00    +0.099 A 
ATOM     22  N   UNL     1       5.223  -4.755  -1.595  0.00  0.00    -0.580 N 
ATOM     23  H   UNL     1       5.297  -3.905  -1.133  0.00  0.00    +0.413 HD
ATOM     24  N   UNL     1       2.105  -5.045  -3.628  0.00  0.00    -0.533 NA
ATOM     25  C   UNL     1       1.008  -4.233  -4.167  0.00  0.00    +0.193 C 
ATOM     26  C   UNL     1       0.310  -3.499  -3.018  0.00  0.00    +0.047 C 
ENDROOT
BRANCH   9   4
ATOM      3  C   UNL     1       0.601  -0.602  -1.047  0.00  0.00    +0.290 C 
ATOM      4  C   UNL     1       0.654  -1.945  -1.116  0.00  0.00    -0.242 C 
BRANCH   3   2
ATOM      1  C   UNL     1      -0.017   1.425   0.010  0.00  0.00    +0.241 C 
ATOM      2  O   UNL     1       0.002  -0.004   0.002  0.00  0.00    -0.282 OA
ENDBRANCH   3   2
BRANCH   4   5
ATOM      5  C   UNL     1       0.080  -2.729  -0.086  0.00  0.00    +0.508 C 
ATOM      8  O   UNL     1      -0.460  -2.189   0.861  0.00  0.00    -0.503 OA
BRANCH   5   6
ATOM      6  O   UNL     1       0.133  -4.076  -0.155  0.00  0.00    -0.347 OA
ATOM      7  C   UNL     1      -0.465  -4.804   0.918  0.00  0.00    +0.246 C 
ENDBRANCH   5   6
ENDBRANCH   4   5
ENDBRANCH   9   4
BRANCH  26  27
ATOM     27  C   UNL     1      -0.800  -2.643  -3.570  0.00  0.00    -0.045 C 
ATOM     28  C   UNL     1      -2.037  -2.846  -3.187  0.00  0.00    +0.012 C 
ENDBRANCH  26  27
TORSDOF 5
