REMARK  Name = ZINC95486017
REMARK  13 active torsions:
REMARK  status: ('A' for Active; 'I' for Inactive)
REMARK    1  A    between atoms: C1_1  and  C2_2
REMARK    2  A    between atoms: C6_6  and  O1_8
REMARK    3  A    between atoms: O1_8  and  C8_9
REMARK    4  A    between atoms: C9_10  and  O4_33
REMARK    5  A    between atoms: C11_12  and  C26_32
REMARK    6  A    between atoms: C12_13  and  C13_14
REMARK    7  A    between atoms: C14_15  and  O3_30
REMARK    8  A    between atoms: C16_17  and  O2_28
REMARK    9  A    between atoms: C20_21  and  C23_27
REMARK   10  A    between atoms: C21_24  and  C22_26
REMARK   11  A    between atoms: O2_28  and  C24_29
REMARK   12  A    between atoms: O3_30  and  C25_31
REMARK   13  A    between atoms: O4_33  and  C27_34
REMARK                            x       y       z     vdW  Elec       q    Type
REMARK                         _______ _______ _______ _____ _____    ______ ____
ROOT
ATOM     16  C   UNL     1       0.012  -2.057  -3.718  0.00  0.00    -0.077 A 
ATOM     17  C   UNL     1      -1.207  -1.726  -4.317  0.00  0.00    +0.210 A 
ATOM     20  C   UNL     1      -1.215  -1.046  -5.522  0.00  0.00    -0.148 A 
ATOM     21  C   UNL     1      -0.018  -0.699  -6.128  0.00  0.00    +0.201 A 
ATOM     24  C   UNL     1       1.199  -1.028  -5.534  0.00  0.00    -0.205 A 
ATOM     25  C   UNL     1       2.471  -0.632  -6.236  0.00  0.00    +0.244 C 
ATOM     26  C   UNL     1       2.744  -1.613  -7.378  0.00  0.00    +0.094 C 
ATOM     27  N   UNL     1       3.600  -0.631  -5.295  0.00  0.00    -0.504 N 
ATOM     28  H   UNL     1       4.457  -0.460  -5.799  0.00  0.00    +0.430 HD
ATOM     29  H   UNL     1       3.468   0.085  -4.598  0.00  0.00    +0.429 HD
ATOM     30  C   UNL     1       3.668  -1.948  -4.642  0.00  0.00    +0.168 C 
ATOM     31  C   UNL     1       4.998  -2.089  -3.899  0.00  0.00    +0.093 C 
ATOM     32  C   UNL     1       2.510  -2.059  -3.649  0.00  0.00    +0.139 C 
ATOM     33  C   UNL     1       1.216  -1.697  -4.331  0.00  0.00    -0.001 A 
ENDROOT
BRANCH  16  15
ATOM      1  C   UNL     1      -0.018   1.503   0.010  0.00  0.00    +0.092 C 
ATOM      2  C   UNL     1       0.002  -0.004   0.002  0.00  0.00    -0.013 A 
ATOM      3  C   UNL     1       0.005  -0.668  -1.188  0.00  0.00    -0.054 A 
ATOM      4  C   UNL     1       0.024  -2.071  -1.207  0.00  0.00    +0.053 A 
ATOM      5  C   UNL     1       0.040  -2.785   0.015  0.00  0.00    -0.109 A 
ATOM      6  C   UNL     1       0.060  -4.194  -0.004  0.00  0.00    +0.190 A 
ATOM      9  C   UNL     1       0.064  -4.864  -1.208  0.00  0.00    -0.114 A 
ATOM     10  C   UNL     1       0.049  -4.169  -2.411  0.00  0.00    +0.005 A 
ATOM     11  C   UNL     1       0.055  -4.931  -3.711  0.00  0.00    +0.093 C 
ATOM     12  C   UNL     1       0.036  -2.073   1.231  0.00  0.00    +0.181 A 
ATOM     15  C   UNL     1       0.029  -2.785  -2.429  0.00  0.00    -0.107 A 
ATOM     34  C   UNL     1       0.023  -0.696   1.209  0.00  0.00    -0.113 A 
BRANCH   6   7
ATOM      7  O   UNL     1       0.075  -4.889   1.162  0.00  0.00    -0.288 OA
ATOM      8  C   UNL     1       0.095  -6.315   1.067  0.00  0.00    +0.245 C 
ENDBRANCH   6   7
BRANCH  12  13
ATOM     13  O   UNL     1       0.050  -2.739   2.414  0.00  0.00    -0.289 OA
ATOM     14  C   UNL     1       0.044  -1.948   3.604  0.00  0.00    +0.244 C 
ENDBRANCH  12  13
ENDBRANCH  16  15
BRANCH  17  18
ATOM     18  O   UNL     1      -2.378  -2.071  -3.720  0.00  0.00    -0.291 OA
ATOM     19  C   UNL     1      -3.583  -1.699  -4.392  0.00  0.00    +0.252 C 
ENDBRANCH  17  18
BRANCH  21  22
ATOM     22  O   UNL     1      -0.030  -0.032  -7.311  0.00  0.00    -0.313 OA
ATOM     23  C   UNL     1      -1.310   0.276  -7.869  0.00  0.00    +0.260 C 
ENDBRANCH  21  22
TORSDOF 5
