REMARK  Name = ZINC13359134
REMARK  12 active torsions:
REMARK  status: ('A' for Active; 'I' for Inactive)
REMARK    1  A    between atoms: C1_1  and  C2_2
REMARK    2  A    between atoms: C5_5  and  C14_16
REMARK    3  A    between atoms: C8_8  and  O2_14
REMARK    4  A    between atoms: C10_10  and  O1_12
REMARK    5  A    between atoms: O1_12  and  C12_13
REMARK    6  A    between atoms: O2_14  and  C13_15
REMARK    7  A    between atoms: C15_17  and  O4_31
REMARK    8  A    between atoms: C17_19  and  O3_29
REMARK    9  A    between atoms: C21_23  and  C24_28
REMARK   10  A    between atoms: C22_26  and  C23_27
REMARK   11  A    between atoms: O3_29  and  C25_30
REMARK   12  A    between atoms: O4_31  and  C26_32
REMARK                            x       y       z     vdW  Elec       q    Type
REMARK                         _______ _______ _______ _____ _____    ______ ____
ROOT
ATOM      6  C   UNL     1       2.420   0.021  -0.022  0.00  0.00    -0.105 A 
ATOM      7  C   UNL     1       1.207  -0.686  -0.014  0.00  0.00    +0.203 A 
ATOM     10  C   UNL     1       0.002  -0.004   0.002  0.00  0.00    -0.169 A 
ATOM     11  C   UNL     1      -0.017   1.383   0.010  0.00  0.00    +0.209 A 
ATOM     14  C   UNL     1       1.189   2.094   0.002  0.00  0.00    -0.187 A 
ATOM     15  C   UNL     1       1.210   3.565   0.012  0.00  0.00    +0.230 C 
ATOM     16  C   UNL     1      -0.007   4.335   0.454  0.00  0.00    +0.138 C 
ATOM     17  N   UNL     1       2.277   4.195  -0.359  0.00  0.00    -0.524 NA
ATOM     18  C   UNL     1       3.475   3.495  -0.810  0.00  0.00    +0.151 C 
ATOM     19  C   UNL     1       4.690   4.404  -0.614  0.00  0.00    +0.052 C 
ATOM     20  C   UNL     1       3.687   2.201  -0.026  0.00  0.00    +0.078 C 
ATOM     21  C   UNL     1       2.407   1.407  -0.015  0.00  0.00    +0.029 A 
ENDROOT
BRANCH   6   5
ATOM      1  C   UNL     1       3.784  -0.725   4.893  0.00  0.00    +0.091 C 
ATOM      2  C   UNL     1       4.405  -1.086   3.568  0.00  0.00    -0.025 A 
ATOM      3  C   UNL     1       3.774  -0.734   2.413  0.00  0.00    -0.031 A 
ATOM      4  C   UNL     1       4.343  -1.065   1.175  0.00  0.00    +0.044 A 
ATOM      5  C   UNL     1       3.708  -0.711  -0.040  0.00  0.00    -0.072 A 
ATOM     22  C   UNL     1       4.300  -1.048  -1.244  0.00  0.00    +0.083 A 
ATOM     23  C   UNL     1       5.508  -1.735  -1.274  0.00  0.00    -0.108 A 
ATOM     24  C   UNL     1       6.145  -2.096  -0.107  0.00  0.00    +0.172 A 
ATOM     27  C   UNL     1       5.570  -1.769   1.137  0.00  0.00    -0.099 A 
ATOM     28  C   UNL     1       6.199  -2.125   2.346  0.00  0.00    +0.170 A 
ATOM     31  C   UNL     1       5.614  -1.774   3.543  0.00  0.00    -0.109 A 
BRANCH  24  25
ATOM     25  O   UNL     1       7.324  -2.768  -0.156  0.00  0.00    -0.291 OA
ATOM     26  C   UNL     1       7.847  -3.067  -1.452  0.00  0.00    +0.238 C 
ENDBRANCH  24  25
BRANCH  28  29
ATOM     29  O   UNL     1       7.379  -2.797   2.332  0.00  0.00    -0.290 OA
ATOM     30  C   UNL     1       7.955  -3.123   3.598  0.00  0.00    +0.237 C 
ENDBRANCH  28  29
ENDBRANCH   6   5
BRANCH   7   8
ATOM      8  O   UNL     1       1.215  -2.043  -0.020  0.00  0.00    -0.298 OA
ATOM      9  C   UNL     1      -0.054  -2.700  -0.009  0.00  0.00    +0.241 C 
ENDBRANCH   7   8
BRANCH  11  12
ATOM     12  O   UNL     1      -1.200   2.047   0.019  0.00  0.00    -0.298 OA
ATOM     13  C   UNL     1      -2.389   1.256   0.020  0.00  0.00    +0.240 C 
ENDBRANCH  11  12
TORSDOF 5
