REMARK  Name = ZINC95486341
REMARK  9 active torsions:
REMARK  status: ('A' for Active; 'I' for Inactive)
REMARK    1  A    between atoms: C3_3  and  O10_36
REMARK    2  A    between atoms: C4_4  and  O9_35
REMARK    3  A    between atoms: C6_6  and  C7_7
REMARK    4  A    between atoms: C8_9  and  C16_22
REMARK    5  A    between atoms: C11_14  and  O4_21
REMARK    6  A    between atoms: C13_16  and  O3_20
REMARK    7  A    between atoms: C17_24  and  O8_34
REMARK    8  A    between atoms: C18_26  and  O7_33
REMARK    9  A    between atoms: C19_28  and  O6_32
REMARK                            x       y       z     vdW  Elec       q    Type
REMARK                         _______ _______ _______ _____ _____    ______ ____
ROOT
ATOM     11  C   UNL     1      -1.294  -0.774   0.010  0.00  0.00    +0.242 C 
ATOM     12  C   UNL     1      -1.850  -0.826   1.441  0.00  0.00    -0.023 C 
ATOM     25  C   UNL     1      -3.167  -1.579   1.384  0.00  0.00    +0.426 C 
ATOM     26  C   UNL     1      -4.036  -1.295   0.236  0.00  0.00    -0.264 A 
ATOM     27  C   UNL     1      -5.368  -1.739   0.220  0.00  0.00    +0.220 A 
ATOM     30  C   UNL     1      -6.162  -1.468  -0.879  0.00  0.00    -0.083 A 
ATOM     31  C   UNL     1      -5.643  -0.761  -1.957  0.00  0.00    +0.190 A 
ATOM     34  C   UNL     1      -4.328  -0.315  -1.944  0.00  0.00    -0.062 A 
ATOM     35  C   UNL     1      -3.516  -0.573  -0.853  0.00  0.00    +0.229 A 
ATOM     36  O   UNL     1      -3.484  -2.375   2.243  0.00  0.00    -0.407 OA
ATOM     37  O   UNL     1      -2.238  -0.125  -0.841  0.00  0.00    -0.285 OA
ENDROOT
BRANCH  11  10
ATOM      1  C   UNL     1      -0.017   1.378   0.010  0.00  0.00    +0.052 A 
ATOM      2  C   UNL     1       1.170   2.089   0.002  0.00  0.00    +0.006 A 
ATOM      3  C   UNL     1       2.380   1.415  -0.013  0.00  0.00    +0.094 A 
ATOM      6  C   UNL     1       2.399   0.024  -0.021  0.00  0.00    +0.084 A 
ATOM      9  C   UNL     1       1.207  -0.682  -0.013  0.00  0.00    +0.028 A 
ATOM     10  C   UNL     1       0.002  -0.004   0.002  0.00  0.00    -0.084 A 
BRANCH   3   4
ATOM      4  O   UNL     1       3.548   2.113  -0.021  0.00  0.00    -0.486 OA
ATOM      5  H   UNL     1       3.894   2.310   0.860  0.00  0.00    +0.391 HD
ENDBRANCH   3   4
BRANCH   6   7
ATOM      7  O   UNL     1       3.585  -0.642  -0.036  0.00  0.00    -0.484 OA
ATOM      8  H   UNL     1       3.937  -0.839   0.843  0.00  0.00    +0.390 HD
ENDBRANCH   6   7
ENDBRANCH  11  10
BRANCH  12  13
ATOM     13  C   UNL     1      -2.082   0.594   1.961  0.00  0.00    +0.203 C 
ATOM     14  C   UNL     1      -2.518   0.535   3.428  0.00  0.00    +0.165 C 
ATOM     17  C   UNL     1      -2.806   1.956   3.924  0.00  0.00    +0.152 C 
ATOM     20  C   UNL     1      -3.872   2.592   3.026  0.00  0.00    +0.123 C 
ATOM     23  C   UNL     1      -3.384   2.571   1.575  0.00  0.00    +0.196 C 
ATOM     24  O   UNL     1      -3.104   1.224   1.187  0.00  0.00    -0.343 OA
BRANCH  14  15
ATOM     15  O   UNL     1      -3.698  -0.261   3.544  0.00  0.00    -0.540 OA
ATOM     16  H   UNL     1      -4.031  -0.342   4.448  0.00  0.00    +0.387 HD
ENDBRANCH  14  15
BRANCH  17  18
ATOM     18  O   UNL     1      -3.282   1.904   5.270  0.00  0.00    -0.560 OA
ATOM     19  H   UNL     1      -3.485   2.771   5.649  0.00  0.00    +0.392 HD
ENDBRANCH  17  18
BRANCH  20  21
ATOM     21  O   UNL     1      -4.098   3.942   3.436  0.00  0.00    -0.564 OA
ATOM     22  H   UNL     1      -4.762   4.407   2.909  0.00  0.00    +0.387 HD
ENDBRANCH  20  21
ENDBRANCH  12  13
BRANCH  27  28
ATOM     28  O   UNL     1      -5.872  -2.427   1.274  0.00  0.00    -0.476 OA
ATOM     29  H   UNL     1      -6.275  -1.868   1.953  0.00  0.00    +0.399 HD
ENDBRANCH  27  28
BRANCH  31  32
ATOM     32  O   UNL     1      -6.428  -0.504  -3.033  0.00  0.00    -0.492 OA
ATOM     33  H   UNL     1      -6.917   0.329  -2.973  0.00  0.00    +0.399 HD
ENDBRANCH  31  32
TORSDOF 9
