REMARK  Name = ZINC13359177
REMARK  10 active torsions:
REMARK  status: ('A' for Active; 'I' for Inactive)
REMARK    1  A    between atoms: C1_1  and  C2_2
REMARK    2  A    between atoms: C5_5  and  C13_15
REMARK    3  A    between atoms: C8_8  and  O2_13
REMARK    4  A    between atoms: C10_10  and  O1_12
REMARK    5  A    between atoms: O2_13  and  C12_14
REMARK    6  A    between atoms: C14_16  and  O4_30
REMARK    7  A    between atoms: C16_18  and  O3_28
REMARK    8  A    between atoms: C20_22  and  C23_27
REMARK    9  A    between atoms: C21_25  and  C22_26
REMARK   10  A    between atoms: O3_28  and  C24_29
REMARK                            x       y       z     vdW  Elec       q    Type
REMARK                         _______ _______ _______ _____ _____    ______ ____
ROOT
ATOM      6  C   UNL     1       0.111  -1.635  -3.626  0.00  0.00    -0.103 A 
ATOM      7  C   UNL     1       1.261  -1.065  -4.197  0.00  0.00    +0.182 A 
ATOM     10  C   UNL     1       1.177  -0.381  -5.398  0.00  0.00    -0.103 A 
ATOM     11  C   UNL     1      -0.042  -0.254  -6.047  0.00  0.00    +0.187 A 
ATOM     14  C   UNL     1      -1.191  -0.820  -5.484  0.00  0.00    -0.158 A 
ATOM     15  C   UNL     1      -2.502  -0.708  -6.144  0.00  0.00    +0.227 C 
ATOM     16  C   UNL     1      -2.584  -0.368  -7.609  0.00  0.00    +0.139 C 
ATOM     17  N   UNL     1      -3.582  -0.916  -5.469  0.00  0.00    -0.518 NA
ATOM     18  C   UNL     1      -3.558  -1.232  -4.045  0.00  0.00    +0.151 C 
ATOM     19  C   UNL     1      -4.849  -1.964  -3.673  0.00  0.00    +0.053 C 
ATOM     20  C   UNL     1      -2.363  -2.116  -3.695  0.00  0.00    +0.076 C 
ATOM     21  C   UNL     1      -1.108  -1.515  -4.273  0.00  0.00    +0.007 A 
ENDROOT
BRANCH   6   5
ATOM      1  C   UNL     1      -0.681   1.817   0.120  0.00  0.00    +0.095 C 
ATOM      2  C   UNL     1      -0.400   0.337   0.103  0.00  0.00    -0.050 A 
ATOM      3  C   UNL     1      -0.235  -0.301  -1.089  0.00  0.00    +0.003 A 
ATOM      4  C   UNL     1       0.027  -1.679  -1.116  0.00  0.00    +0.022 A 
ATOM      5  C   UNL     1       0.203  -2.366  -2.341  0.00  0.00    -0.069 A 
ATOM     22  C   UNL     1       0.461  -3.725  -2.331  0.00  0.00    +0.070 A 
ATOM     23  C   UNL     1       0.548  -4.423  -1.132  0.00  0.00    -0.098 A 
ATOM     24  C   UNL     1       0.382  -3.779   0.075  0.00  0.00    +0.162 A 
ATOM     27  C   UNL     1       0.118  -2.395   0.101  0.00  0.00    -0.102 A 
ATOM     28  C   UNL     1      -0.057  -1.711   1.320  0.00  0.00    +0.146 A 
ATOM     31  C   UNL     1      -0.308  -0.356   1.306  0.00  0.00    -0.026 A 
BRANCH  24  25
ATOM     25  O   UNL     1       0.470  -4.478   1.236  0.00  0.00    -0.295 OA
ATOM     26  C   UNL     1       0.739  -5.877   1.133  0.00  0.00    +0.240 C 
ENDBRANCH  24  25
BRANCH  28  29
ATOM     29  O   UNL     1       0.026  -2.380   2.499  0.00  0.00    -0.480 OA
ATOM     30  H   UNL     1       0.918  -2.409   2.872  0.00  0.00    +0.391 HD
ENDBRANCH  28  29
ENDBRANCH   6   5
BRANCH   7   8
ATOM      8  O   UNL     1       2.458  -1.184  -3.569  0.00  0.00    -0.487 OA
ATOM      9  H   UNL     1       2.959  -1.970  -3.825  0.00  0.00    +0.395 HD
ENDBRANCH   7   8
BRANCH  11  12
ATOM     12  O   UNL     1      -0.120   0.418  -7.223  0.00  0.00    -0.299 OA
ATOM     13  C   UNL     1       1.094   0.969  -7.738  0.00  0.00    +0.243 C 
ENDBRANCH  11  12
TORSDOF 5
