REMARK  Name = ZINC95486025
REMARK  8 active torsions:
REMARK  status: ('A' for Active; 'I' for Inactive)
REMARK    1  A    between atoms: C1_1  and  C2_2
REMARK    2  A    between atoms: C2_2  and  N1_3
REMARK    3  A    between atoms: C13_17  and  C14_19
REMARK    4  A    between atoms: C14_19  and  C15_20
REMARK    5  A    between atoms: C15_20  and  C16_21
REMARK    6  A    between atoms: C16_21  and  C17_22
REMARK    7  A    between atoms: C24_30  and  O1_36
REMARK    8  A    between atoms: N4_34  and  C28_35
REMARK                            x       y       z     vdW  Elec       q    Type
REMARK                         _______ _______ _______ _____ _____    ______ ____
ROOT
ATOM     19  C   UNL     1       0.557  -2.118   1.461  0.00  0.00    +0.017 C 
ENDROOT
BRANCH  19  18
ATOM     18  C   UNL     1       1.492  -2.380   0.278  0.00  0.00    +0.080 C 
BRANCH  18  17
ATOM      3  N   UNL     1      -0.481  -2.671  -1.174  0.00  0.00    -0.382 N 
ATOM      4  H   UNL     1      -1.067  -2.466  -0.379  0.00  0.00    +0.413 HD
ATOM      5  C   UNL     1      -1.194  -2.293  -2.393  0.00  0.00    +0.257 C 
ATOM      6  C   UNL     1      -1.448  -0.777  -2.481  0.00  0.00    +0.093 C 
ATOM      7  C   UNL     1      -0.100  -0.107  -2.368  0.00  0.00    +0.031 C 
ATOM      8  C   UNL     1       0.029   1.364  -2.342  0.00  0.00    -0.156 A 
ATOM      9  C   UNL     1      -0.606   2.365  -3.049  0.00  0.00    +0.078 A 
ATOM     10  C   UNL     1      -0.243   3.676  -2.770  0.00  0.00    -0.015 A 
ATOM     11  C   UNL     1       0.717   3.975  -1.824  0.00  0.00    +0.057 A 
ATOM     12  C   UNL     1       1.367   2.982  -1.108  0.00  0.00    -0.020 A 
ATOM     13  C   UNL     1       1.015   1.663  -1.377  0.00  0.00    +0.165 A 
ATOM     14  N   UNL     1       1.526   0.487  -0.805  0.00  0.00    -0.739 N 
ATOM     15  H   UNL     1       2.392   0.362  -0.387  0.00  0.00    +0.423 HD
ATOM     16  C   UNL     1       0.464  -0.481  -0.967  0.00  0.00    +0.204 C 
ATOM     17  C   UNL     1       0.804  -1.952  -1.020  0.00  0.00    +0.188 C 
BRANCH   3   2
ATOM      1  C   UNL     1      -1.542  -4.878  -1.223  0.00  0.00    +0.085 C 
ATOM      2  C   UNL     1      -0.216  -4.116  -1.208  0.00  0.00    +0.245 C 
ENDBRANCH   3   2
ENDBRANCH  18  17
ENDBRANCH  19  18
BRANCH  19  20
ATOM     20  C   UNL     1       1.290  -2.426   2.768  0.00  0.00    +0.134 C 
BRANCH  20  21
ATOM     21  C   UNL     1       0.369  -2.168   3.933  0.00  0.00    +0.132 A 
ATOM     22  C   UNL     1      -0.509  -3.161   4.350  0.00  0.00    +0.126 A 
ATOM     23  C   UNL     1      -1.356  -2.893   5.440  0.00  0.00    +0.008 A 
ATOM     24  C   UNL     1      -2.163  -4.104   5.654  0.00  0.00    -0.109 A 
ATOM     25  C   UNL     1      -3.160  -4.445   6.566  0.00  0.00    +0.079 A 
ATOM     26  C   UNL     1      -3.743  -5.697   6.510  0.00  0.00    +0.109 A 
ATOM     29  C   UNL     1      -3.337  -6.614   5.546  0.00  0.00    +0.088 A 
ATOM     30  C   UNL     1      -2.353  -6.286   4.640  0.00  0.00    +0.027 A 
ATOM     31  C   UNL     1      -1.755  -5.030   4.682  0.00  0.00    +0.148 A 
ATOM     32  C   UNL     1      -1.281  -1.644   6.057  0.00  0.00    +0.129 A 
ATOM     33  C   UNL     1      -0.378  -0.720   5.574  0.00  0.00    +0.300 A 
ATOM     34  N   UNL     1      -0.763  -4.446   3.910  0.00  0.00    -0.478 N 
ATOM     35  C   UNL     1      -0.081  -5.097   2.789  0.00  0.00    +0.334 C 
ATOM     36  N   UNL     1       0.407  -1.006   4.551  0.00  0.00    -0.420 N 
ATOM     37  H   UNL     1       1.033  -0.332   4.240  0.00  0.00    +0.451 HD
BRANCH  26  27
ATOM     27  O   UNL     1      -4.716  -6.032   7.399  0.00  0.00    -0.486 OA
ATOM     28  H   UNL     1      -5.611  -5.818   7.102  0.00  0.00    +0.405 HD
ENDBRANCH  26  27
ENDBRANCH  20  21
ENDBRANCH  19  20
TORSDOF 6
