REMARK  Name = ZINC95486248
REMARK  7 active torsions:
REMARK  status: ('A' for Active; 'I' for Inactive)
REMARK    1  A    between atoms: C1_1  and  C2_2
REMARK    2  A    between atoms: C6_8  and  C18_33
REMARK    3  A    between atoms: C7_10  and  O5_25
REMARK    4  A    between atoms: O5_25  and  C14_26
REMARK    5  A    between atoms: C14_26  and  C15_28
REMARK    6  A    between atoms: C15_28  and  C16_29
REMARK    7  A    between atoms: C16_29  and  C17_30
REMARK                            x       y       z     vdW  Elec       q    Type
REMARK                         _______ _______ _______ _____ _____    ______ ____
ROOT
ATOM      1  C   UNL     1      -0.019   1.526   0.010  0.00  0.00    +0.031 C 
ATOM      2  C   UNL     1       0.002  -0.004   0.002  0.00  0.00    -0.017 C 
ATOM      3  C   UNL     1      -1.436  -0.544   0.033  0.00  0.00    +0.021 C 
ATOM      4  C   UNL     1      -1.439  -2.068   0.117  0.00  0.00    +0.043 C 
ATOM      5  C   UNL     1      -0.640  -2.555   1.335  0.00  0.00    +0.046 C 
ATOM      6  C   UNL     1      -0.665  -4.084   1.369  0.00  0.00    -0.010 C 
ATOM      7  C   UNL     1      -2.043  -4.582   0.931  0.00  0.00    +0.056 C 
ATOM      8  C   UNL     1       0.403  -4.625   0.416  0.00  0.00    +0.338 C 
ATOM     17  O   UNL     1       0.612  -3.684  -0.637  0.00  0.00    -0.360 OA
ATOM     18  C   UNL     1       1.284  -2.490  -0.235  0.00  0.00    +0.369 C 
ATOM     19  O   UNL     1       2.690  -2.743  -0.224  0.00  0.00    -0.381 OA
ATOM     20  C   UNL     1       3.432  -1.824   0.646  0.00  0.00    +0.371 C 
ATOM     21  O   UNL     1       3.071  -2.113   2.005  0.00  0.00    -0.207 OA
ATOM     22  O   UNL     1       1.671  -2.552   2.165  0.00  0.00    -0.159 OA
ATOM     23  C   UNL     1       3.030  -0.374   0.339  0.00  0.00    -0.001 C 
ATOM     24  C   UNL     1       2.096   0.080   1.478  0.00  0.00    +0.047 C 
ATOM     25  C   UNL     1       0.801  -2.052   1.167  0.00  0.00    +0.015 C 
ATOM     26  C   UNL     1       0.718  -0.515   1.238  0.00  0.00    -0.013 C 
ENDROOT
BRANCH   8   9
ATOM      9  O   UNL     1      -0.035  -5.870  -0.133  0.00  0.00    -0.335 OA
BRANCH   9  10
ATOM     10  C   UNL     1       0.868  -6.580  -0.827  0.00  0.00    +0.455 C 
ATOM     16  O   UNL     1       1.992  -6.159  -0.964  0.00  0.00    -0.491 OA
BRANCH  10  11
ATOM     11  C   UNL     1       0.479  -7.902  -1.436  0.00  0.00    +0.126 C 
BRANCH  11  12
ATOM     12  C   UNL     1       1.683  -8.501  -2.167  0.00  0.00    -0.040 C 
BRANCH  12  13
ATOM     13  C   UNL     1       1.295  -9.823  -2.776  0.00  0.00    +0.494 C 
ATOM     14  O   UNL     1       2.115 -10.469  -3.406  0.00  0.00    -0.699 OA
ATOM     15  O   UNL     1       0.160 -10.248  -2.638  0.00  0.00    -0.699 OA
ENDBRANCH  12  13
ENDBRANCH  11  12
ENDBRANCH  10  11
ENDBRANCH   9  10
ENDBRANCH   8   9
TORSDOF 5
