REMARK  Name = ZINC05430812
REMARK  13 active torsions:
REMARK  status: ('A' for Active; 'I' for Inactive)
REMARK    1  A    between atoms: C1_1  and  C2_2
REMARK    2  A    between atoms: C2_2  and  C24_30
REMARK    3  A    between atoms: C3_3  and  C4_4
REMARK    4  A    between atoms: C4_4  and  C5_5
REMARK    5  A    between atoms: C6_6  and  O6_29
REMARK    6  A    between atoms: C10_10  and  O1_11
REMARK    7  A    between atoms: C15_18  and  O5_28
REMARK    8  A    between atoms: C16_19  and  O4_26
REMARK    9  A    between atoms: C17_20  and  C18_21
REMARK   10  A    between atoms: C18_21  and  C19_22
REMARK   11  A    between atoms: C20_23  and  C21_24
REMARK   12  A    between atoms: C20_23  and  C22_25
REMARK   13  A    between atoms: O4_26  and  C23_27
REMARK                            x       y       z     vdW  Elec       q    Type
REMARK                         _______ _______ _______ _____ _____    ______ ____
ROOT
ATOM      6  C   UNL     1      -0.864  -0.562   3.381  0.00  0.00    -0.161 A 
ATOM      7  C   UNL     1      -2.186  -0.132   3.400  0.00  0.00    +0.197 A 
ATOM     10  C   UNL     1      -3.106  -0.708   4.262  0.00  0.00    -0.028 A 
ATOM     11  C   UNL     1      -2.717  -1.727   5.120  0.00  0.00    +0.186 A 
ATOM     12  C   UNL     1      -1.383  -2.169   5.093  0.00  0.00    -0.263 A 
ATOM     13  C   UNL     1      -0.988  -3.268   5.992  0.00  0.00    +0.442 A 
ATOM     14  C   UNL     1      -2.094  -4.002   6.640  0.00  0.00    -0.222 A 
ATOM     15  C   UNL     1      -3.386  -3.454   6.581  0.00  0.00    +0.173 A 
ATOM     16  C   UNL     1      -4.438  -4.140   7.175  0.00  0.00    -0.012 A 
ATOM     17  C   UNL     1      -4.207  -5.341   7.821  0.00  0.00    +0.162 A 
ATOM     20  C   UNL     1      -2.920  -5.879   7.885  0.00  0.00    +0.042 A 
ATOM     23  C   UNL     1      -1.865  -5.212   7.296  0.00  0.00    +0.015 A 
ATOM     29  O   UNL     1       0.180  -3.553   6.190  0.00  0.00    -0.421 OA
ATOM     30  O   UNL     1      -3.615  -2.276   5.963  0.00  0.00    -0.221 OA
ATOM     31  C   UNL     1      -0.457  -1.581   4.221  0.00  0.00    +0.221 A 
ENDROOT
BRANCH   7   8
ATOM      8  O   UNL     1      -2.580   0.863   2.565  0.00  0.00    -0.484 OA
ATOM      9  H   UNL     1      -2.898   0.553   1.706  0.00  0.00    +0.401 HD
ENDBRANCH   7   8
BRANCH  17  18
ATOM     18  O   UNL     1      -5.242  -6.004   8.399  0.00  0.00    -0.477 OA
ATOM     19  H   UNL     1      -5.686  -6.630   7.810  0.00  0.00    +0.397 HD
ENDBRANCH  17  18
BRANCH  20  21
ATOM     21  O   UNL     1      -2.706  -7.059   8.527  0.00  0.00    -0.312 OA
ATOM     22  C   UNL     1      -2.813  -8.251   7.746  0.00  0.00    +0.221 C 
ENDBRANCH  20  21
BRANCH  31  32
ATOM     32  O   UNL     1       0.832  -2.006   4.206  0.00  0.00    -0.472 OA
ATOM     33  H   UNL     1       1.409  -1.536   4.823  0.00  0.00    +0.403 HD
ENDBRANCH  31  32
BRANCH   6   5
ATOM      5  C   UNL     1       0.123   0.078   2.439  0.00  0.00    +0.132 C 
BRANCH   5   4
ATOM      1  C   UNL     1      -0.172   1.491   0.017  0.00  0.00    +0.076 C 
ATOM      2  C   UNL     1      -0.071  -0.013   0.007  0.00  0.00    -0.128 C 
ATOM      3  C   UNL     1      -0.191  -0.767  -1.292  0.00  0.00    +0.073 C 
ATOM      4  C   UNL     1       0.121  -0.664   1.128  0.00  0.00    -0.053 C 
ENDBRANCH   5   4
ENDBRANCH   6   5
BRANCH  23  24
ATOM     24  C   UNL     1      -0.474  -5.788   7.359  0.00  0.00    +0.128 C 
BRANCH  24  25
ATOM     25  C   UNL     1       0.225  -5.279   8.594  0.00  0.00    -0.036 C 
ATOM     26  C   UNL     1       0.736  -6.125   9.453  0.00  0.00    -0.126 C 
ATOM     27  C   UNL     1       1.434  -5.615  10.688  0.00  0.00    +0.073 C 
ATOM     28  C   UNL     1       0.626  -7.607   9.207  0.00  0.00    +0.073 C 
ENDBRANCH  24  25
ENDBRANCH  23  24
TORSDOF 8
