REMARK  Name = ZINC95486137
REMARK  5 active torsions:
REMARK  status: ('A' for Active; 'I' for Inactive)
REMARK    1  A    between atoms: C1_1  and  O1_2
REMARK    2  A    between atoms: O1_2  and  C2_3
REMARK    3  A    between atoms: C5_6  and  O7_24
REMARK    4  A    between atoms: C6_7  and  C8_9
REMARK    5  A    between atoms: C14_16  and  O4_20
REMARK                            x       y       z     vdW  Elec       q    Type
REMARK                         _______ _______ _______ _____ _____    ______ ____
ROOT
ATOM     10  C   UNL     1      -2.549  -4.151   0.016  0.00  0.00    -0.230 A 
ATOM     11  C   UNL     1      -2.273  -4.862   1.141  0.00  0.00    +0.341 A 
ATOM     12  O   UNL     1      -2.332  -6.195   1.185  0.00  0.00    -0.207 OA
ATOM     13  C   UNL     1      -2.363  -6.941   0.062  0.00  0.00    +0.175 A 
ATOM     14  C   UNL     1      -2.102  -8.302   0.113  0.00  0.00    +0.025 A 
ATOM     15  C   UNL     1      -2.144  -9.066  -1.043  0.00  0.00    +0.120 A 
ATOM     16  C   UNL     1      -2.452  -8.477  -2.270  0.00  0.00    -0.025 A 
ATOM     17  O   UNL     1      -2.429  -9.444  -3.236  0.00  0.00    -0.293 OA
ATOM     18  C   UNL     1      -1.703 -10.545  -2.658  0.00  0.00    +0.445 C 
ATOM     19  C   UNL     1      -2.714  -7.119  -2.342  0.00  0.00    +0.219 A 
ATOM     22  O   UNL     1      -1.927 -10.399  -1.244  0.00  0.00    -0.295 OA
ATOM     23  C   UNL     1      -2.663  -6.346  -1.177  0.00  0.00    -0.243 A 
ATOM     24  C   UNL     1      -2.918  -4.894  -1.205  0.00  0.00    +0.443 A 
ATOM     25  O   UNL     1      -3.399  -4.340  -2.178  0.00  0.00    -0.440 OA
ENDROOT
BRANCH  10   9
ATOM      3  C   UNL     1      -1.201  -0.638   0.010  0.00  0.00    +0.121 A 
ATOM      4  C   UNL     1      -2.374   0.103   0.020  0.00  0.00    -0.049 A 
ATOM      5  C   UNL     1      -3.601  -0.534   0.028  0.00  0.00    +0.033 A 
ATOM      6  C   UNL     1      -3.665  -1.918   0.027  0.00  0.00    +0.098 A 
ATOM      9  C   UNL     1      -2.486  -2.669   0.017  0.00  0.00    -0.016 A 
ATOM     26  C   UNL     1      -1.253  -2.022   0.003  0.00  0.00    +0.016 A 
BRANCH   3   2
ATOM      1  C   UNL     1      -0.017   1.425   0.010  0.00  0.00    +0.243 C 
ATOM      2  O   UNL     1       0.002  -0.004   0.002  0.00  0.00    -0.316 OA
ENDBRANCH   3   2
BRANCH   6   7
ATOM      7  O   UNL     1      -4.872  -2.544   0.036  0.00  0.00    -0.492 OA
ATOM      8  H   UNL     1      -5.228  -2.724  -0.845  0.00  0.00    +0.391 HD
ENDBRANCH   6   7
ENDBRANCH  10   9
BRANCH  19  20
ATOM     20  O   UNL     1      -3.018  -6.543  -3.534  0.00  0.00    -0.466 OA
ATOM     21  H   UNL     1      -3.963  -6.534  -3.736  0.00  0.00    +0.404 HD
ENDBRANCH  19  20
TORSDOF 4
