REMARK  Name = ZINC85594516
REMARK  9 active torsions:
REMARK  status: ('A' for Active; 'I' for Inactive)
REMARK    1  A    between atoms: C1_1  and  C2_2
REMARK    2  A    between atoms: C6_6  and  O1_8
REMARK    3  A    between atoms: C14_16  and  O3_17
REMARK    4  A    between atoms: C15_18  and  C16_19
REMARK    5  A    between atoms: C15_18  and  O9_39
REMARK    6  A    between atoms: C21_24  and  O4_25
REMARK    7  A    between atoms: C24_29  and  O8_38
REMARK    8  A    between atoms: C26_31  and  C30_37
REMARK    9  A    between atoms: C27_32  and  O7_36
REMARK                            x       y       z     vdW  Elec       q    Type
REMARK                         _______ _______ _______ _____ _____    ______ ____
ROOT
ATOM     22  C   UNL     1       1.434  -2.683  -3.127  0.00  0.00    -0.126 A 
ATOM     23  C   UNL     1       1.650  -2.055  -4.336  0.00  0.00    +0.079 A 
ATOM     24  C   UNL     1       2.926  -1.974  -4.869  0.00  0.00    +0.079 A 
ATOM     25  C   UNL     1       4.003  -2.530  -4.186  0.00  0.00    -0.098 A 
ATOM     26  C   UNL     1       3.790  -3.172  -2.952  0.00  0.00    -0.145 A 
ATOM     27  C   UNL     1       4.925  -3.764  -2.222  0.00  0.00    +0.429 C 
ATOM     28  C   UNL     1       6.285  -3.682  -2.785  0.00  0.00    -0.142 A 
ATOM     29  C   UNL     1       7.366  -4.240  -2.100  0.00  0.00    +0.160 A 
ATOM     32  C   UNL     1       8.648  -4.158  -2.641  0.00  0.00    +0.036 A 
ATOM     33  C   UNL     1       8.858  -3.529  -3.848  0.00  0.00    -0.074 A 
ATOM     34  C   UNL     1      10.251  -3.449  -4.418  0.00  0.00    +0.120 C 
ATOM     35  C   UNL     1       7.792  -2.966  -4.547  0.00  0.00    +0.153 A 
ATOM     38  C   UNL     1       6.500  -3.039  -4.021  0.00  0.00    -0.136 A 
ATOM     39  O   UNL     1       4.741  -4.319  -1.155  0.00  0.00    -0.393 OA
ATOM     40  C   UNL     1       5.365  -2.448  -4.752  0.00  0.00    +0.435 C 
ATOM     41  O   UNL     1       5.550  -1.893  -5.818  0.00  0.00    -0.408 OA
ATOM     42  C   UNL     1       2.497  -3.240  -2.423  0.00  0.00    +0.182 A 
ENDROOT
BRANCH  22  19
ATOM      1  C   UNL     1      -0.018   1.503   0.010  0.00  0.00    +0.103 C 
ATOM      2  C   UNL     1       0.002  -0.004   0.002  0.00  0.00    -0.045 A 
ATOM      3  C   UNL     1       0.006  -0.683  -1.204  0.00  0.00    +0.027 A 
ATOM      4  C   UNL     1       0.021  -2.066  -1.234  0.00  0.00    -0.013 A 
ATOM      5  C   UNL     1       0.027  -2.768  -0.029  0.00  0.00    -0.157 A 
ATOM      6  C   UNL     1       0.019  -4.245  -0.044  0.00  0.00    +0.444 C 
ATOM      7  C   UNL     1      -0.369  -4.920  -1.300  0.00  0.00    -0.177 A 
ATOM      8  C   UNL     1      -0.371  -4.202  -2.496  0.00  0.00    -0.057 A 
ATOM      9  C   UNL     1      -0.749  -4.843  -3.663  0.00  0.00    +0.000 A 
ATOM     10  C   UNL     1      -1.112  -6.178  -3.647  0.00  0.00    +0.071 A 
ATOM     11  C   UNL     1      -1.105  -6.896  -2.467  0.00  0.00    -0.007 A 
ATOM     12  C   UNL     1      -0.733  -6.272  -1.284  0.00  0.00    +0.168 A 
ATOM     15  O   UNL     1       0.321  -4.886   0.945  0.00  0.00    -0.410 OA
ATOM     16  C   UNL     1       0.030  -2.082   1.192  0.00  0.00    +0.167 A 
ATOM     19  C   UNL     1       0.039  -2.762  -2.561  0.00  0.00    +0.272 C 
ATOM     45  C   UNL     1       0.023  -0.694   1.198  0.00  0.00    -0.011 A 
BRANCH  12  13
ATOM     13  O   UNL     1      -0.724  -6.968  -0.120  0.00  0.00    -0.476 OA
ATOM     14  H   UNL     1      -1.563  -6.941   0.361  0.00  0.00    +0.399 HD
ENDBRANCH  12  13
BRANCH  16  17
ATOM     17  O   UNL     1       0.044  -2.769   2.361  0.00  0.00    -0.483 OA
ATOM     18  H   UNL     1       0.932  -2.960   2.694  0.00  0.00    +0.400 HD
ENDBRANCH  16  17
BRANCH  19  20
ATOM     20  O   UNL     1      -0.847  -2.075  -3.448  0.00  0.00    -0.530 OA
ATOM     21  H   UNL     1      -0.895  -2.462  -4.333  0.00  0.00    +0.382 HD
ENDBRANCH  19  20
ENDBRANCH  22  19
BRANCH  29  30
ATOM     30  O   UNL     1       7.170  -4.860  -0.910  0.00  0.00    -0.473 OA
ATOM     31  H   UNL     1       6.984  -5.806  -0.986  0.00  0.00    +0.399 HD
ENDBRANCH  29  30
BRANCH  35  36
ATOM     36  O   UNL     1       8.008  -2.349  -5.734  0.00  0.00    -0.470 OA
ATOM     37  H   UNL     1       7.942  -2.935  -6.500  0.00  0.00    +0.398 HD
ENDBRANCH  35  36
BRANCH  42  43
ATOM     43  O   UNL     1       2.281  -3.852  -1.233  0.00  0.00    -0.465 OA
ATOM     44  H   UNL     1       2.091  -4.798  -1.305  0.00  0.00    +0.393 HD
ENDBRANCH  42  43
TORSDOF 7
