REMARK  Name = ZINC00056792
REMARK  8 active torsions:
REMARK  status: ('A' for Active; 'I' for Inactive)
REMARK    1  A    between atoms: C1_1  and  N1_2
REMARK    2  A    between atoms: C6_7  and  O4_25
REMARK    3  A    between atoms: C7_8  and  O3_23
REMARK    4  A    between atoms: C14_16  and  O2_22
REMARK    5  A    between atoms: C15_17  and  O1_20
REMARK    6  A    between atoms: O1_20  and  C18_21
REMARK    7  A    between atoms: O3_23  and  C19_24
REMARK    8  A    between atoms: O4_25  and  C20_26
REMARK                            x       y       z     vdW  Elec       q    Type
REMARK                         _______ _______ _______ _____ _____    ______ ____
ROOT
ATOM      1  C   UNL     1       0.716   1.502  -0.070  0.00  0.00    +0.328 C 
ATOM      2  N   UNL     1       0.469   0.054  -0.024  0.00  0.00    -0.382 N 
ATOM      3  H   UNL     1      -0.517  -0.115   0.101  0.00  0.00    +0.426 HD
ATOM      4  C   UNL     1       0.912  -0.555  -1.279  0.00  0.00    +0.267 C 
ATOM      5  C   UNL     1       0.499  -2.016  -1.345  0.00  0.00    +0.124 C 
ATOM      6  C   UNL     1       0.643  -2.706  -0.018  0.00  0.00    -0.049 A 
ATOM      7  C   UNL     1       0.439  -4.080   0.033  0.00  0.00    -0.051 A 
ATOM      8  C   UNL     1       0.584  -4.775   1.220  0.00  0.00    +0.138 A 
ATOM     11  C   UNL     1       0.932  -4.093   2.380  0.00  0.00    +0.082 A 
ATOM     14  C   UNL     1       1.115  -2.713   2.336  0.00  0.00    +0.009 A 
ATOM     15  C   UNL     1       1.485  -1.966   3.562  0.00  0.00    -0.045 A 
ATOM     16  C   UNL     1       1.996  -2.632   4.675  0.00  0.00    +0.102 A 
ATOM     19  C   UNL     1       2.351  -1.905   5.806  0.00  0.00    +0.111 A 
ATOM     22  C   UNL     1       2.196  -0.528   5.820  0.00  0.00    -0.042 A 
ATOM     23  C   UNL     1       1.681   0.130   4.716  0.00  0.00    +0.060 A 
ATOM     24  C   UNL     1       1.319  -0.583   3.592  0.00  0.00    -0.107 A 
ATOM     25  C   UNL     1       0.740   0.122   2.396  0.00  0.00    +0.113 C 
ATOM     26  C   UNL     1       0.976  -2.020   1.130  0.00  0.00    -0.152 A 
ATOM     27  C   UNL     1       1.213  -0.533   1.099  0.00  0.00    +0.241 C 
ENDROOT
BRANCH   8   9
ATOM      9  O   UNL     1       0.384  -6.120   1.252  0.00  0.00    -0.296 OA
ATOM     10  C   UNL     1       0.028  -6.753   0.021  0.00  0.00    +0.253 C 
ENDBRANCH   8   9
BRANCH  11  12
ATOM     12  O   UNL     1       1.093  -4.768   3.549  0.00  0.00    -0.252 OA
ATOM     13  C   UNL     1      -0.088  -5.051   4.303  0.00  0.00    +0.213 C 
ENDBRANCH  11  12
BRANCH  16  17
ATOM     17  O   UNL     1       2.147  -3.983   4.655  0.00  0.00    -0.413 OA
ATOM     18  H   UNL     1       3.035  -4.277   4.412  0.00  0.00    +0.373 HD
ENDBRANCH  16  17
BRANCH  19  20
ATOM     20  O   UNL     1       2.850  -2.544   6.898  0.00  0.00    -0.302 OA
ATOM     21  C   UNL     1       3.193  -1.734   8.024  0.00  0.00    +0.250 C 
ENDBRANCH  19  20
TORSDOF 4
