REMARK  Name = ZINC95485957
REMARK  6 active torsions:
REMARK  status: ('A' for Active; 'I' for Inactive)
REMARK    1  A    between atoms: C1_1  and  C2_2
REMARK    2  A    between atoms: C9_9  and  O4_17
REMARK    3  A    between atoms: C10_10  and  O3_15
REMARK    4  A    between atoms: O3_15  and  C13_16
REMARK    5  A    between atoms: C16_22  and  O7_23
REMARK    6  A    between atoms: O7_23  and  C17_24
REMARK                            x       y       z     vdW  Elec       q    Type
REMARK                         _______ _______ _______ _____ _____    ______ ____
ROOT
ATOM      1  C   UNL     1      -0.018   1.503   0.010  0.00  0.00    +0.130 C 
ATOM      2  C   UNL     1       0.002  -0.004   0.002  0.00  0.00    -0.071 A 
ATOM      3  C   UNL     1       0.005  -0.670  -1.210  0.00  0.00    +0.124 A 
ATOM      4  C   UNL     1       0.020  -2.058  -1.222  0.00  0.00    -0.132 A 
ATOM      5  C   UNL     1       0.044  -2.747   0.010  0.00  0.00    -0.076 A 
ATOM      6  C   UNL     1       0.071  -4.214  -0.031  0.00  0.00    -0.077 A 
ATOM      7  C   UNL     1      -0.104  -4.904   1.188  0.00  0.00    -0.122 A 
ATOM      8  C   UNL     1      -0.323  -4.082   2.388  0.00  0.00    +0.537 A 
ATOM      9  O   UNL     1       0.096  -2.793   2.385  0.00  0.00    -0.261 OA
ATOM     10  O   UNL     1      -0.870  -4.552   3.368  0.00  0.00    -0.414 OA
ATOM     11  C   UNL     1      -0.081  -6.292   1.178  0.00  0.00    +0.106 A 
ATOM     12  C   UNL     1       0.093  -6.959  -0.026  0.00  0.00    +0.124 A 
ATOM     15  C   UNL     1       0.253  -6.269  -1.229  0.00  0.00    +0.109 A 
ATOM     18  C   UNL     1       0.251  -4.878  -1.242  0.00  0.00    +0.127 A 
ATOM     19  O   UNL     1       0.449  -4.160  -2.376  0.00  0.00    -0.262 OA
ATOM     20  C   UNL     1       0.045  -2.080   1.232  0.00  0.00    +0.116 A 
ATOM     21  C   UNL     1       0.000  -2.882  -2.440  0.00  0.00    +0.536 A 
ATOM     22  O   UNL     1      -0.413  -2.425  -3.489  0.00  0.00    -0.415 OA
ATOM     23  C   UNL     1       0.023  -0.687   1.214  0.00  0.00    +0.135 A 
ENDROOT
BRANCH  12  13
ATOM     13  O   UNL     1       0.107  -8.318  -0.035  0.00  0.00    -0.470 OA
ATOM     14  H   UNL     1      -0.764  -8.720  -0.159  0.00  0.00    +0.399 HD
ENDBRANCH  12  13
BRANCH  15  16
ATOM     16  O   UNL     1       0.412  -6.958  -2.389  0.00  0.00    -0.311 OA
ATOM     17  C   UNL     1      -0.774  -7.291  -3.114  0.00  0.00    +0.243 C 
ENDBRANCH  15  16
BRANCH  23  24
ATOM     24  O   UNL     1       0.016   0.006   2.382  0.00  0.00    -0.318 OA
ATOM     25  C   UNL     1      -1.261   0.311   2.947  0.00  0.00    +0.244 C 
ENDBRANCH  23  24
TORSDOF 3
