REMARK  Name = ZINC13359138
REMARK  12 active torsions:
REMARK  status: ('A' for Active; 'I' for Inactive)
REMARK    1  A    between atoms: C1_1  and  C2_2
REMARK    2  A    between atoms: C5_5  and  C14_16
REMARK    3  A    between atoms: C8_8  and  O2_14
REMARK    4  A    between atoms: C10_10  and  O1_12
REMARK    5  A    between atoms: O1_12  and  C12_13
REMARK    6  A    between atoms: O2_14  and  C13_15
REMARK    7  A    between atoms: C15_17  and  O4_31
REMARK    8  A    between atoms: C17_19  and  O3_29
REMARK    9  A    between atoms: C21_23  and  C24_28
REMARK   10  A    between atoms: C22_26  and  C23_27
REMARK   11  A    between atoms: O3_29  and  C25_30
REMARK   12  A    between atoms: O4_31  and  C26_32
REMARK                            x       y       z     vdW  Elec       q    Type
REMARK                         _______ _______ _______ _____ _____    ______ ____
ROOT
ATOM      6  C   UNL     1       2.495  -0.353  -0.023  0.00  0.00    -0.105 A 
ATOM      7  C   UNL     1       2.503  -1.052  -1.241  0.00  0.00    +0.203 A 
ATOM     10  C   UNL     1       2.561  -2.436  -1.250  0.00  0.00    -0.169 A 
ATOM     11  C   UNL     1       2.598  -3.143  -0.058  0.00  0.00    +0.209 A 
ATOM     14  C   UNL     1       2.584  -2.452   1.160  0.00  0.00    -0.187 A 
ATOM     15  C   UNL     1       2.621  -3.166   2.446  0.00  0.00    +0.231 C 
ATOM     16  C   UNL     1       2.251  -4.626   2.511  0.00  0.00    +0.137 C 
ATOM     17  N   UNL     1       2.972  -2.538   3.520  0.00  0.00    -0.524 NA
ATOM     18  C   UNL     1       3.354  -1.130   3.507  0.00  0.00    +0.151 C 
ATOM     19  C   UNL     1       3.140  -0.539   4.902  0.00  0.00    +0.052 C 
ATOM     20  C   UNL     1       2.521  -0.341   2.498  0.00  0.00    +0.078 C 
ATOM     21  C   UNL     1       2.533  -1.054   1.172  0.00  0.00    +0.029 A 
ENDROOT
BRANCH   6   5
ATOM      1  C   UNL     1      -2.490   0.960   0.020  0.00  0.00    +0.091 C 
ATOM      2  C   UNL     1      -1.202   1.742   0.017  0.00  0.00    -0.025 A 
ATOM      3  C   UNL     1      -0.013   1.076   0.008  0.00  0.00    -0.031 A 
ATOM      4  C   UNL     1       1.192   1.794   0.000  0.00  0.00    +0.044 A 
ATOM      5  C   UNL     1       2.441   1.127  -0.015  0.00  0.00    -0.072 A 
ATOM     22  C   UNL     1       3.610   1.867  -0.023  0.00  0.00    +0.083 A 
ATOM     23  C   UNL     1       3.572   3.256  -0.015  0.00  0.00    -0.108 A 
ATOM     24  C   UNL     1       2.371   3.930   0.000  0.00  0.00    +0.172 A 
ATOM     27  C   UNL     1       1.161   3.209   0.008  0.00  0.00    -0.099 A 
ATOM     28  C   UNL     1      -0.082   3.872   0.023  0.00  0.00    +0.170 A 
ATOM     31  C   UNL     1      -1.244   3.132   0.031  0.00  0.00    -0.109 A 
BRANCH  24  25
ATOM     25  O   UNL     1       2.353   5.288   0.008  0.00  0.00    -0.291 OA
ATOM     26  C   UNL     1       3.618   5.954   0.000  0.00  0.00    +0.238 C 
ENDBRANCH  24  25
BRANCH  28  29
ATOM     29  O   UNL     1      -0.134   5.229   0.030  0.00  0.00    -0.290 OA
ATOM     30  C   UNL     1      -1.431   5.828   0.046  0.00  0.00    +0.237 C 
ENDBRANCH  28  29
ENDBRANCH   6   5
BRANCH   7   8
ATOM      8  O   UNL     1       2.461  -0.370  -2.413  0.00  0.00    -0.298 OA
ATOM      9  C   UNL     1       2.472  -1.142  -3.615  0.00  0.00    +0.242 C 
ENDBRANCH   7   8
BRANCH  11  12
ATOM     12  O   UNL     1       2.649  -4.498  -0.071  0.00  0.00    -0.299 OA
ATOM     13  C   UNL     1       2.660  -5.135  -1.350  0.00  0.00    +0.241 C 
ENDBRANCH  11  12
TORSDOF 5
