REMARK  Name = ZINC01697403
REMARK  5 active torsions:
REMARK  status: ('A' for Active; 'I' for Inactive)
REMARK    1  A    between atoms: C1_1  and  C2_2
REMARK    2  A    between atoms: C2_2  and  C3_3
REMARK    3  A    between atoms: C3_3  and  O1_4
REMARK    4  A    between atoms: O1_4  and  C4_5
REMARK    5  A    between atoms: C4_5  and  C5_7
REMARK                            x       y       z     vdW  Elec       q    Type
REMARK                         _______ _______ _______ _____ _____    ______ ____
ROOT
ATOM      4  O   UNL     1       1.139   1.891   0.001  0.00  0.00    -0.360 OA
ENDROOT
BRANCH   4   5
ATOM      5  C   UNL     1      -0.014   1.204   0.009  0.00  0.00    +0.459 C 
ATOM      6  C   UNL     1      -1.329   1.940   0.019  0.00  0.00    +0.155 C 
ATOM      7  O   UNL     1       0.002  -0.004   0.002  0.00  0.00    -0.515 OA
ENDBRANCH   4   5
BRANCH   4   3
ATOM      3  C   UNL     1       2.367   1.117  -0.015  0.00  0.00    +0.205 C 
BRANCH   3   2
ATOM      1  C   UNL     1       4.862   1.250  -0.038  0.00  0.00    +0.032 C 
ATOM      2  C   UNL     1       3.568   2.065  -0.021  0.00  0.00    +0.024 C 
ENDBRANCH   3   2
ENDBRANCH   4   3
TORSDOF 3
