REMARK  Name = ZINC95486150
REMARK  7 active torsions:
REMARK  status: ('A' for Active; 'I' for Inactive)
REMARK    1  A    between atoms: C1_1  and  C2_2
REMARK    2  A    between atoms: C6_6  and  C20_27
REMARK    3  A    between atoms: C6_6  and  C21_28
REMARK    4  A    between atoms: C7_7  and  C19_26
REMARK    5  A    between atoms: C12_12  and  C13_14
REMARK    6  A    between atoms: C15_17  and  C18_24
REMARK    7  A    between atoms: C17_19  and  O3_23
REMARK                            x       y       z     vdW  Elec       q    Type
REMARK                         _______ _______ _______ _____ _____    ______ ____
ROOT
ATOM      1  C   UNL     1       0.041   1.557   0.079  0.00  0.00    +0.027 C 
ATOM      2  C   UNL     1       0.268   0.051  -0.118  0.00  0.00    -0.021 C 
ATOM      3  C   UNL     1      -1.074  -0.610  -0.431  0.00  0.00    +0.002 C 
ATOM      4  C   UNL     1      -1.995  -0.520   0.786  0.00  0.00    -0.001 C 
ATOM      5  C   UNL     1      -1.365  -1.254   1.962  0.00  0.00    +0.008 C 
ATOM      6  C   UNL     1       0.010  -0.691   2.313  0.00  0.00    -0.043 C 
ATOM      7  C   UNL     1       0.654  -1.699   3.298  0.00  0.00    +0.010 C 
ATOM      8  C   UNL     1      -0.139   0.631   3.059  0.00  0.00    +0.023 C 
ATOM      9  C   UNL     1       1.193  -0.099  -1.341  0.00  0.00    +0.044 C 
ATOM     21  C   UNL     1       2.547   0.478  -0.991  0.00  0.00    -0.110 C 
ATOM     22  C   UNL     1       3.136   1.321  -1.810  0.00  0.00    +0.007 C 
ATOM     23  C   UNL     1       3.215   0.073   0.299  0.00  0.00    +0.053 C 
ATOM     24  C   UNL     1       2.213   0.151   1.455  0.00  0.00    +0.025 C 
ATOM     25  C   UNL     1       0.923  -0.592   1.096  0.00  0.00    -0.019 C 
ATOM     26  C   UNL     1       1.320  -2.044   0.736  0.00  0.00    +0.014 C 
ENDROOT
BRANCH   9  10
ATOM     10  C   UNL     1       0.617   0.707  -2.507  0.00  0.00    +0.215 C 
ATOM     11  C   UNL     1      -0.858   0.399  -2.656  0.00  0.00    +0.038 C 
ATOM     12  C   UNL     1      -1.265  -0.863  -2.704  0.00  0.00    -0.181 C 
ATOM     15  C   UNL     1      -0.256  -1.985  -2.619  0.00  0.00    +0.094 C 
ATOM     16  C   UNL     1       0.565  -2.001  -3.913  0.00  0.00    +0.304 C 
ATOM     19  O   UNL     1       1.635  -1.072  -3.825  0.00  0.00    -0.233 OA
ATOM     20  O   UNL     1       1.289   0.347  -3.716  0.00  0.00    -0.157 OA
BRANCH  12  13
ATOM     13  C   UNL     1      -2.689  -1.169  -2.838  0.00  0.00    +0.477 C 
ATOM     14  O   UNL     1      -3.060  -2.323  -2.881  0.00  0.00    -0.441 OA
ENDBRANCH  12  13
BRANCH  16  17
ATOM     17  O   UNL     1       1.096  -3.312  -4.121  0.00  0.00    -0.529 OA
ATOM     18  H   UNL     1       1.628  -3.398  -4.924  0.00  0.00    +0.392 HD
ENDBRANCH  16  17
ENDBRANCH   9  10
TORSDOF 3
