REMARK  Name = ZINC95486010
REMARK  6 active torsions:
REMARK  status: ('A' for Active; 'I' for Inactive)
REMARK    1  A    between atoms: C1_1  and  C2_2
REMARK    2  A    between atoms: C2_2  and  C4_4
REMARK    3  A    between atoms: C17_20  and  O4_30
REMARK    4  A    between atoms: C18_21  and  O3_28
REMARK    5  A    between atoms: O3_28  and  C23_29
REMARK    6  A    between atoms: O4_30  and  C24_31
REMARK                            x       y       z     vdW  Elec       q    Type
REMARK                         _______ _______ _______ _____ _____    ______ ____
ROOT
ATOM      3  C   UNL     1      -1.293  -0.775   0.010  0.00  0.00    +0.214 C 
ATOM      4  C   UNL     1      -2.092  -0.490   1.307  0.00  0.00    +0.102 C 
ATOM      5  C   UNL     1      -3.509  -0.474   0.800  0.00  0.00    -0.228 A 
ATOM      6  C   UNL     1      -3.449  -0.372  -0.596  0.00  0.00    +0.185 A 
ATOM      7  C   UNL     1      -4.624  -0.342  -1.358  0.00  0.00    -0.032 A 
ATOM      8  C   UNL     1      -5.821  -0.412  -0.695  0.00  0.00    +0.154 A 
ATOM      9  C   UNL     1      -5.884  -0.510   0.697  0.00  0.00    -0.283 A 
ATOM     10  C   UNL     1      -7.189  -0.581   1.381  0.00  0.00    +0.414 C 
ATOM     11  O   UNL     1      -8.225  -0.774   0.780  0.00  0.00    -0.436 OA
ATOM     12  C   UNL     1      -7.149  -0.398   2.885  0.00  0.00    +0.010 C 
ATOM     13  C   UNL     1      -8.405  -0.924   3.520  0.00  0.00    -0.078 A 
ATOM     14  C   UNL     1      -9.615  -0.684   2.884  0.00  0.00    +0.005 A 
ATOM     15  C   UNL     1     -10.801  -1.124   3.441  0.00  0.00    +0.097 A 
ATOM     18  C   UNL     1     -10.778  -1.815   4.649  0.00  0.00    +0.111 A 
ATOM     21  C   UNL     1      -9.570  -2.056   5.276  0.00  0.00    -0.043 A 
ATOM     22  C   UNL     1      -8.378  -1.615   4.713  0.00  0.00    -0.071 A 
ATOM     23  C   UNL     1      -7.103  -1.927   5.452  0.00  0.00    +0.099 C 
ATOM     24  C   UNL     1      -5.934  -1.098   4.921  0.00  0.00    +0.066 C 
ATOM     25  C   UNL     1      -5.940  -1.192   3.397  0.00  0.00    +0.186 C 
ATOM     26  O   UNL     1      -4.754  -0.647   2.826  0.00  0.00    -0.292 OA
ATOM     27  C   UNL     1      -4.707  -0.545   1.477  0.00  0.00    +0.232 A 
ATOM     28  O   UNL     1      -2.172  -0.305  -1.029  0.00  0.00    -0.282 OA
ENDROOT
BRANCH   3   2
ATOM      1  C   UNL     1      -0.018   1.503   0.010  0.00  0.00    +0.087 C 
ATOM      2  C   UNL     1       0.002  -0.004   0.002  0.00  0.00    -0.132 C 
ATOM     29  C   UNL     1       1.145  -0.644  -0.012  0.00  0.00    +0.050 C 
ENDBRANCH   3   2
BRANCH  15  16
ATOM     16  O   UNL     1     -11.983  -0.884   2.812  0.00  0.00    -0.305 OA
ATOM     17  C   UNL     1     -11.927  -0.170   1.576  0.00  0.00    +0.239 C 
ENDBRANCH  15  16
BRANCH  18  19
ATOM     19  O   UNL     1     -11.938  -2.250   5.210  0.00  0.00    -0.305 OA
ATOM     20  C   UNL     1     -11.835  -2.951   6.451  0.00  0.00    +0.237 C 
ENDBRANCH  18  19
TORSDOF 3
