REMARK  Name = ZINC00013246
REMARK  3 active torsions:
REMARK  status: ('A' for Active; 'I' for Inactive)
REMARK    1  A    between atoms: C3_3  and  O4_11
REMARK    2  A    between atoms: C4_4  and  O3_10
REMARK    3  A    between atoms: C6_6  and  C7_7
REMARK                            x       y       z     vdW  Elec       q    Type
REMARK                         _______ _______ _______ _____ _____    ______ ____
ROOT
ATOM      1  C   UNL     1      -0.017   1.394   0.010  0.00  0.00    +0.057 A 
ATOM      2  C   UNL     1       1.167   2.099   0.002  0.00  0.00    -0.022 A 
ATOM      3  C   UNL     1       2.380   1.424  -0.014  0.00  0.00    +0.065 A 
ATOM      6  C   UNL     1       2.407   0.030  -0.021  0.00  0.00    +0.058 A 
ATOM      9  C   UNL     1       1.225  -0.684  -0.014  0.00  0.00    +0.043 A 
ATOM     10  C   UNL     1       0.002  -0.004   0.002  0.00  0.00    -0.125 A 
ENDROOT
BRANCH  10  11
ATOM     11  C   UNL     1      -1.262  -0.759   0.011  0.00  0.00    +0.520 C 
ATOM     12  O   UNL     1      -1.243  -1.983   0.004  0.00  0.00    -0.684 OA
ATOM     13  O   UNL     1      -2.330  -0.164   0.024  0.00  0.00    -0.684 OA
ENDBRANCH  10  11
BRANCH   3   4
ATOM      4  O   UNL     1       3.544   2.124  -0.022  0.00  0.00    -0.492 OA
ATOM      5  H   UNL     1       3.890   2.322   0.859  0.00  0.00    +0.377 HD
ENDBRANCH   3   4
BRANCH   6   7
ATOM      7  O   UNL     1       3.598  -0.627  -0.037  0.00  0.00    -0.491 OA
ATOM      8  H   UNL     1       3.951  -0.822   0.842  0.00  0.00    +0.378 HD
ENDBRANCH   6   7
TORSDOF 3
