REMARK  Name = ZINC13365918
REMARK  2 active torsions:
REMARK  status: ('A' for Active; 'I' for Inactive)
REMARK    1  A    between atoms: C10_11  and  C12_15
REMARK    2  A    between atoms: N2_13  and  O1_14
REMARK                            x       y       z     vdW  Elec       q    Type
REMARK                         _______ _______ _______ _____ _____    ______ ____
ROOT
ATOM      1  C   UNL     1       1.508   5.886   0.018  0.00  0.00    -0.012 A 
ATOM      2  C   UNL     1       2.894   5.923   0.006  0.00  0.00    +0.060 A 
ATOM      3  C   UNL     1       3.626   4.756  -0.007  0.00  0.00    -0.005 A 
ATOM      4  C   UNL     1       2.976   3.525  -0.007  0.00  0.00    +0.149 A 
ATOM      5  C   UNL     1       1.573   3.489   0.006  0.00  0.00    -0.106 A 
ATOM      6  C   UNL     1       1.194   2.068   0.002  0.00  0.00    -0.069 A 
ATOM      7  C   UNL     1      -0.017   1.377   0.010  0.00  0.00    +0.056 A 
ATOM      8  C   UNL     1       0.002  -0.004   0.002  0.00  0.00    +0.235 A 
ATOM      9  N   UNL     1       1.140  -0.671  -0.012  0.00  0.00    -0.430 NA
ATOM     10  C   UNL     1       2.318  -0.064  -0.020  0.00  0.00    +0.150 A 
ATOM     20  C   UNL     1       2.393   1.335  -0.014  0.00  0.00    +0.137 A 
ATOM     21  N   UNL     1       3.446   2.224  -0.020  0.00  0.00    -0.351 N 
ATOM     24  C   UNL     1       0.846   4.678   0.019  0.00  0.00    +0.082 A 
ENDROOT
BRANCH  10  11
ATOM     11  C   UNL     1       3.562  -0.869  -0.036  0.00  0.00    +0.267 A 
ATOM     12  C   UNL     1       3.570  -2.174   0.465  0.00  0.00    -0.092 A 
ATOM     13  C   UNL     1       4.755  -2.887   0.429  0.00  0.00    +0.366 A 
ATOM     14  N   UNL     1       5.838  -2.318  -0.075  0.00  0.00    -0.567 NA
ATOM     15  C   UNL     1       5.802  -1.079  -0.545  0.00  0.00    +0.569 A 
ATOM     16  N   UNL     1       6.957  -0.521  -1.064  0.00  0.00    -0.823 N 
ATOM     17  H   UNL     1       6.945   0.385  -1.411  0.00  0.00    +0.409 HD
ATOM     18  H   UNL     1       7.779  -1.036  -1.082  0.00  0.00    +0.417 HD
ATOM     19  N   UNL     1       4.689  -0.363  -0.534  0.00  0.00    -0.559 NA
ENDBRANCH  10  11
BRANCH  21  22
ATOM     22  O   UNL     1       4.814   1.858  -0.035  0.00  0.00    -0.264 OA
ATOM     23  H   UNL     1       5.185   1.761  -0.922  0.00  0.00    +0.380 HD
ENDBRANCH  21  22
TORSDOF 2
