REMARK  Name = ZINC95485925
REMARK  40 active torsions:
REMARK  status: ('A' for Active; 'I' for Inactive)
REMARK    1  A    between atoms: C1_1  and  C2_2
REMARK    2  A    between atoms: C2_2  and  C3_3
REMARK    3  A    between atoms: C3_3  and  C4_4
REMARK    4  A    between atoms: C4_4  and  C5_5
REMARK    5  A    between atoms: C5_5  and  C6_6
REMARK    6  A    between atoms: C6_6  and  C7_7
REMARK    7  A    between atoms: C7_7  and  C8_8
REMARK    8  A    between atoms: C8_8  and  C9_9
REMARK    9  A    between atoms: C9_9  and  C10_10
REMARK   10  A    between atoms: C10_10  and  C11_11
REMARK   11  A    between atoms: C11_11  and  C12_12
REMARK   12  A    between atoms: C12_12  and  C13_13
REMARK   13  A    between atoms: C13_13  and  C14_14
REMARK   14  A    between atoms: C14_14  and  C15_15
REMARK   15  A    between atoms: C15_15  and  C16_16
REMARK   16  A    between atoms: C16_16  and  C17_17
REMARK   17  A    between atoms: C17_17  and  C18_18
REMARK   18  A    between atoms: C18_18  and  C19_19
REMARK   19  A    between atoms: C19_19  and  C20_20
REMARK   20  A    between atoms: C20_20  and  C21_21
REMARK   21  A    between atoms: C21_21  and  C22_22
REMARK   22  A    between atoms: C22_22  and  C23_23
REMARK   23  A    between atoms: C23_23  and  C24_24
REMARK   24  A    between atoms: C24_24  and  C25_25
REMARK   25  A    between atoms: C25_25  and  C26_27
REMARK   26  A    between atoms: C25_25  and  O2_29
REMARK   27  A    between atoms: C26_27  and  O1_28
REMARK   28  A    between atoms: O2_29  and  C27_30
REMARK   29  A    between atoms: C30_33  and  C33_36
REMARK   30  A    between atoms: C36_40  and  C47_54
REMARK   31  A    between atoms: C37_41  and  O6_53
REMARK   32  A    between atoms: C38_42  and  C42_48
REMARK   33  A    between atoms: C39_43  and  O5_47
REMARK   34  A    between atoms: C42_48  and  C43_49
REMARK   35  A    between atoms: C44_50  and  C45_51
REMARK   36  A    between atoms: C44_50  and  C46_52
REMARK   37  A    between atoms: C47_54  and  C48_55
REMARK   38  A    between atoms: C48_55  and  C49_57
REMARK   39  A    between atoms: C48_55  and  O7_60
REMARK   40  A    between atoms: C49_57  and  C51_59
REMARK                            x       y       z     vdW  Elec       q    Type
REMARK                         _______ _______ _______ _____ _____    ______ ____
ROOT
ATOM     27  C   UNL     1     -19.338 -23.473   0.058  0.00  0.00    +0.141 A 
ATOM     28  C   UNL     1     -20.141 -23.642   1.177  0.00  0.00    -0.086 A 
ATOM     29  C   UNL     1     -21.507 -23.474   1.079  0.00  0.00    +0.061 A 
ATOM     30  C   UNL     1     -22.080 -23.134  -0.145  0.00  0.00    -0.070 A 
ATOM     58  C   UNL     1     -21.271 -22.965  -1.267  0.00  0.00    +0.084 A 
ATOM     59  C   UNL     1     -19.905 -23.130  -1.162  0.00  0.00    -0.017 A 
ENDROOT
BRANCH  30  31
ATOM     31  C   UNL     1     -23.548 -22.953  -0.253  0.00  0.00    -0.229 A 
ATOM     32  C   UNL     1     -24.178 -21.945   0.403  0.00  0.00    +0.318 A 
ATOM     33  O   UNL     1     -25.494 -21.739   0.319  0.00  0.00    -0.214 OA
ATOM     34  C   UNL     1     -26.329 -22.681  -0.162  0.00  0.00    +0.168 A 
ATOM     35  C   UNL     1     -27.697 -22.586   0.051  0.00  0.00    -0.135 A 
ATOM     43  C   UNL     1     -28.548 -23.555  -0.455  0.00  0.00    +0.200 A 
ATOM     46  C   UNL     1     -28.049 -24.631  -1.182  0.00  0.00    -0.152 A 
ATOM     52  C   UNL     1     -26.689 -24.746  -1.403  0.00  0.00    +0.214 A 
ATOM     55  C   UNL     1     -25.823 -23.774  -0.887  0.00  0.00    -0.253 A 
ATOM     56  C   UNL     1     -24.365 -23.861  -1.083  0.00  0.00    +0.432 A 
ATOM     57  O   UNL     1     -23.863 -24.637  -1.878  0.00  0.00    -0.437 OA
BRANCH  52  53
ATOM     53  O   UNL     1     -26.198 -25.793  -2.114  0.00  0.00    -0.471 OA
ATOM     54  H   UNL     1     -26.137 -25.629  -3.065  0.00  0.00    +0.401 HD
ENDBRANCH  52  53
BRANCH  43  44
ATOM     44  O   UNL     1     -29.885 -23.454  -0.239  0.00  0.00    -0.483 OA
ATOM     45  H   UNL     1     -30.357 -22.960  -0.922  0.00  0.00    +0.399 HD
ENDBRANCH  43  44
BRANCH  35  36
ATOM     36  C   UNL     1     -28.258 -21.427   0.835  0.00  0.00    +0.082 C 
BRANCH  36  37
ATOM     37  C   UNL     1     -28.585 -20.277  -0.120  0.00  0.00    +0.256 C 
BRANCH  37  40
ATOM     40  C   UNL     1     -29.030 -19.076   0.674  0.00  0.00    -0.165 C 
ATOM     41  C   UNL     1     -30.306 -19.132   1.475  0.00  0.00    +0.079 C 
ATOM     42  C   UNL     1     -28.308 -17.983   0.670  0.00  0.00    +0.030 C 
ENDBRANCH  37  40
BRANCH  37  38
ATOM     38  O   UNL     1     -29.633 -20.676  -1.006  0.00  0.00    -0.555 OA
ATOM     39  H   UNL     1     -30.455 -20.919  -0.559  0.00  0.00    +0.372 HD
ENDBRANCH  37  38
ENDBRANCH  36  37
ENDBRANCH  35  36
BRANCH  46  47
ATOM     47  C   UNL     1     -28.991 -25.672  -1.728  0.00  0.00    +0.134 C 
BRANCH  47  48
ATOM     48  C   UNL     1     -29.438 -25.270  -3.111  0.00  0.00    -0.061 C 
ATOM     49  C   UNL     1     -29.238 -26.076  -4.124  0.00  0.00    -0.122 C 
ATOM     50  C   UNL     1     -29.734 -25.698  -5.496  0.00  0.00    +0.074 C 
ATOM     51  C   UNL     1     -28.511 -27.380  -3.918  0.00  0.00    +0.076 C 
ENDBRANCH  47  48
ENDBRANCH  46  47
ENDBRANCH  30  31
BRANCH  27  26
ATOM     26  O   UNL     1     -17.993 -23.639   0.157  0.00  0.00    -0.294 OA
BRANCH  26  25
ATOM     25  C   UNL     1     -17.463 -23.872   1.464  0.00  0.00    +0.173 C 
BRANCH  25  24
ATOM     24  C   UNL     1     -15.989 -23.462   1.497  0.00  0.00    +0.055 C 
BRANCH  24  23
ATOM     23  C   UNL     1     -15.874 -21.953   1.277  0.00  0.00    +0.007 C 
BRANCH  23  22
ATOM     22  C   UNL     1     -14.401 -21.543   1.310  0.00  0.00    +0.004 C 
BRANCH  22  21
ATOM     21  C   UNL     1     -14.286 -20.033   1.090  0.00  0.00    +0.001 C 
BRANCH  21  20
ATOM     20  C   UNL     1     -12.813 -19.623   1.123  0.00  0.00    +0.001 C 
BRANCH  20  19
ATOM     19  C   UNL     1     -12.698 -18.113   0.902  0.00  0.00    +0.000 C 
BRANCH  19  18
ATOM     18  C   UNL     1     -11.224 -17.703   0.936  0.00  0.00    +0.000 C 
BRANCH  18  17
ATOM     17  C   UNL     1     -11.110 -16.194   0.716  0.00  0.00    -0.000 C 
BRANCH  17  16
ATOM     16  C   UNL     1      -9.636 -15.784   0.748  0.00  0.00    +0.000 C 
BRANCH  16  15
ATOM     15  C   UNL     1      -9.522 -14.274   0.528  0.00  0.00    +0.000 C 
BRANCH  15  14
ATOM     14  C   UNL     1      -8.048 -13.864   0.561  0.00  0.00    +0.000 C 
BRANCH  14  13
ATOM     13  C   UNL     1      -7.934 -12.354   0.341  0.00  0.00    +0.000 C 
BRANCH  13  12
ATOM     12  C   UNL     1      -6.460 -11.944   0.374  0.00  0.00    +0.000 C 
BRANCH  12  11
ATOM     11  C   UNL     1      -6.345 -10.435   0.154  0.00  0.00    +0.000 C 
BRANCH  11  10
ATOM     10  C   UNL     1      -4.872 -10.025   0.187  0.00  0.00    +0.000 C 
BRANCH  10   9
ATOM      9  C   UNL     1      -4.757  -8.515  -0.033  0.00  0.00    +0.000 C 
BRANCH   9   8
ATOM      8  C   UNL     1      -3.283  -8.105   0.000  0.00  0.00    +0.000 C 
BRANCH   8   7
ATOM      7  C   UNL     1      -3.169  -6.595  -0.220  0.00  0.00    +0.000 C 
BRANCH   7   6
ATOM      6  C   UNL     1      -1.695  -6.186  -0.187  0.00  0.00    +0.000 C 
BRANCH   6   5
ATOM      5  C   UNL     1      -1.581  -4.676  -0.407  0.00  0.00    +0.000 C 
BRANCH   5   4
ATOM      4  C   UNL     1      -0.107  -4.266  -0.374  0.00  0.00    -0.000 C 
BRANCH   4   3
ATOM      3  C   UNL     1       0.007  -2.756  -0.594  0.00  0.00    -0.000 C 
BRANCH   3   2
ATOM      1  C   UNL     1       1.596  -0.836  -0.781  0.00  0.00    +0.006 C 
ATOM      2  C   UNL     1       1.481  -2.346  -0.561  0.00  0.00    -0.006 C 
ENDBRANCH   3   2
ENDBRANCH   4   3
ENDBRANCH   5   4
ENDBRANCH   6   5
ENDBRANCH   7   6
ENDBRANCH   8   7
ENDBRANCH   9   8
ENDBRANCH  10   9
ENDBRANCH  11  10
ENDBRANCH  12  11
ENDBRANCH  13  12
ENDBRANCH  14  13
ENDBRANCH  15  14
ENDBRANCH  16  15
ENDBRANCH  17  16
ENDBRANCH  18  17
ENDBRANCH  19  18
ENDBRANCH  20  19
ENDBRANCH  21  20
ENDBRANCH  22  21
ENDBRANCH  23  22
ENDBRANCH  24  23
ENDBRANCH  25  24
BRANCH  25  60
ATOM     60  C   UNL     1     -17.587 -25.358   1.807  0.00  0.00    +0.161 C 
BRANCH  60  61
ATOM     61  O   UNL     1     -16.763 -26.121   0.923  0.00  0.00    -0.559 OA
ATOM     62  H   UNL     1     -16.792 -27.075   1.083  0.00  0.00    +0.380 HD
ENDBRANCH  60  61
ENDBRANCH  25  60
ENDBRANCH  26  25
ENDBRANCH  27  26
TORSDOF 36
