REMARK  Name = ZINC14506940
REMARK  4 active torsions:
REMARK  status: ('A' for Active; 'I' for Inactive)
REMARK    1  A    between atoms: C1_1  and  C2_2
REMARK    2  A    between atoms: C2_2  and  C13_15
REMARK    3  A    between atoms: C3_3  and  C4_4
REMARK    4  A    between atoms: C4_4  and  C5_5
REMARK                            x       y       z     vdW  Elec       q    Type
REMARK                         _______ _______ _______ _____ _____    ______ ____
ROOT
ATOM      6  C   UNL     1       3.391  -0.491   0.873  0.00  0.00    -0.039 A 
ATOM      7  C   UNL     1       3.398  -0.049   2.183  0.00  0.00    -0.004 A 
ATOM      8  C   UNL     1       4.273  -0.613   3.095  0.00  0.00    +0.068 A 
ATOM      9  C   UNL     1       5.133  -1.611   2.694  0.00  0.00    -0.148 A 
ATOM     10  C   UNL     1       5.135  -2.063   1.381  0.00  0.00    +0.143 A 
ATOM     11  N   UNL     1       6.086  -3.071   1.219  0.00  0.00    -0.661 N 
ATOM     12  H   UNL     1       6.254  -3.527   0.380  0.00  0.00    +0.414 HD
ATOM     13  C   UNL     1       6.744  -3.338   2.361  0.00  0.00    +0.528 C 
ATOM     14  O   UNL     1       7.620  -4.163   2.511  0.00  0.00    -0.503 OA
ATOM     15  C   UNL     1       6.185  -2.415   3.423  0.00  0.00    +0.133 C 
ATOM     16  C   UNL     1       4.247  -1.494   0.470  0.00  0.00    -0.009 A 
ENDROOT
BRANCH   6   5
ATOM      5  C   UNL     1       2.437   0.124  -0.120  0.00  0.00    +0.111 C 
BRANCH   5   4
ATOM      1  C   UNL     1      -0.010   1.489   0.192  0.00  0.00    +0.074 C 
ATOM      2  C   UNL     1       0.009  -0.014   0.091  0.00  0.00    -0.126 C 
ATOM      3  C   UNL     1      -1.274  -0.794   0.223  0.00  0.00    +0.074 C 
ATOM      4  C   UNL     1       1.140  -0.643  -0.111  0.00  0.00    -0.055 C 
ENDBRANCH   5   4
ENDBRANCH   6   5
TORSDOF 2
