REMARK  Name = ZINC33831299
REMARK  6 active torsions:
REMARK  status: ('A' for Active; 'I' for Inactive)
REMARK    1  A    between atoms: C1_1  and  C2_2
REMARK    2  A    between atoms: C6_6  and  C19_25
REMARK    3  A    between atoms: C6_6  and  C20_26
REMARK    4  A    between atoms: C10_11  and  C18_23
REMARK    5  A    between atoms: C14_16  and  C17_21
REMARK    6  A    between atoms: C16_18  and  O1_20
REMARK                            x       y       z     vdW  Elec       q    Type
REMARK                         _______ _______ _______ _____ _____    ______ ____
ROOT
ATOM      1  C   UNL     1       0.072   1.507  -0.010  0.00  0.00    +0.026 C 
ATOM      2  C   UNL     1       0.078  -0.018  -0.008  0.00  0.00    -0.037 C 
ATOM      3  C   UNL     1      -1.380  -0.496   0.125  0.00  0.00    +0.019 C 
ATOM      4  C   UNL     1      -1.961   0.015   1.442  0.00  0.00    +0.005 C 
ATOM      5  C   UNL     1      -1.193  -0.560   2.623  0.00  0.00    +0.010 C 
ATOM      6  C   UNL     1       0.311  -0.302   2.531  0.00  0.00    -0.047 C 
ATOM      7  C   UNL     1       0.633   1.113   3.006  0.00  0.00    +0.023 C 
ATOM      8  C   UNL     1       0.977  -1.276   3.538  0.00  0.00    +0.011 C 
ATOM      9  C   UNL     1       0.646  -0.550  -1.324  0.00  0.00    +0.029 C 
ATOM     10  C   UNL     1      -0.137   0.023  -2.511  0.00  0.00    +0.066 C 
ATOM     11  C   UNL     1      -0.277  -1.082  -3.542  0.00  0.00    +0.065 C 
ATOM     12  C   UNL     1       0.772  -1.468  -4.238  0.00  0.00    -0.224 C 
ATOM     15  C   UNL     1       2.113  -0.798  -4.013  0.00  0.00    +0.056 C 
ATOM     16  C   UNL     1       2.674  -1.229  -2.669  0.00  0.00    +0.190 C 
ATOM     19  C   UNL     1       2.144  -0.393  -1.493  0.00  0.00    -0.103 C 
ATOM     22  C   UNL     1       2.868  -0.947  -0.249  0.00  0.00    +0.043 C 
ATOM     23  C   UNL     1       2.344  -0.269   1.020  0.00  0.00    +0.023 C 
ATOM     24  C   UNL     1       0.862  -0.611   1.157  0.00  0.00    +0.000 C 
ENDROOT
BRANCH  12  13
ATOM     13  C   UNL     1       0.645  -2.542  -5.224  0.00  0.00    +0.475 C 
ATOM     14  O   UNL     1       1.613  -2.896  -5.864  0.00  0.00    -0.458 OA
ENDBRANCH  12  13
BRANCH  16  17
ATOM     17  O   UNL     1       4.100  -1.117  -2.700  0.00  0.00    -0.563 OA
ATOM     18  H   UNL     1       4.518  -1.616  -3.415  0.00  0.00    +0.385 HD
ENDBRANCH  16  17
BRANCH  19  20
ATOM     20  C   UNL     1       2.586   1.025  -1.705  0.00  0.00    +0.448 C 
ATOM     21  O   UNL     1       3.384   1.527  -0.950  0.00  0.00    -0.440 OA
ENDBRANCH  19  20
TORSDOF 3
