REMARK  Name = ZINC00001504
REMARK  4 active torsions:
REMARK  status: ('A' for Active; 'I' for Inactive)
REMARK    1  A    between atoms: C2_2  and  C7_10
REMARK    2  A    between atoms: C4_4  and  O3_9
REMARK    3  A    between atoms: C5_5  and  O2_8
REMARK    4  A    between atoms: C6_6  and  O1_7
REMARK                            x       y       z     vdW  Elec       q    Type
REMARK                         _______ _______ _______ _____ _____    ______ ____
ROOT
ATOM      1  C   UNL     1      -0.017   1.377   0.010  0.00  0.00    +0.041 A 
ATOM      2  C   UNL     1       1.186   2.092   0.002  0.00  0.00    -0.109 A 
ATOM      6  C   UNL     1       2.404   1.404  -0.013  0.00  0.00    +0.040 A 
ATOM      7  C   UNL     1       2.416   0.023  -0.021  0.00  0.00    +0.073 A 
ATOM     10  C   UNL     1       1.217  -0.686  -0.014  0.00  0.00    +0.042 A 
ATOM     13  C   UNL     1       0.002  -0.004   0.002  0.00  0.00    +0.074 A 
ENDROOT
BRANCH   2   3
ATOM      3  C   UNL     1       1.170   3.564   0.009  0.00  0.00    +0.521 C 
ATOM      4  O   UNL     1       2.222   4.188   0.003  0.00  0.00    -0.681 OA
ATOM      5  O   UNL     1       0.103   4.164   0.022  0.00  0.00    -0.681 OA
ENDBRANCH   2   3
BRANCH   7   8
ATOM      8  O   UNL     1       3.600  -0.646  -0.036  0.00  0.00    -0.488 OA
ATOM      9  H   UNL     1       3.951  -0.844   0.843  0.00  0.00    +0.380 HD
ENDBRANCH   7   8
BRANCH  10  11
ATOM     11  O   UNL     1       1.232  -2.044  -0.022  0.00  0.00    -0.485 OA
ATOM     12  H   UNL     1       1.244  -2.442   0.860  0.00  0.00    +0.379 HD
ENDBRANCH  10  11
BRANCH  13  14
ATOM     14  O   UNL     1      -1.167  -0.699   0.010  0.00  0.00    -0.494 OA
ATOM     15  H   UNL     1      -1.514  -0.896  -0.871  0.00  0.00    +0.386 HD
ENDBRANCH  13  14
TORSDOF 4
