REMARK  Name = ZINC14613040
REMARK  1 active torsions:
REMARK  status: ('A' for Active; 'I' for Inactive)
REMARK    1  A    between atoms: C1_1  and  N1_2
REMARK                            x       y       z     vdW  Elec       q    Type
REMARK                         _______ _______ _______ _____ _____    ______ ____
ROOT
ATOM      1  C   UNL     1       4.712   4.046   0.508  0.00  0.00    +0.228 C 
ATOM      2  N   UNL     1       3.624   3.222  -0.037  0.00  0.00    -0.487 N 
ATOM      3  C   UNL     1       3.534   1.937   0.667  0.00  0.00    +0.203 C 
ATOM      4  C   UNL     1       2.487   1.045  -0.007  0.00  0.00    +0.114 C 
ATOM      5  C   UNL     1       1.162   1.765   0.000  0.00  0.00    -0.051 A 
ATOM      6  C   UNL     1      -0.013   1.076   0.008  0.00  0.00    +0.047 A 
ATOM      7  C   UNL     1      -1.234   1.749   0.018  0.00  0.00    +0.049 A 
ATOM      8  C   UNL     1      -1.273   3.136   0.032  0.00  0.00    +0.035 A 
ATOM      9  O   UNL     1      -2.576   3.539   0.048  0.00  0.00    -0.302 OA
ATOM     10  C   UNL     1      -3.330   2.385   0.462  0.00  0.00    +0.434 C 
ATOM     11  C   UNL     1      -0.075   3.858   0.022  0.00  0.00    +0.013 A 
ATOM     12  C   UNL     1      -0.056   5.324   0.031  0.00  0.00    -0.051 A 
ATOM     13  C   UNL     1      -1.245   6.057   0.046  0.00  0.00    +0.071 A 
ATOM     14  C   UNL     1      -1.205   7.435   0.056  0.00  0.00    +0.028 A 
ATOM     15  C   UNL     1       0.025   8.107   0.051  0.00  0.00    +0.052 A 
ATOM     16  O   UNL     1      -0.218   9.452   0.063  0.00  0.00    -0.307 OA
ATOM     17  C   UNL     1      -1.585   9.593   0.491  0.00  0.00    +0.432 C 
ATOM     18  C   UNL     1       1.206   7.400   0.035  0.00  0.00    +0.038 A 
ATOM     19  O   UNL     1      -2.206   8.364   0.071  0.00  0.00    -0.306 OA
ATOM     20  C   UNL     1       1.187   5.997   0.023  0.00  0.00    +0.004 A 
ATOM     21  C   UNL     1       2.399   5.269   0.003  0.00  0.00    -0.034 A 
ATOM     22  O   UNL     1      -2.516   1.277   0.034  0.00  0.00    -0.305 OA
ATOM     23  C   UNL     1       1.154   3.166   0.004  0.00  0.00    -0.052 A 
ATOM     24  C   UNL     1       2.412   3.912  -0.009  0.00  0.00    +0.145 A 
ENDROOT
TORSDOF 0
