REMARK  Name = ZINC05193911
REMARK  8 active torsions:
REMARK  status: ('A' for Active; 'I' for Inactive)
REMARK    1  A    between atoms: C2_2  and  C3_3
REMARK    2  A    between atoms: C3_3  and  S1_4
REMARK    3  A    between atoms: S1_4  and  S2_5
REMARK    4  A    between atoms: S2_5  and  C4_6
REMARK    5  A    between atoms: C5_7  and  C6_8
REMARK    6  A    between atoms: C6_8  and  S3_9
REMARK    7  A    between atoms: S3_9  and  C7_11
REMARK    8  A    between atoms: C7_11  and  C8_12
REMARK                            x       y       z     vdW  Elec       q    Type
REMARK                         _______ _______ _______ _____ _____    ______ ____
ROOT
ATOM      6  C   UNL     1      -0.982   0.499   4.991  0.00  0.00    -0.047 C 
ATOM      7  C   UNL     1      -0.478   1.410   4.178  0.00  0.00    +0.038 C 
ENDROOT
BRANCH   6   5
ATOM      5  S   UNL     1      -1.689   0.987   6.530  0.00  0.00    -0.026 S 
BRANCH   5   4
ATOM      4  S   UNL     1      -2.303  -0.777   7.375  0.00  0.00    -0.141 S 
BRANCH   4   3
ATOM      3  C   UNL     1      -0.819  -1.406   8.207  0.00  0.00    +0.145 C 
BRANCH   3   2
ATOM      1  C   UNL     1      -0.575  -1.036  10.608  0.00  0.00    +0.043 C 
ATOM      2  C   UNL     1      -0.505  -0.538   9.398  0.00  0.00    -0.044 C 
ENDBRANCH   3   2
ENDBRANCH   4   3
ENDBRANCH   5   4
ENDBRANCH   6   5
BRANCH   7   8
ATOM      8  C   UNL     1       0.127   0.993   2.862  0.00  0.00    -0.192 C 
BRANCH   8   9
ATOM      9  S   UNL     1      -0.862   1.671   1.500  0.00  0.00    +1.258 S 
ATOM     13  O   UNL     1      -2.171   1.121   1.547  0.00  0.00    -0.831 OA
BRANCH   9  10
ATOM     10  C   UNL     1      -0.013   1.086   0.008  0.00  0.00    -0.207 C 
BRANCH  10  11
ATOM     11  C   UNL     1      -0.742   1.585  -1.213  0.00  0.00    -0.033 C 
ATOM     12  C   UNL     1      -0.156   2.429  -2.026  0.00  0.00    +0.035 C 
ENDBRANCH  10  11
ENDBRANCH   9  10
ENDBRANCH   8   9
ENDBRANCH   7   8
TORSDOF 8
