REMARK  Name = ZINC32296267
REMARK  7 active torsions:
REMARK  status: ('A' for Active; 'I' for Inactive)
REMARK    1  A    between atoms: C1_1  and  C2_2
REMARK    2  A    between atoms: C2_2  and  O2_4
REMARK    3  A    between atoms: O2_4  and  C3_5
REMARK    4  A    between atoms: C5_7  and  C9_14
REMARK    5  A    between atoms: C9_14  and  O5_15
REMARK    6  A    between atoms: O5_15  and  C10_16
REMARK    7  A    between atoms: C10_16  and  C11_18
REMARK                            x       y       z     vdW  Elec       q    Type
REMARK                         _______ _______ _______ _____ _____    ______ ____
ROOT
ATOM      4  C   UNL     1      -0.028  -2.027  -1.218  0.00  0.00    +0.106 C 
ATOM      5  C   UNL     1      -0.088  -2.611  -0.050  0.00  0.00    -0.011 C 
ATOM      6  C   UNL     1      -0.050  -4.075   0.224  0.00  0.00    +0.319 C 
ATOM     17  O   UNL     1      -0.698  -4.837  -0.774  0.00  0.00    -0.362 OA
ATOM     18  C   UNL     1      -0.140  -4.944  -1.980  0.00  0.00    +0.512 C 
ATOM     19  C   UNL     1      -0.090  -3.843  -2.923  0.00  0.00    -0.010 C 
ATOM     20  O   UNL     1       0.349  -6.010  -2.304  0.00  0.00    -0.429 OA
ATOM     21  C   UNL     1       0.009  -2.567  -2.546  0.00  0.00    +0.067 C 
ENDROOT
BRANCH   4   3
ATOM      3  O   UNL     1       0.000  -0.669  -1.164  0.00  0.00    -0.310 OA
BRANCH   3   2
ATOM      1  C   UNL     1       1.156   1.460  -1.642  0.00  0.00    +0.174 C 
ATOM      2  C   UNL     1       1.117  -0.045  -1.571  0.00  0.00    +0.459 C 
ATOM     22  O   UNL     1       2.091  -0.690  -1.879  0.00  0.00    -0.491 OA
ENDBRANCH   3   2
ENDBRANCH   4   3
BRANCH   6   7
ATOM      7  C   UNL     1       1.411  -4.523   0.312  0.00  0.00    +0.203 C 
BRANCH   7   8
ATOM      8  O   UNL     1       1.465  -5.900   0.689  0.00  0.00    -0.333 OA
BRANCH   8   9
ATOM      9  C   UNL     1       2.688  -6.452   0.812  0.00  0.00    +0.513 C 
ATOM     16  O   UNL     1       3.680  -5.784   0.604  0.00  0.00    -0.501 OA
BRANCH   9  10
ATOM     10  C   UNL     1       2.821  -7.872   1.198  0.00  0.00    -0.127 A 
ATOM     11  C   UNL     1       1.682  -8.645   1.432  0.00  0.00    +0.082 A 
ATOM     12  C   UNL     1       1.814  -9.970   1.793  0.00  0.00    +0.001 A 
ATOM     13  C   UNL     1       3.071 -10.533   1.924  0.00  0.00    +0.050 A 
ATOM     14  C   UNL     1       4.204  -9.772   1.694  0.00  0.00    +0.003 A 
ATOM     15  C   UNL     1       4.087  -8.448   1.327  0.00  0.00    +0.084 A 
ENDBRANCH   9  10
ENDBRANCH   8   9
ENDBRANCH   7   8
ENDBRANCH   6   7
TORSDOF 6
