REMARK  Name = ZINC14758411
REMARK  6 active torsions:
REMARK  status: ('A' for Active; 'I' for Inactive)
REMARK    1  A    between atoms: C3_3  and  O6_22
REMARK    2  A    between atoms: C6_6  and  C7_7
REMARK    3  A    between atoms: C7_7  and  C8_8
REMARK    4  A    between atoms: C8_8  and  O5_21
REMARK    5  A    between atoms: C12_13  and  O4_20
REMARK    6  A    between atoms: C14_15  and  O3_19
REMARK                            x       y       z     vdW  Elec       q    Type
REMARK                         _______ _______ _______ _____ _____    ______ ____
ROOT
ATOM     10  C   UNL     1      -1.746  -1.027  -1.429  0.00  0.00    +0.070 C 
ATOM     13  C   UNL     1      -3.126  -1.700  -1.433  0.00  0.00    +0.253 C 
ATOM     14  O   UNL     1      -4.073  -0.841  -0.800  0.00  0.00    -0.294 OA
ATOM     15  C   UNL     1      -4.177   0.439  -1.228  0.00  0.00    +0.206 A 
ATOM     16  C   UNL     1      -5.340   1.153  -0.997  0.00  0.00    -0.049 A 
ATOM     17  C   UNL     1      -5.450   2.469  -1.428  0.00  0.00    +0.199 A 
ATOM     20  C   UNL     1      -4.398   3.087  -2.093  0.00  0.00    -0.072 A 
ATOM     21  C   UNL     1      -3.227   2.392  -2.336  0.00  0.00    +0.222 A 
ATOM     24  C   UNL     1      -3.112   1.059  -1.908  0.00  0.00    -0.292 A 
ATOM     25  C   UNL     1      -1.888   0.293  -2.166  0.00  0.00    +0.378 C 
ATOM     26  O   UNL     1      -1.033   0.694  -2.928  0.00  0.00    -0.407 OA
ENDROOT
BRANCH  10  11
ATOM     11  O   UNL     1      -0.796  -1.859  -2.098  0.00  0.00    -0.519 OA
ATOM     12  H   UNL     1      -1.025  -2.057  -3.017  0.00  0.00    +0.383 HD
ENDBRANCH  10  11
BRANCH  17  18
ATOM     18  O   UNL     1      -6.596   3.157  -1.196  0.00  0.00    -0.489 OA
ATOM     19  H   UNL     1      -7.252   3.077  -1.902  0.00  0.00    +0.403 HD
ENDBRANCH  17  18
BRANCH  21  22
ATOM     22  O   UNL     1      -2.197   2.992  -2.982  0.00  0.00    -0.477 OA
ATOM     23  H   UNL     1      -2.223   2.890  -3.944  0.00  0.00    +0.403 HD
ENDBRANCH  21  22
BRANCH  10   9
ATOM      9  C   UNL     1      -1.293  -0.774   0.010  0.00  0.00    +0.137 C 
BRANCH   9   8
ATOM      1  C   UNL     1      -0.017   1.378   0.010  0.00  0.00    +0.027 A 
ATOM      2  C   UNL     1       1.170   2.087   0.002  0.00  0.00    -0.013 A 
ATOM      3  C   UNL     1       2.380   1.409  -0.013  0.00  0.00    +0.107 A 
ATOM      6  C   UNL     1       2.396   0.022  -0.020  0.00  0.00    -0.018 A 
ATOM      7  C   UNL     1       1.207  -0.681  -0.013  0.00  0.00    +0.053 A 
ATOM      8  C   UNL     1       0.002  -0.004   0.002  0.00  0.00    -0.099 A 
BRANCH   3   4
ATOM      4  O   UNL     1       3.548   2.104  -0.021  0.00  0.00    -0.501 OA
ATOM      5  H   UNL     1       3.878   2.309  -0.907  0.00  0.00    +0.391 HD
ENDBRANCH   3   4
ENDBRANCH   9   8
ENDBRANCH  10   9
TORSDOF 6
