REMARK  Name = ZINC30726919
REMARK  8 active torsions:
REMARK  status: ('A' for Active; 'I' for Inactive)
REMARK    1  A    between atoms: C1_1  and  N1_2
REMARK    2  A    between atoms: C6_7  and  O6_45
REMARK    3  A    between atoms: C7_8  and  O5_44
REMARK    4  A    between atoms: C22_25  and  O3_28
REMARK    5  A    between atoms: C23_26  and  O2_27
REMARK    6  A    between atoms: O3_28  and  C24_29
REMARK    7  A    between atoms: N2_32  and  C35_43
REMARK    8  A    between atoms: O6_45  and  C36_46
REMARK                            x       y       z     vdW  Elec       q    Type
REMARK                         _______ _______ _______ _____ _____    ______ ____
ROOT
ATOM      1  C   UNL     1      -4.097   7.714  10.487  0.00  0.00    +0.190 C 
ATOM      2  N   UNL     1      -4.768   7.007   9.388  0.00  0.00    -0.533 NA
ATOM      3  C   UNL     1      -6.192   6.813   9.680  0.00  0.00    +0.216 C 
ATOM      4  C   UNL     1      -6.354   6.041  10.983  0.00  0.00    +0.049 C 
ATOM      5  C   UNL     1      -5.423   4.856  11.031  0.00  0.00    -0.050 A 
ATOM      6  C   UNL     1      -5.662   3.877  11.980  0.00  0.00    -0.060 A 
ATOM      7  C   UNL     1      -4.800   2.802  12.104  0.00  0.00    +0.121 A 
ATOM     10  C   UNL     1      -3.688   2.706  11.274  0.00  0.00    +0.068 A 
ATOM     13  C   UNL     1      -3.462   3.669  10.303  0.00  0.00    +0.095 A 
ATOM     14  O   UNL     1      -2.396   3.608   9.491  0.00  0.00    -0.261 OA
ATOM     15  C   UNL     1      -1.794   2.536   8.951  0.00  0.00    +0.092 A 
ATOM     16  C   UNL     1      -2.494   1.459   8.437  0.00  0.00    -0.027 A 
ATOM     17  C   UNL     1      -1.821   0.422   7.813  0.00  0.00    +0.028 A 
ATOM     18  C   UNL     1      -0.447   0.469   7.696  0.00  0.00    -0.018 A 
ATOM     19  C   UNL     1       0.266   1.522   8.242  0.00  0.00    +0.036 A 
ATOM     20  C   UNL     1       0.305  -0.629   6.996  0.00  0.00    +0.096 C 
ATOM     21  C   UNL     1       1.451   0.000   6.183  0.00  0.00    +0.245 C 
ATOM     22  N   UNL     1       2.516  -0.995   6.062  0.00  0.00    -0.530 NA
ATOM     23  C   UNL     1       1.962  -2.332   5.812  0.00  0.00    +0.185 C 
ATOM     24  C   UNL     1       3.480  -0.622   5.022  0.00  0.00    +0.219 C 
ATOM     25  C   UNL     1       2.796  -0.798   3.658  0.00  0.00    +0.046 C 
ATOM     26  C   UNL     1       1.537   0.023   3.652  0.00  0.00    -0.046 A 
ATOM     27  C   UNL     1       0.994   0.398   2.430  0.00  0.00    -0.079 A 
ATOM     28  C   UNL     1      -0.148   1.182   2.381  0.00  0.00    +0.075 A 
ATOM     31  C   UNL     1      -0.740   1.597   3.571  0.00  0.00    +0.056 A 
ATOM     34  C   UNL     1      -0.211   1.219   4.788  0.00  0.00    +0.132 A 
ATOM     35  O   UNL     1      -0.717   1.570   5.975  0.00  0.00    -0.230 OA
ATOM     36  C   UNL     1      -1.640   2.494   6.256  0.00  0.00    +0.105 A 
ATOM     37  C   UNL     1      -1.261   3.739   6.746  0.00  0.00    +0.009 A 
ATOM     38  C   UNL     1      -2.215   4.628   7.191  0.00  0.00    +0.033 A 
ATOM     39  C   UNL     1      -3.551   4.280   7.162  0.00  0.00    -0.065 A 
ATOM     40  C   UNL     1      -3.944   3.091   6.570  0.00  0.00    -0.004 A 
ATOM     41  C   UNL     1      -4.582   5.218   7.743  0.00  0.00    +0.095 C 
ATOM     42  C   UNL     1      -2.995   2.199   6.118  0.00  0.00    +0.021 A 
ATOM     43  C   UNL     1       0.936   0.404   4.831  0.00  0.00    -0.144 A 
ATOM     44  C   UNL     1      -0.401   2.547   8.874  0.00  0.00    +0.004 A 
ATOM     45  C   UNL     1      -4.352   4.742  10.172  0.00  0.00    -0.125 A 
ATOM     46  C   UNL     1      -4.092   5.748   9.085  0.00  0.00    +0.241 C 
ENDROOT
BRANCH   7   8
ATOM      8  O   UNL     1      -5.038   1.841  13.038  0.00  0.00    -0.303 OA
ATOM      9  C   UNL     1      -6.197   2.006  13.856  0.00  0.00    +0.237 C 
ENDBRANCH   7   8
BRANCH  10  11
ATOM     11  O   UNL     1      -2.823   1.666  11.414  0.00  0.00    -0.494 OA
ATOM     12  H   UNL     1      -1.944   1.589  10.757  0.00  0.00    +0.417 HD
ENDBRANCH  10  11
BRANCH  28  29
ATOM     29  O   UNL     1      -0.682   1.547   1.184  0.00  0.00    -0.323 OA
ATOM     30  C   UNL     1      -0.013   1.086   0.008  0.00  0.00    +0.249 C 
ENDBRANCH  28  29
BRANCH  31  32
ATOM     32  O   UNL     1      -1.854   2.378   3.534  0.00  0.00    -0.499 OA
ATOM     33  H   UNL     1      -2.280   2.682   2.567  0.00  0.00    +0.433 HD
ENDBRANCH  31  32
TORSDOF 4
