REMARK  Name = ZINC95486173
REMARK  14 active torsions:
REMARK  status: ('A' for Active; 'I' for Inactive)
REMARK    1  A    between atoms: C1_1  and  C2_2
REMARK    2  A    between atoms: C2_2  and  C3_4
REMARK    3  A    between atoms: C2_2  and  C10_11
REMARK    4  A    between atoms: C3_4  and  C4_5
REMARK    5  A    between atoms: C4_5  and  C5_6
REMARK    6  A    between atoms: C5_6  and  C7_8
REMARK    7  A    between atoms: C7_8  and  C8_9
REMARK    8  A    between atoms: C7_8  and  C9_10
REMARK    9  A    between atoms: C13_15  and  C31_38
REMARK   10  A    between atoms: C14_16  and  C30_37
REMARK   11  A    between atoms: C22_27  and  C29_36
REMARK   12  A    between atoms: C24_29  and  O2_35
REMARK   13  A    between atoms: C26_32  and  C27_33
REMARK   14  A    between atoms: C26_32  and  C28_34
REMARK                            x       y       z     vdW  Elec       q    Type
REMARK                         _______ _______ _______ _____ _____    ______ ____
ROOT
ATOM      3  C   UNL     1       0.848  -0.516   1.173  0.00  0.00    +0.002 C 
ATOM      4  C   UNL     1       1.073  -2.049   1.045  0.00  0.00    +0.004 C 
ATOM      5  C   UNL     1       2.565  -2.308   1.376  0.00  0.00    +0.013 C 
ATOM      6  C   UNL     1       3.054  -0.973   1.950  0.00  0.00    -0.049 C 
ATOM      7  C   UNL     1       2.590  -0.895   3.408  0.00  0.00    +0.021 C 
ATOM      8  C   UNL     1       4.538  -0.700   1.848  0.00  0.00    +0.021 C 
ATOM      9  C   UNL     1       5.330  -1.704   2.688  0.00  0.00    +0.010 C 
ATOM     10  C   UNL     1       6.821  -1.395   2.625  0.00  0.00    +0.024 C 
ATOM     11  C   UNL     1       7.163   0.036   3.000  0.00  0.00    +0.001 C 
ATOM     12  C   UNL     1       6.303   1.048   2.268  0.00  0.00    +0.001 C 
ATOM     13  C   UNL     1       6.739   1.041   0.787  0.00  0.00    +0.039 C 
ATOM     14  C   UNL     1       6.507   2.452   2.771  0.00  0.00    +0.004 C 
ATOM     15  C   UNL     1       7.154   2.754   3.886  0.00  0.00    +0.002 C 
ATOM     18  C   UNL     1       7.724   1.708   4.740  0.00  0.00    +0.375 C 
ATOM     19  O   UNL     1       8.482   1.986   5.648  0.00  0.00    -0.447 OA
ATOM     20  C   UNL     1       7.326   0.263   4.489  0.00  0.00    -0.080 C 
ATOM     21  C   UNL     1       8.473  -0.620   5.026  0.00  0.00    +0.053 C 
ATOM     22  C   UNL     1       6.066  -0.050   5.296  0.00  0.00    +0.064 C 
ATOM     23  C   UNL     1       4.814   0.718   2.353  0.00  0.00    +0.012 C 
ATOM     24  C   UNL     1       3.994   1.758   1.594  0.00  0.00    +0.007 C 
ATOM     25  C   UNL     1       2.491   1.437   1.632  0.00  0.00    +0.021 C 
ATOM     26  C   UNL     1       2.276   0.046   1.082  0.00  0.00    -0.044 C 
ATOM     27  C   UNL     1       2.721  -0.014  -0.387  0.00  0.00    +0.024 C 
ENDROOT
BRANCH   3   2
ATOM      1  C   UNL     1      -0.173   1.511   0.124  0.00  0.00    +0.012 C 
ATOM      2  C   UNL     1       0.002  -0.004   0.002  0.00  0.00    -0.012 C 
BRANCH   2  28
ATOM     28  C   UNL     1      -1.370  -0.680   0.030  0.00  0.00    +0.016 C 
BRANCH  28  29
ATOM     29  C   UNL     1      -2.169  -0.265  -1.207  0.00  0.00    +0.050 C 
BRANCH  29  30
ATOM     30  C   UNL     1      -3.520  -0.931  -1.180  0.00  0.00    -0.112 C 
ATOM     34  C   UNL     1      -4.553  -0.295  -0.685  0.00  0.00    -0.008 C 
BRANCH  30  31
ATOM     31  C   UNL     1      -3.683  -2.327  -1.722  0.00  0.00    +0.010 C 
ATOM     32  C   UNL     1      -2.783  -3.286  -0.940  0.00  0.00    +0.024 C 
ATOM     33  C   UNL     1      -3.290  -2.350  -3.200  0.00  0.00    +0.022 C 
ENDBRANCH  30  31
ENDBRANCH  29  30
ENDBRANCH  28  29
ENDBRANCH   2  28
ENDBRANCH   3   2
BRANCH  15  16
ATOM     16  O   UNL     1       7.291   4.061   4.247  0.00  0.00    -0.476 OA
ATOM     17  H   UNL     1       7.776   4.192   5.073  0.00  0.00    +0.399 HD
ENDBRANCH  15  16
TORSDOF 6
