REMARK  Name = ZINC35941652
REMARK  4 active torsions:
REMARK  status: ('A' for Active; 'I' for Inactive)
REMARK    1  A    between atoms: C1_1  and  C2_2
REMARK    2  A    between atoms: C2_2  and  C20_25
REMARK    3  A    between atoms: C7_7  and  C11_12
REMARK    4  A    between atoms: C17_20  and  O4_24
REMARK                            x       y       z     vdW  Elec       q    Type
REMARK                         _______ _______ _______ _____ _____    ______ ____
ROOT
ATOM      9  C   UNL     1       6.274   0.210   1.514  0.00  0.00    +0.240 C 
ATOM     10  C   UNL     1       6.960  -1.162   1.437  0.00  0.00    +0.038 C 
ATOM     11  C   UNL     1       8.453  -0.925   1.579  0.00  0.00    +0.402 C 
ATOM     12  C   UNL     1       8.868   0.086   2.563  0.00  0.00    -0.265 A 
ATOM     13  C   UNL     1      10.207   0.200   2.949  0.00  0.00    +0.135 A 
ATOM     14  C   UNL     1      10.572   1.150   3.860  0.00  0.00    -0.051 A 
ATOM     15  C   UNL     1       9.616   2.004   4.405  0.00  0.00    +0.181 A 
ATOM     18  C   UNL     1       8.284   1.901   4.034  0.00  0.00    -0.045 A 
ATOM     19  C   UNL     1       7.896   0.941   3.113  0.00  0.00    +0.201 A 
ATOM     20  O   UNL     1       9.263  -1.537   0.914  0.00  0.00    -0.442 OA
ATOM     21  O   UNL     1       6.594   0.830   2.759  0.00  0.00    -0.300 OA
ENDROOT
BRANCH   9   8
ATOM      1  C   UNL     1      -0.019   1.526   0.010  0.00  0.00    +0.030 C 
ATOM      2  C   UNL     1       0.002  -0.004   0.002  0.00  0.00    +0.112 C 
ATOM      3  C   UNL     1      -1.432  -0.539  -0.000  0.00  0.00    +0.075 C 
ATOM      4  C   UNL     1       0.743  -0.504  -1.245  0.00  0.00    +0.016 C 
ATOM      5  C   UNL     1       2.132   0.137  -1.268  0.00  0.00    +0.085 C 
ATOM      6  C   UNL     1       2.782  -0.009   0.085  0.00  0.00    -0.159 A 
ATOM      7  C   UNL     1       4.153   0.155   0.187  0.00  0.00    +0.062 A 
ATOM      8  C   UNL     1       4.781   0.031   1.411  0.00  0.00    -0.127 A 
ATOM     22  C   UNL     1       4.039  -0.257   2.542  0.00  0.00    +0.078 A 
ATOM     23  C   UNL     1       2.673  -0.423   2.446  0.00  0.00    -0.016 A 
ATOM     24  C   UNL     1       2.037  -0.302   1.214  0.00  0.00    +0.149 A 
ATOM     25  O   UNL     1       0.692  -0.482   1.158  0.00  0.00    -0.307 OA
ENDBRANCH   9   8
BRANCH  15  16
ATOM     16  O   UNL     1       9.992   2.945   5.308  0.00  0.00    -0.494 OA
ATOM     17  H   UNL     1      10.239   3.792   4.912  0.00  0.00    +0.401 HD
ENDBRANCH  15  16
TORSDOF 2
