REMARK  Name = ZINC38362222
REMARK  17 active torsions:
REMARK  status: ('A' for Active; 'I' for Inactive)
REMARK    1  A    between atoms: C1_1  and  C2_2
REMARK    2  A    between atoms: C9_10  and  O4_21
REMARK    3  A    between atoms: C10_11  and  C15_20
REMARK    4  A    between atoms: C12_13  and  O3_19
REMARK    5  A    between atoms: C13_15  and  O2_18
REMARK    6  A    between atoms: C16_22  and  O8_39
REMARK    7  A    between atoms: C19_25  and  C20_27
REMARK    8  A    between atoms: C20_27  and  C21_28
REMARK    9  A    between atoms: C20_27  and  C22_29
REMARK   10  A    between atoms: C20_27  and  O7_38
REMARK   11  A    between atoms: C22_29  and  C23_31
REMARK   12  A    between atoms: C22_29  and  O6_37
REMARK   13  A    between atoms: C23_31  and  C24_32
REMARK   14  A    between atoms: C24_32  and  C25_33
REMARK   15  A    between atoms: C25_33  and  C26_34
REMARK   16  A    between atoms: C25_33  and  C27_35
REMARK   17  A    between atoms: C25_33  and  O5_36
REMARK                            x       y       z     vdW  Elec       q    Type
REMARK                         _______ _______ _______ _____ _____    ______ ____
ROOT
ATOM      1  C   UNL     1      -0.240   1.780   0.391  0.00  0.00    +0.050 C 
ATOM      2  C   UNL     1      -0.188   0.266   0.180  0.00  0.00    -0.039 C 
ATOM      3  C   UNL     1      -1.562  -0.296   0.416  0.00  0.00    +0.092 C 
ATOM      4  C   UNL     1      -1.927  -0.185   1.875  0.00  0.00    +0.041 C 
ATOM      5  C   UNL     1      -1.054   0.095   2.834  0.00  0.00    -0.117 C 
ATOM      6  C   UNL     1       0.388   0.202   2.538  0.00  0.00    +0.027 C 
ATOM      7  C   UNL     1       1.232   0.745   3.433  0.00  0.00    -0.108 C 
ATOM      8  C   UNL     1       0.746   1.290   4.637  0.00  0.00    +0.366 C 
ATOM      9  C   UNL     1      -0.729   1.432   4.877  0.00  0.00    +0.115 C 
ATOM     12  C   UNL     1      -1.027   1.567   6.365  0.00  0.00    +0.051 C 
ATOM     13  C   UNL     1      -0.649   0.277   7.095  0.00  0.00    +0.140 C 
ATOM     16  C   UNL     1      -1.457  -0.884   6.510  0.00  0.00    +0.137 C 
ATOM     19  C   UNL     1      -1.118  -1.037   5.027  0.00  0.00    +0.060 C 
ATOM     20  O   UNL     1       1.531   1.650   5.492  0.00  0.00    -0.449 OA
ATOM     21  C   UNL     1      -1.484   0.246   4.276  0.00  0.00    +0.011 C 
ATOM     22  C   UNL     1      -2.992   0.496   4.347  0.00  0.00    +0.071 C 
ATOM     23  C   UNL     1       0.470  -0.012  -1.163  0.00  0.00    +0.001 C 
ATOM     38  C   UNL     1       1.993  -0.022  -0.875  0.00  0.00    +0.025 C 
ATOM     39  C   UNL     1       2.149   0.169   0.659  0.00  0.00    +0.016 C 
ATOM     40  C   UNL     1       0.809  -0.335   1.207  0.00  0.00    +0.154 C 
ENDROOT
BRANCH   9  10
ATOM     10  O   UNL     1      -1.180   2.618   4.218  0.00  0.00    -0.529 OA
ATOM     11  H   UNL     1      -0.751   3.427   4.529  0.00  0.00    +0.380 HD
ENDBRANCH   9  10
BRANCH  13  14
ATOM     14  O   UNL     1      -0.942   0.410   8.487  0.00  0.00    -0.560 OA
ATOM     15  H   UNL     1      -0.732  -0.375   9.010  0.00  0.00    +0.380 HD
ENDBRANCH  13  14
BRANCH  16  17
ATOM     17  O   UNL     1      -2.853  -0.617   6.656  0.00  0.00    -0.545 OA
ATOM     18  H   UNL     1      -3.140  -0.508   7.573  0.00  0.00    +0.377 HD
ENDBRANCH  16  17
BRANCH  23  24
ATOM     24  C   UNL     1       0.126   1.095  -2.162  0.00  0.00    +0.113 C 
ATOM     37  C   UNL     1      -1.394   1.197  -2.307  0.00  0.00    +0.058 C 
BRANCH  24  25
ATOM     25  O   UNL     1       0.644   2.340  -1.689  0.00  0.00    -0.541 OA
ATOM     26  H   UNL     1       1.604   2.349  -1.574  0.00  0.00    +0.370 HD
ENDBRANCH  24  25
BRANCH  24  27
ATOM     27  C   UNL     1       0.747   0.767  -3.521  0.00  0.00    +0.180 C 
BRANCH  27  28
ATOM     28  O   UNL     1       0.229  -0.478  -3.993  0.00  0.00    -0.553 OA
ATOM     29  H   UNL     1      -0.731  -0.486  -4.109  0.00  0.00    +0.372 HD
ENDBRANCH  27  28
BRANCH  27  30
ATOM     30  C   UNL     1       0.403   1.874  -4.519  0.00  0.00    +0.010 C 
BRANCH  30  31
ATOM     31  C   UNL     1       1.126   1.611  -5.842  0.00  0.00    +0.044 C 
BRANCH  31  32
ATOM     32  C   UNL     1       0.782   2.718  -6.840  0.00  0.00    +0.125 C 
ATOM     35  C   UNL     1      -0.738   2.820  -6.986  0.00  0.00    +0.007 C 
ATOM     36  C   UNL     1       1.403   2.390  -8.200  0.00  0.00    +0.006 C 
BRANCH  32  33
ATOM     33  O   UNL     1       1.300   3.963  -6.368  0.00  0.00    -0.560 OA
ATOM     34  H   UNL     1       1.118   4.712  -6.953  0.00  0.00    +0.375 HD
ENDBRANCH  32  33
ENDBRANCH  31  32
ENDBRANCH  30  31
ENDBRANCH  27  30
ENDBRANCH  24  27
ENDBRANCH  23  24
BRANCH  40  41
ATOM     41  O   UNL     1       0.749  -1.762   1.207  0.00  0.00    -0.533 OA
ATOM     42  H   UNL     1       1.355  -2.182   1.833  0.00  0.00    +0.377 HD
ENDBRANCH  40  41
TORSDOF 12
