REMARK  Name = ZINC95486313
REMARK  14 active torsions:
REMARK  status: ('A' for Active; 'I' for Inactive)
REMARK    1  A    between atoms: C1_1  and  C2_2
REMARK    2  A    between atoms: C2_2  and  C3_3
REMARK    3  A    between atoms: C3_3  and  C4_5
REMARK    4  A    between atoms: C3_3  and  C5_6
REMARK    5  A    between atoms: C5_6  and  O2_8
REMARK    6  A    between atoms: O2_8  and  C6_9
REMARK    7  A    between atoms: C10_16  and  C18_28
REMARK    8  A    between atoms: C13_19  and  C17_26
REMARK    9  A    between atoms: C14_20  and  O3_22
REMARK   10  A    between atoms: O3_22  and  C15_23
REMARK   11  A    between atoms: C15_23  and  C16_25
REMARK   12  A    between atoms: C18_28  and  O6_29
REMARK   13  A    between atoms: O6_29  and  C19_30
REMARK   14  A    between atoms: C19_30  and  C20_32
REMARK                            x       y       z     vdW  Elec       q    Type
REMARK                         _______ _______ _______ _____ _____    ______ ____
ROOT
ATOM      6  C   UNL     1      -2.302  -4.026   0.490  0.00  0.00    +0.208 C 
ATOM      7  C   UNL     1      -3.336  -4.815  -0.333  0.00  0.00    +0.051 C 
ATOM      8  C   UNL     1      -4.730  -4.103  -0.401  0.00  0.00    +0.214 C 
ATOM      9  O   UNL     1      -4.573  -2.887  -1.086  0.00  0.00    -0.337 OA
ATOM     10  C   UNL     1      -4.339  -2.988  -2.488  0.00  0.00    +0.253 C 
ATOM     11  C   UNL     1      -3.268  -4.009  -2.784  0.00  0.00    +0.361 C 
ATOM     12  O   UNL     1      -2.752  -4.047  -3.898  0.00  0.00    -0.456 OA
ATOM     13  C   UNL     1      -5.010  -4.000   1.081  0.00  0.00    +0.026 C 
ATOM     14  C   UNL     1      -4.889  -2.894   1.732  0.00  0.00    -0.103 C 
ATOM     20  C   UNL     1      -4.809  -3.012   3.245  0.00  0.00    +0.128 C 
ATOM     21  C   UNL     1      -3.359  -2.607   3.445  0.00  0.00    +0.080 C 
ATOM     22  C   UNL     1      -2.310  -3.229   2.887  0.00  0.00    -0.238 C 
ATOM     25  C   UNL     1      -2.832  -4.958  -1.749  0.00  0.00    -0.217 C 
ATOM     26  C   UNL     1      -1.990  -5.959  -2.065  0.00  0.00    +0.165 C 
ATOM     27  C   UNL     1      -2.292  -4.461   1.987  0.00  0.00    +0.233 C 
ENDROOT
BRANCH  22  23
ATOM     23  C   UNL     1      -0.992  -2.640   3.201  0.00  0.00    +0.437 C 
ATOM     24  O   UNL     1       0.018  -3.132   2.743  0.00  0.00    -0.417 OA
ENDBRANCH  22  23
BRANCH   6   5
ATOM      5  O   UNL     1      -2.458  -2.623   0.343  0.00  0.00    -0.307 OA
BRANCH   5   4
ATOM      4  C   UNL     1      -1.342  -1.878   0.381  0.00  0.00    +0.443 C 
ATOM     32  O   UNL     1      -0.267  -2.408   0.537  0.00  0.00    -0.476 OA
BRANCH   4   3
ATOM      3  C   UNL     1      -1.430  -0.381   0.231  0.00  0.00    +0.023 C 
ATOM     33  C   UNL     1      -2.055  -0.041  -1.123  0.00  0.00    +0.061 C 
BRANCH   3   2
ATOM      1  C   UNL     1      -0.126   1.749   0.284  0.00  0.00    +0.024 C 
ATOM      2  C   UNL     1      -0.026   0.223   0.311  0.00  0.00    +0.031 C 
ENDBRANCH   3   2
ENDBRANCH   4   3
ENDBRANCH   5   4
ENDBRANCH   6   5
BRANCH  14  15
ATOM     15  C   UNL     1      -4.943  -1.514   1.142  0.00  0.00    +0.287 C 
BRANCH  15  16
ATOM     16  O   UNL     1      -5.919  -0.736   1.837  0.00  0.00    -0.355 OA
BRANCH  16  17
ATOM     17  C   UNL     1      -6.138   0.510   1.387  0.00  0.00    +0.458 C 
ATOM     18  C   UNL     1      -7.085   1.421   2.124  0.00  0.00    +0.150 C 
ATOM     19  O   UNL     1      -5.576   0.900   0.392  0.00  0.00    -0.507 OA
ENDBRANCH  16  17
ENDBRANCH  15  16
ENDBRANCH  14  15
BRANCH  27  28
ATOM     28  O   UNL     1      -3.325  -5.378   2.315  0.00  0.00    -0.332 OA
BRANCH  28  29
ATOM     29  C   UNL     1      -3.072  -6.253   3.301  0.00  0.00    +0.451 C 
ATOM     30  C   UNL     1      -4.120  -7.257   3.704  0.00  0.00    +0.159 C 
ATOM     31  O   UNL     1      -2.003  -6.236   3.865  0.00  0.00    -0.499 OA
ENDBRANCH  28  29
ENDBRANCH  27  28
TORSDOF 10
