REMARK  Name = ZINC95486307
REMARK  8 active torsions:
REMARK  status: ('A' for Active; 'I' for Inactive)
REMARK    1  A    between atoms: C1_1  and  C2_2
REMARK    2  A    between atoms: C10_14  and  O5_32
REMARK    3  A    between atoms: C13_19  and  C21_31
REMARK    4  A    between atoms: C14_20  and  O4_30
REMARK    5  A    between atoms: C17_24  and  C18_25
REMARK    6  A    between atoms: C17_24  and  C19_26
REMARK    7  A    between atoms: C19_26  and  O3_28
REMARK    8  A    between atoms: O3_28  and  C20_29
REMARK                            x       y       z     vdW  Elec       q    Type
REMARK                         _______ _______ _______ _____ _____    ______ ____
ROOT
ATOM      1  C   UNL     1      -0.335   1.745   1.129  0.00  0.00    +0.027 C 
ATOM      2  C   UNL     1      -0.404   0.217   1.082  0.00  0.00    +0.073 C 
ATOM      3  C   UNL     1      -0.136  -0.255  -0.320  0.00  0.00    -0.171 A 
ATOM      4  C   UNL     1      -1.000  -0.237  -1.430  0.00  0.00    -0.054 A 
ATOM      5  C   UNL     1      -0.312  -0.761  -2.463  0.00  0.00    +0.154 A 
ATOM      6  O   UNL     1       0.918  -1.092  -2.032  0.00  0.00    -0.173 OA
ATOM      7  C   UNL     1       1.031  -0.791  -0.733  0.00  0.00    -0.016 A 
ATOM      8  C   UNL     1       2.222  -0.996   0.165  0.00  0.00    +0.136 C 
ATOM      9  C   UNL     1       2.051  -0.148   1.437  0.00  0.00    +0.041 C 
ATOM     10  C   UNL     1       3.124  -0.601   2.433  0.00  0.00    -0.038 C 
ATOM     11  C   UNL     1       2.976  -2.102   2.689  0.00  0.00    +0.026 C 
ATOM     12  C   UNL     1       4.509  -0.334   1.839  0.00  0.00    +0.169 C 
ATOM     15  C   UNL     1       5.585  -0.805   2.820  0.00  0.00    -0.003 C 
ATOM     16  C   UNL     1       5.439  -0.043   4.139  0.00  0.00    +0.062 C 
ATOM     17  C   UNL     1       4.051  -0.303   4.745  0.00  0.00    -0.045 C 
ATOM     22  C   UNL     1       3.899   0.468   6.057  0.00  0.00    +0.066 C 
ATOM     23  C   UNL     1       2.974   0.153   3.757  0.00  0.00    +0.043 C 
ATOM     24  C   UNL     1       1.591  -0.145   4.345  0.00  0.00    +0.006 C 
ATOM     25  C   UNL     1       0.525   0.350   3.370  0.00  0.00    +0.172 C 
ATOM     28  C   UNL     1       0.656  -0.375   2.026  0.00  0.00    +0.015 C 
ENDROOT
BRANCH  12  13
ATOM     13  O   UNL     1       4.663   1.067   1.601  0.00  0.00    -0.560 OA
ATOM     14  H   UNL     1       5.520   1.310   1.223  0.00  0.00    +0.378 HD
ENDBRANCH  12  13
BRANCH  17  18
ATOM     18  C   UNL     1       3.896  -1.779   5.008  0.00  0.00    +0.483 C 
ATOM     21  O   UNL     1       4.827  -2.527   4.821  0.00  0.00    -0.508 OA
BRANCH  18  19
ATOM     19  O   UNL     1       2.725  -2.263   5.452  0.00  0.00    -0.344 OA
ATOM     20  C   UNL     1       2.650  -3.671   5.681  0.00  0.00    +0.248 C 
ENDBRANCH  18  19
ENDBRANCH  17  18
BRANCH  25  26
ATOM     26  O   UNL     1      -0.769   0.096   3.921  0.00  0.00    -0.563 OA
ATOM     27  H   UNL     1      -0.924   0.524   4.774  0.00  0.00    +0.377 HD
ENDBRANCH  25  26
TORSDOF 4
