REMARK  Name = ZINC95485918
REMARK  8 active torsions:
REMARK  status: ('A' for Active; 'I' for Inactive)
REMARK    1  A    between atoms: C1_1  and  C2_2
REMARK    2  A    between atoms: C2_2  and  C3_3
REMARK    3  A    between atoms: C2_2  and  C4_4
REMARK    4  A    between atoms: C2_2  and  C6_6
REMARK    5  A    between atoms: C7_7  and  O5_24
REMARK    6  A    between atoms: C11_11  and  O1_12
REMARK    7  A    between atoms: C15_17  and  O4_22
REMARK    8  A    between atoms: O4_22  and  C19_23
REMARK                            x       y       z     vdW  Elec       q    Type
REMARK                         _______ _______ _______ _____ _____    ______ ____
ROOT
ATOM      3  C   UNL     1       0.621  -0.590  -1.241  0.00  0.00    -0.156 A 
ATOM      4  C   UNL     1       1.216   0.244  -2.181  0.00  0.00    +0.200 A 
ATOM      7  C   UNL     1       1.815  -0.280  -3.316  0.00  0.00    -0.036 A 
ATOM      8  C   UNL     1       1.831  -1.652  -3.528  0.00  0.00    +0.192 A 
ATOM      9  C   UNL     1       1.238  -2.496  -2.572  0.00  0.00    -0.267 A 
ATOM     10  C   UNL     1       1.283  -3.951  -2.796  0.00  0.00    +0.443 A 
ATOM     11  C   UNL     1       2.197  -4.413  -3.864  0.00  0.00    -0.181 A 
ATOM     12  C   UNL     1       2.526  -5.760  -3.995  0.00  0.00    +0.087 A 
ATOM     13  C   UNL     1       3.387  -6.158  -5.001  0.00  0.00    +0.103 A 
ATOM     16  C   UNL     1       3.918  -5.214  -5.875  0.00  0.00    +0.003 A 
ATOM     17  C   UNL     1       3.595  -3.880  -5.751  0.00  0.00    +0.050 A 
ATOM     18  C   UNL     1       2.728  -3.460  -4.747  0.00  0.00    +0.116 A 
ATOM     19  O   UNL     1       0.610  -4.727  -2.142  0.00  0.00    -0.429 OA
ATOM     20  O   UNL     1       2.406  -2.155  -4.638  0.00  0.00    -0.223 OA
ATOM     21  C   UNL     1       0.631  -1.960  -1.428  0.00  0.00    +0.224 A 
ENDROOT
BRANCH   3   2
ATOM      1  C   UNL     1      -1.253   0.819  -0.432  0.00  0.00    +0.046 C 
ATOM      2  C   UNL     1      -0.030  -0.002  -0.016  0.00  0.00    +0.016 C 
ATOM     26  C   UNL     1       0.970   0.904   0.707  0.00  0.00    +0.044 C 
BRANCH   2  24
ATOM     24  C   UNL     1      -0.460  -1.113   0.907  0.00  0.00    +0.006 C 
ATOM     25  C   UNL     1      -1.724  -1.246   1.227  0.00  0.00    -0.030 C 
ENDBRANCH   2  24
ENDBRANCH   3   2
BRANCH   4   5
ATOM      5  O   UNL     1       1.210   1.587  -1.985  0.00  0.00    -0.481 OA
ATOM      6  H   UNL     1       2.017   1.928  -1.575  0.00  0.00    +0.400 HD
ENDBRANCH   4   5
BRANCH  13  14
ATOM     14  O   UNL     1       3.714  -7.470  -5.138  0.00  0.00    -0.311 OA
ATOM     15  C   UNL     1       4.608  -7.809  -6.199  0.00  0.00    +0.246 C 
ENDBRANCH  13  14
BRANCH  21  22
ATOM     22  O   UNL     1       0.053  -2.779  -0.514  0.00  0.00    -0.463 OA
ATOM     23  H   UNL     1      -0.881  -2.963  -0.685  0.00  0.00    +0.401 HD
ENDBRANCH  21  22
TORSDOF 5
