REMARK  Name = ZINC95486081
REMARK  7 active torsions:
REMARK  status: ('A' for Active; 'I' for Inactive)
REMARK    1  A    between atoms: C1_1  and  C2_2
REMARK    2  A    between atoms: C2_2  and  C23_31
REMARK    3  A    between atoms: C3_3  and  C4_4
REMARK    4  A    between atoms: C4_4  and  C5_5
REMARK    5  A    between atoms: C9_10  and  C14_18
REMARK    6  A    between atoms: C13_15  and  O2_17
REMARK    7  A    between atoms: C20_26  and  O5_30
REMARK                            x       y       z     vdW  Elec       q    Type
REMARK                         _______ _______ _______ _____ _____    ______ ____
ROOT
ATOM      6  C   UNL     1      -0.879  -0.572   3.395  0.00  0.00    -0.007 C 
ATOM      7  C   UNL     1      -0.801   0.108   4.765  0.00  0.00    +0.101 C 
ATOM      8  C   UNL     1      -1.974  -0.320   5.610  0.00  0.00    -0.144 A 
ATOM      9  C   UNL     1      -1.910  -0.134   6.981  0.00  0.00    +0.060 A 
ATOM     10  C   UNL     1      -2.967  -0.510   7.786  0.00  0.00    -0.122 A 
ATOM     24  C   UNL     1      -4.097  -1.075   7.223  0.00  0.00    +0.074 A 
ATOM     25  C   UNL     1      -4.166  -1.264   5.859  0.00  0.00    -0.013 A 
ATOM     26  C   UNL     1      -3.102  -0.887   5.045  0.00  0.00    +0.144 A 
ATOM     27  O   UNL     1      -3.203  -1.099   3.707  0.00  0.00    -0.334 OA
ATOM     28  C   UNL     1      -2.302  -0.397   2.849  0.00  0.00    +0.381 C 
ENDROOT
BRANCH  10  11
ATOM     11  C   UNL     1      -2.889  -0.306   9.277  0.00  0.00    +0.240 C 
ATOM     12  C   UNL     1      -2.398  -1.599   9.946  0.00  0.00    +0.038 C 
ATOM     13  C   UNL     1      -2.371  -1.347  11.443  0.00  0.00    +0.402 C 
ATOM     14  C   UNL     1      -3.491  -0.573  12.000  0.00  0.00    -0.265 A 
ATOM     15  C   UNL     1      -3.692  -0.502  13.382  0.00  0.00    +0.135 A 
ATOM     16  C   UNL     1      -4.734   0.228  13.879  0.00  0.00    -0.051 A 
ATOM     17  C   UNL     1      -5.596   0.900  13.015  0.00  0.00    +0.181 A 
ATOM     20  C   UNL     1      -5.409   0.837  11.642  0.00  0.00    -0.045 A 
ATOM     21  C   UNL     1      -4.359   0.098  11.121  0.00  0.00    +0.201 A 
ATOM     22  O   UNL     1      -1.472  -1.763  12.144  0.00  0.00    -0.442 OA
ATOM     23  O   UNL     1      -4.183   0.025   9.781  0.00  0.00    -0.300 OA
BRANCH  17  18
ATOM     18  O   UNL     1      -6.625   1.624  13.522  0.00  0.00    -0.494 OA
ATOM     19  H   UNL     1      -6.404   2.547  13.705  0.00  0.00    +0.401 HD
ENDBRANCH  17  18
ENDBRANCH  10  11
BRANCH  28  29
ATOM     29  O   UNL     1      -2.643   0.991   2.829  0.00  0.00    -0.562 OA
ATOM     30  H   UNL     1      -3.531   1.173   2.494  0.00  0.00    +0.387 HD
ENDBRANCH  28  29
BRANCH   6   5
ATOM      5  C   UNL     1       0.123   0.078   2.439  0.00  0.00    +0.077 C 
BRANCH   5   4
ATOM      1  C   UNL     1      -0.189   1.489   0.018  0.00  0.00    +0.075 C 
ATOM      2  C   UNL     1      -0.082  -0.014   0.008  0.00  0.00    -0.122 C 
ATOM      3  C   UNL     1      -0.208  -0.771  -1.289  0.00  0.00    +0.073 C 
ATOM      4  C   UNL     1       0.121  -0.664   1.128  0.00  0.00    -0.071 C 
ENDBRANCH   5   4
ENDBRANCH   6   5
TORSDOF 5
