REMARK  Name = ZINC14590768
REMARK  4 active torsions:
REMARK  status: ('A' for Active; 'I' for Inactive)
REMARK    1  A    between atoms: C1_1  and  C2_2
REMARK    2  A    between atoms: C2_2  and  C13_15
REMARK    3  A    between atoms: C3_3  and  C4_4
REMARK    4  A    between atoms: C4_4  and  C5_5
REMARK                            x       y       z     vdW  Elec       q    Type
REMARK                         _______ _______ _______ _____ _____    ______ ____
ROOT
ATOM      6  C   UNL     1       3.366   2.564  -0.015  0.00  0.00    -0.053 A 
ATOM      7  C   UNL     1       2.916   3.877  -0.005  0.00  0.00    -0.020 A 
ATOM      8  C   UNL     1       1.578   4.152   0.009  0.00  0.00    +0.054 A 
ATOM      9  C   UNL     1       0.654   3.105   0.012  0.00  0.00    -0.115 A 
ATOM     10  C   UNL     1      -0.809   3.037   0.025  0.00  0.00    -0.059 A 
ATOM     11  C   UNL     1      -1.142   1.737   0.016  0.00  0.00    +0.219 A 
ATOM     12  N   UNL     1      -0.011   0.966   0.007  0.00  0.00    -0.598 N 
ATOM     13  H   UNL     1       0.002  -0.004   0.002  0.00  0.00    +0.415 HD
ATOM     14  C   UNL     1       1.105   1.772   0.001  0.00  0.00    +0.097 A 
ATOM     15  C   UNL     1       2.472   1.515  -0.013  0.00  0.00    -0.010 A 
ENDROOT
BRANCH   6   5
ATOM      5  C   UNL     1       4.846   2.282  -0.030  0.00  0.00    +0.108 C 
BRANCH   5   4
ATOM      1  C   UNL     1       6.238  -0.019   0.808  0.00  0.00    +0.072 C 
ATOM      2  C   UNL     1       5.999   1.111   1.776  0.00  0.00    -0.133 C 
ATOM      3  C   UNL     1       6.505   1.010   3.192  0.00  0.00    +0.072 C 
ATOM      4  C   UNL     1       5.352   2.181   1.386  0.00  0.00    -0.048 C 
ENDBRANCH   5   4
ENDBRANCH   6   5
TORSDOF 2
