REMARK  Name = ZINC95486075
REMARK  11 active torsions:
REMARK  status: ('A' for Active; 'I' for Inactive)
REMARK    1  A    between atoms: C1_1  and  C2_2
REMARK    2  A    between atoms: C5_5  and  O3_38
REMARK    3  A    between atoms: C6_7  and  C29_36
REMARK    4  A    between atoms: C6_7  and  C30_37
REMARK    5  A    between atoms: C10_12  and  C28_35
REMARK    6  A    between atoms: C15_18  and  C27_34
REMARK    7  A    between atoms: C17_20  and  O2_33
REMARK    8  A    between atoms: C18_22  and  C26_31
REMARK    9  A    between atoms: C21_26  and  C24_29
REMARK   10  A    between atoms: C21_26  and  C25_30
REMARK   11  A    between atoms: C26_31  and  O1_32
REMARK                            x       y       z     vdW  Elec       q    Type
REMARK                         _______ _______ _______ _____ _____    ______ ____
ROOT
ATOM      1  C   UNL     1       0.025   2.544  -1.922  0.00  0.00    +0.026 C 
ATOM      2  C   UNL     1      -0.163   1.113  -1.431  0.00  0.00    -0.037 C 
ATOM      3  C   UNL     1      -1.658   0.769  -1.597  0.00  0.00    +0.019 C 
ATOM      4  C   UNL     1      -2.487   1.714  -0.730  0.00  0.00    -0.020 C 
ATOM      5  C   UNL     1      -2.144   1.527   0.742  0.00  0.00    +0.165 C 
ATOM      8  C   UNL     1      -0.650   1.675   1.025  0.00  0.00    -0.039 C 
ATOM      9  C   UNL     1      -0.273   3.151   1.116  0.00  0.00    +0.034 C 
ATOM     10  C   UNL     1      -0.413   1.061   2.428  0.00  0.00    +0.017 C 
ATOM     11  C   UNL     1       0.641   0.130  -2.302  0.00  0.00    +0.015 C 
ATOM     12  C   UNL     1       0.075  -1.262  -1.976  0.00  0.00    +0.057 C 
ATOM     13  C   UNL     1       0.897  -2.356  -2.573  0.00  0.00    -0.057 C 
ATOM     14  C   UNL     1       2.120  -2.205  -2.966  0.00  0.00    -0.098 C 
ATOM     15  C   UNL     1       2.861  -0.905  -2.876  0.00  0.00    +0.004 C 
ATOM     16  C   UNL     1       4.231  -1.134  -2.236  0.00  0.00    +0.026 C 
ATOM     17  C   UNL     1       3.114  -0.441  -4.311  0.00  0.00    +0.001 C 
ATOM     18  C   UNL     1       2.998  -1.585  -5.309  0.00  0.00    +0.160 C 
ATOM     21  C   UNL     1       3.565  -2.928  -4.830  0.00  0.00    -0.010 C 
ATOM     25  C   UNL     1       5.068  -2.862  -4.771  0.00  0.00    +0.037 C 
ATOM     26  C   UNL     1       5.765  -3.581  -3.647  0.00  0.00    +0.011 C 
ATOM     27  C   UNL     1       4.953  -4.685  -2.993  0.00  0.00    -0.051 C 
ATOM     28  C   UNL     1       4.850  -5.902  -3.918  0.00  0.00    +0.020 C 
ATOM     29  C   UNL     1       5.699  -5.136  -1.718  0.00  0.00    +0.017 C 
ATOM     30  C   UNL     1       3.573  -4.212  -2.582  0.00  0.00    +0.034 C 
ATOM     31  C   UNL     1       2.840  -3.386  -3.591  0.00  0.00    +0.027 C 
ATOM     32  C   UNL     1       2.140   0.156  -2.043  0.00  0.00    -0.025 C 
ATOM     33  C   UNL     1       2.772   1.496  -2.473  0.00  0.00    +0.018 C 
ATOM     34  C   UNL     1       2.427  -0.009  -0.551  0.00  0.00    +0.022 C 
ATOM     35  C   UNL     1       1.691   1.082   0.248  0.00  0.00    +0.013 C 
ATOM     36  C   UNL     1       0.194   0.907   0.030  0.00  0.00    +0.003 C 
ENDROOT
BRANCH   5   6
ATOM      6  O   UNL     1      -2.867   2.487   1.525  0.00  0.00    -0.565 OA
ATOM      7  H   UNL     1      -3.828   2.417   1.444  0.00  0.00    +0.374 HD
ENDBRANCH   5   6
BRANCH  18  19
ATOM     19  O   UNL     1       3.660  -1.212  -6.526  0.00  0.00    -0.540 OA
ATOM     20  H   UNL     1       3.295  -0.422  -6.947  0.00  0.00    +0.364 HD
ENDBRANCH  18  19
BRANCH  21  22
ATOM     22  C   UNL     1       3.205  -3.933  -5.957  0.00  0.00    +0.153 C 
BRANCH  22  23
ATOM     23  O   UNL     1       3.732  -3.463  -7.200  0.00  0.00    -0.541 OA
ATOM     24  H   UNL     1       3.545  -4.043  -7.951  0.00  0.00    +0.366 HD
ENDBRANCH  22  23
ENDBRANCH  21  22
TORSDOF 4
