REMARK  Name = ZINC95485979
REMARK  21 active torsions:
REMARK  status: ('A' for Active; 'I' for Inactive)
REMARK    1  A    between atoms: C1_1  and  C2_2
REMARK    2  A    between atoms: C5_5  and  O2_35
REMARK    3  A    between atoms: C8_8  and  C29_33
REMARK    4  A    between atoms: C8_8  and  C30_34
REMARK    5  A    between atoms: C14_15  and  C28_32
REMARK    6  A    between atoms: C18_20  and  C27_31
REMARK    7  A    between atoms: C19_21  and  C26_30
REMARK    8  A    between atoms: C22_24  and  O1_29
REMARK    9  A    between atoms: C23_26  and  C24_27
REMARK   10  A    between atoms: C23_26  and  C25_28
REMARK   11  A    between atoms: O2_35  and  C31_36
REMARK   12  A    between atoms: C31_36  and  C32_38
REMARK   13  A    between atoms: C32_38  and  C33_40
REMARK   14  A    between atoms: C32_38  and  O8_51
REMARK   15  A    between atoms: C33_40  and  C34_42
REMARK   16  A    between atoms: C33_40  and  O7_50
REMARK   17  A    between atoms: C34_42  and  C35_44
REMARK   18  A    between atoms: C34_42  and  O6_49
REMARK   19  A    between atoms: C35_44  and  C36_46
REMARK   20  A    between atoms: C35_44  and  O5_48
REMARK   21  A    between atoms: C36_46  and  O4_47
REMARK                            x       y       z     vdW  Elec       q    Type
REMARK                         _______ _______ _______ _____ _____    ______ ____
ROOT
ATOM      1  C   UNL     1      -0.318   1.252  -0.537  0.00  0.00    +0.022 C 
ATOM      2  C   UNL     1      -0.275  -0.263  -0.731  0.00  0.00    +0.005 C 
ATOM      3  C   UNL     1      -1.744  -0.730  -0.650  0.00  0.00    +0.031 C 
ATOM      4  C   UNL     1      -2.315  -0.414   0.729  0.00  0.00    +0.015 C 
ATOM      5  C   UNL     1      -1.559  -1.176   1.812  0.00  0.00    +0.157 C 
ATOM     24  C   UNL     1      -2.211  -0.965   3.173  0.00  0.00    +0.006 C 
ATOM     25  C   UNL     1      -1.913   0.419   3.736  0.00  0.00    +0.029 C 
ATOM     26  C   UNL     1      -0.405   0.640   3.852  0.00  0.00    -0.068 C 
ATOM     27  C   UNL     1      -0.145   2.052   4.396  0.00  0.00    +0.022 C 
ATOM     28  C   UNL     1       0.221  -0.379   4.798  0.00  0.00    +0.024 C 
ATOM     29  C   UNL     1       0.218   0.530   2.458  0.00  0.00    +0.045 C 
ATOM     30  C   UNL     1      -0.082  -0.812   1.823  0.00  0.00    +0.049 C 
ATOM     31  C   UNL     1       0.282  -0.591  -2.096  0.00  0.00    +0.003 C 
ATOM     32  C   UNL     1      -0.033   0.463  -3.146  0.00  0.00    +0.012 C 
ATOM     33  C   UNL     1       0.931   1.632  -3.153  0.00  0.00    +0.009 C 
ATOM     34  C   UNL     1       2.408   1.260  -3.147  0.00  0.00    -0.008 C 
ATOM     35  C   UNL     1       2.787   0.879  -4.602  0.00  0.00    +0.018 C 
ATOM     36  C   UNL     1       2.756   0.112  -2.224  0.00  0.00    -0.009 C 
ATOM     37  C   UNL     1       4.045  -0.560  -2.785  0.00  0.00    +0.007 C 
ATOM     38  C   UNL     1       3.050   0.497  -0.780  0.00  0.00    +0.028 C 
ATOM     39  C   UNL     1       3.939   1.724  -0.647  0.00  0.00    -0.024 C 
ATOM     40  C   UNL     1       3.278   2.882  -1.393  0.00  0.00    +0.170 C 
ATOM     43  C   UNL     1       3.208   2.543  -2.876  0.00  0.00    -0.040 C 
ATOM     44  C   UNL     1       4.624   2.426  -3.454  0.00  0.00    +0.027 C 
ATOM     45  C   UNL     1       2.542   3.732  -3.596  0.00  0.00    +0.020 C 
ATOM     46  C   UNL     1       1.726  -1.022  -2.191  0.00  0.00    -0.023 C 
ATOM     47  C   UNL     1       1.876  -1.849  -3.499  0.00  0.00    +0.011 C 
ATOM     48  C   UNL     1       2.063  -2.027  -1.084  0.00  0.00    +0.057 C 
ATOM     49  C   UNL     1       1.532  -1.617   0.246  0.00  0.00    -0.045 C 
ATOM     50  C   UNL     1       0.464  -0.888   0.409  0.00  0.00    -0.096 C 
ENDROOT
BRANCH  40  41
ATOM     41  O   UNL     1       4.048   4.073  -1.206  0.00  0.00    -0.566 OA
ATOM     42  H   UNL     1       4.137   4.343  -0.281  0.00  0.00    +0.374 HD
ENDBRANCH  40  41
BRANCH   5   6
ATOM      6  O   UNL     1      -1.661  -2.582   1.502  0.00  0.00    -0.343 OA
BRANCH   6   7
ATOM      7  C   UNL     1      -2.895  -3.107   1.448  0.00  0.00    +0.444 C 
ATOM     23  O   UNL     1      -3.858  -2.407   1.655  0.00  0.00    -0.493 OA
BRANCH   7   8
ATOM      8  C   UNL     1      -3.079  -4.568   1.130  0.00  0.00    +0.227 C 
BRANCH   8   9
ATOM      9  O   UNL     1      -4.462  -4.910   1.246  0.00  0.00    -0.507 OA
ATOM     10  H   UNL     1      -5.041  -4.414   0.651  0.00  0.00    +0.375 HD
ENDBRANCH   8   9
BRANCH   8  11
ATOM     11  C   UNL     1      -2.603  -4.844  -0.297  0.00  0.00    +0.186 C 
BRANCH  11  12
ATOM     12  O   UNL     1      -3.285  -3.973  -1.203  0.00  0.00    -0.522 OA
ATOM     13  H   UNL     1      -4.247  -4.075  -1.198  0.00  0.00    +0.363 HD
ENDBRANCH  11  12
BRANCH  11  14
ATOM     14  C   UNL     1      -2.905  -6.298  -0.664  0.00  0.00    +0.170 C 
BRANCH  14  15
ATOM     15  O   UNL     1      -4.296  -6.561  -0.466  0.00  0.00    -0.531 OA
ATOM     16  H   UNL     1      -4.880  -6.005  -0.999  0.00  0.00    +0.365 HD
ENDBRANCH  14  15
BRANCH  14  17
ATOM     17  C   UNL     1      -2.544  -6.540  -2.131  0.00  0.00    +0.196 C 
BRANCH  17  18
ATOM     18  O   UNL     1      -3.228  -5.592  -2.952  0.00  0.00    -0.526 OA
ATOM     19  H   UNL     1      -4.192  -5.636  -2.885  0.00  0.00    +0.362 HD
ENDBRANCH  17  18
BRANCH  17  20
ATOM     20  C   UNL     1      -2.960  -7.957  -2.532  0.00  0.00    +0.157 C 
BRANCH  20  21
ATOM     21  O   UNL     1      -2.519  -8.223  -3.865  0.00  0.00    -0.566 OA
ATOM     22  H   UNL     1      -2.749  -9.106  -4.186  0.00  0.00    +0.382 HD
ENDBRANCH  20  21
ENDBRANCH  17  20
ENDBRANCH  14  17
ENDBRANCH  11  14
ENDBRANCH   8  11
ENDBRANCH   7   8
ENDBRANCH   6   7
ENDBRANCH   5   6
TORSDOF 13
