REMARK  Name = ZINC95486161
REMARK  23 active torsions:
REMARK  status: ('A' for Active; 'I' for Inactive)
REMARK    1  A    between atoms: C1_1  and  C2_2
REMARK    2  A    between atoms: C2_2  and  C39_47
REMARK    3  A    between atoms: C3_3  and  C4_4
REMARK    4  A    between atoms: C4_4  and  C5_5
REMARK    5  A    between atoms: C7_8  and  C28_35
REMARK    6  A    between atoms: C9_10  and  C21_24
REMARK    7  A    between atoms: C11_13  and  C16_19
REMARK    8  A    between atoms: C13_16  and  C14_17
REMARK    9  A    between atoms: C13_16  and  C15_18
REMARK   10  A    between atoms: C16_19  and  C17_20
REMARK   11  A    between atoms: C18_21  and  C19_22
REMARK   12  A    between atoms: C18_21  and  C20_23
REMARK   13  A    between atoms: C21_24  and  C22_26
REMARK   14  A    between atoms: C25_29  and  O5_33
REMARK   15  A    between atoms: C26_30  and  O4_32
REMARK   16  A    between atoms: C28_35  and  C29_36
REMARK   17  A    between atoms: C29_36  and  C30_37
REMARK   18  A    between atoms: C30_37  and  C31_39
REMARK   19  A    between atoms: C30_37  and  C36_44
REMARK   20  A    between atoms: C31_39  and  C32_40
REMARK   21  A    between atoms: C33_41  and  C34_42
REMARK   22  A    between atoms: C33_41  and  C35_43
REMARK   23  A    between atoms: C36_44  and  C38_46
REMARK                            x       y       z     vdW  Elec       q    Type
REMARK                         _______ _______ _______ _____ _____    ______ ____
ROOT
ATOM      6  C   UNL     1       5.926  -3.540   2.079  0.00  0.00    -0.010 C 
ATOM      7  C   UNL     1       4.965  -2.845   3.030  0.00  0.00    +0.085 C 
ATOM      8  C   UNL     1       5.470  -2.820   4.471  0.00  0.00    -0.139 C 
ATOM     20  C   UNL     1       5.576  -4.231   5.010  0.00  0.00    +0.388 C 
ATOM     21  O   UNL     1       4.851  -4.596   5.912  0.00  0.00    -0.400 OA
ATOM     22  C   UNL     1       6.589  -5.183   4.418  0.00  0.00    -0.070 C 
ATOM     35  C   UNL     1       7.886  -4.456   4.152  0.00  0.00    +0.384 C 
ATOM     36  C   UNL     1       7.872  -3.041   3.617  0.00  0.00    -0.124 C 
ATOM     42  O   UNL     1       8.945  -5.011   4.374  0.00  0.00    -0.384 OA
ATOM     43  C   UNL     1       6.881  -2.251   4.458  0.00  0.00    +0.386 C 
ATOM     44  O   UNL     1       7.188  -1.256   5.068  0.00  0.00    -0.393 OA
ATOM     45  C   UNL     1       7.358  -3.032   2.175  0.00  0.00    -0.036 C 
ATOM     46  C   UNL     1       7.430  -1.603   1.621  0.00  0.00    +0.050 C 
ATOM     47  C   UNL     1       8.264  -3.927   1.315  0.00  0.00    +0.046 C 
ENDROOT
BRANCH  22  23
ATOM     23  C   UNL     1       6.852  -6.294   5.415  0.00  0.00    +0.416 C 
ATOM     34  O   UNL     1       7.735  -6.174   6.238  0.00  0.00    -0.408 OA
BRANCH  23  24
ATOM     24  C   UNL     1       6.037  -7.516   5.385  0.00  0.00    -0.152 A 
ATOM     25  C   UNL     1       5.021  -7.659   4.432  0.00  0.00    +0.068 A 
ATOM     26  C   UNL     1       4.260  -8.805   4.406  0.00  0.00    +0.005 A 
ATOM     27  C   UNL     1       4.495  -9.822   5.323  0.00  0.00    +0.119 A 
ATOM     30  C   UNL     1       5.506  -9.687   6.275  0.00  0.00    +0.074 A 
ATOM     33  C   UNL     1       6.278  -8.543   6.305  0.00  0.00    +0.081 A 
BRANCH  27  28
ATOM     28  O   UNL     1       3.740 -10.949   5.293  0.00  0.00    -0.484 OA
ATOM     29  H   UNL     1       4.097 -11.646   4.725  0.00  0.00    +0.395 HD
ENDBRANCH  27  28
BRANCH  30  31
ATOM     31  O   UNL     1       5.733 -10.684   7.171  0.00  0.00    -0.482 OA
ATOM     32  H   UNL     1       6.374 -11.343   6.872  0.00  0.00    +0.391 HD
ENDBRANCH  30  31
ENDBRANCH  23  24
ENDBRANCH  22  23
BRANCH   6   5
ATOM      5  C   UNL     1       5.431  -3.310   0.638  0.00  0.00    +0.070 C 
BRANCH   5   4
ATOM      1  C   UNL     1       3.218  -1.762  -0.172  0.00  0.00    +0.072 C 
ATOM      2  C   UNL     1       3.042  -3.225   0.142  0.00  0.00    -0.121 C 
ATOM      3  C   UNL     1       1.671  -3.848   0.090  0.00  0.00    +0.072 C 
ATOM      4  C   UNL     1       4.081  -3.956   0.461  0.00  0.00    -0.068 C 
ENDBRANCH   5   4
ENDBRANCH   6   5
BRANCH   8   9
ATOM      9  C   UNL     1       4.552  -1.968   5.360  0.00  0.00    +0.076 C 
BRANCH   9  10
ATOM     10  C   UNL     1       5.089  -1.966   6.792  0.00  0.00    +0.019 C 
BRANCH  10  11
ATOM     11  C   UNL     1       4.174  -1.117   7.678  0.00  0.00    +0.034 C 
BRANCH  11  12
ATOM     12  C   UNL     1       4.231   0.320   7.229  0.00  0.00    -0.102 C 
ATOM     13  C   UNL     1       5.543   1.062   7.243  0.00  0.00    +0.071 C 
ATOM     14  C   UNL     1       3.141   0.924   6.825  0.00  0.00    -0.019 C 
ENDBRANCH  11  12
BRANCH  11  15
ATOM     15  C   UNL     1       4.638  -1.215   9.133  0.00  0.00    +0.055 C 
BRANCH  15  16
ATOM     16  C   UNL     1       3.668  -0.481  10.021  0.00  0.00    -0.052 C 
ATOM     17  C   UNL     1       2.995  -1.133  10.936  0.00  0.00    -0.136 C 
ATOM     18  C   UNL     1       2.018  -0.400  11.819  0.00  0.00    +0.070 C 
ATOM     19  C   UNL     1       3.198  -2.616  11.107  0.00  0.00    +0.070 C 
ENDBRANCH  15  16
ENDBRANCH  11  15
ENDBRANCH  10  11
ENDBRANCH   9  10
ENDBRANCH   8   9
BRANCH  36  37
ATOM     37  C   UNL     1       9.272  -2.414   3.700  0.00  0.00    +0.116 C 
BRANCH  37  38
ATOM     38  C   UNL     1       9.726  -2.387   5.137  0.00  0.00    -0.075 C 
ATOM     39  C   UNL     1      10.845  -2.975   5.481  0.00  0.00    -0.101 C 
ATOM     40  C   UNL     1      11.303  -2.940   6.917  0.00  0.00    +0.070 C 
ATOM     41  C   UNL     1      11.674  -3.685   4.442  0.00  0.00    +0.075 C 
ENDBRANCH  37  38
ENDBRANCH  36  37
TORSDOF 14
