REMARK  Name = ZINC00689728
REMARK  13 active torsions:
REMARK  status: ('A' for Active; 'I' for Inactive)
REMARK    1  A    between atoms: C1_1  and  C2_2
REMARK    2  A    between atoms: C2_2  and  C26_32
REMARK    3  A    between atoms: C3_3  and  C4_4
REMARK    4  A    between atoms: C4_4  and  C5_5
REMARK    5  A    between atoms: C7_7  and  C17_18
REMARK    6  A    between atoms: C9_9  and  C12_13
REMARK    7  A    between atoms: C10_10  and  O1_11
REMARK    8  A    between atoms: O1_11  and  C11_12
REMARK    9  A    between atoms: C12_13  and  C13_14
REMARK   10  A    between atoms: C14_15  and  C15_16
REMARK   11  A    between atoms: C14_15  and  C16_17
REMARK   12  A    between atoms: C21_24  and  O5_31
REMARK   13  A    between atoms: C23_26  and  O4_30
REMARK                            x       y       z     vdW  Elec       q    Type
REMARK                         _______ _______ _______ _____ _____    ______ ____
ROOT
ATOM      6  C   UNL     1      -0.715  -1.054   2.895  0.00  0.00    -0.082 A 
ATOM      7  C   UNL     1      -2.041  -0.869   2.556  0.00  0.00    +0.040 A 
ATOM      8  C   UNL     1      -3.008  -1.726   3.048  0.00  0.00    -0.091 A 
ATOM     24  C   UNL     1      -2.650  -2.770   3.881  0.00  0.00    +0.052 A 
ATOM     25  C   UNL     1      -1.325  -2.959   4.223  0.00  0.00    -0.092 A 
ATOM     31  C   UNL     1      -0.352  -2.104   3.726  0.00  0.00    +0.111 A 
ENDROOT
BRANCH   8   9
ATOM      9  C   UNL     1      -4.454  -1.521   2.676  0.00  0.00    +0.238 C 
ATOM     10  C   UNL     1      -4.838  -2.498   1.555  0.00  0.00    +0.038 C 
ATOM     11  C   UNL     1      -6.307  -2.272   1.247  0.00  0.00    +0.399 C 
ATOM     12  C   UNL     1      -7.191  -2.042   2.395  0.00  0.00    -0.293 A 
ATOM     13  C   UNL     1      -8.586  -2.077   2.243  0.00  0.00    +0.221 A 
ATOM     16  C   UNL     1      -9.397  -1.844   3.340  0.00  0.00    -0.074 A 
ATOM     17  C   UNL     1      -8.830  -1.581   4.581  0.00  0.00    +0.198 A 
ATOM     20  C   UNL     1      -7.451  -1.550   4.738  0.00  0.00    -0.053 A 
ATOM     21  C   UNL     1      -6.621  -1.782   3.655  0.00  0.00    +0.215 A 
ATOM     22  O   UNL     1      -6.729  -2.282   0.109  0.00  0.00    -0.425 OA
ATOM     23  O   UNL     1      -5.277  -1.763   3.817  0.00  0.00    -0.296 OA
BRANCH  13  14
ATOM     14  O   UNL     1      -9.135  -2.336   1.031  0.00  0.00    -0.476 OA
ATOM     15  H   UNL     1      -9.293  -3.276   0.863  0.00  0.00    +0.400 HD
ENDBRANCH  13  14
BRANCH  17  18
ATOM     18  O   UNL     1      -9.633  -1.350   5.650  0.00  0.00    -0.490 OA
ATOM     19  H   UNL     1      -9.868  -2.147   6.145  0.00  0.00    +0.403 HD
ENDBRANCH  17  18
ENDBRANCH   8   9
BRANCH  31  32
ATOM     32  O   UNL     1       0.952  -2.292   4.056  0.00  0.00    -0.329 OA
ATOM     33  C   UNL     1       1.692  -3.230   3.272  0.00  0.00    +0.224 C 
ENDBRANCH  31  32
BRANCH   6   5
ATOM      5  C   UNL     1       0.339  -0.119   2.358  0.00  0.00    +0.117 C 
BRANCH   5   4
ATOM      1  C   UNL     1       0.158   1.415  -0.000  0.00  0.00    +0.074 C 
ATOM      2  C   UNL     1       0.745   0.028  -0.045  0.00  0.00    -0.125 C 
ATOM      3  C   UNL     1       1.180  -0.564  -1.361  0.00  0.00    +0.074 C 
ATOM      4  C   UNL     1       0.878  -0.663   1.060  0.00  0.00    -0.057 C 
ENDBRANCH   5   4
ENDBRANCH   6   5
BRANCH  25  26
ATOM     26  C   UNL     1      -0.936  -4.098   5.131  0.00  0.00    +0.111 C 
BRANCH  26  27
ATOM     27  C   UNL     1      -0.774  -3.585   6.539  0.00  0.00    -0.042 C 
ATOM     28  C   UNL     1      -1.521  -4.067   7.501  0.00  0.00    -0.131 C 
ATOM     29  C   UNL     1      -1.266  -3.658   8.929  0.00  0.00    +0.073 C 
ATOM     30  C   UNL     1      -2.634  -5.030   7.181  0.00  0.00    +0.071 C 
ENDBRANCH  26  27
ENDBRANCH  25  26
TORSDOF 8
