REMARK  Name = ZINC95486190
REMARK  12 active torsions:
REMARK  status: ('A' for Active; 'I' for Inactive)
REMARK    1  A    between atoms: C1_1  and  C2_2
REMARK    2  A    between atoms: C2_2  and  C26_32
REMARK    3  A    between atoms: C3_3  and  C4_4
REMARK    4  A    between atoms: C4_4  and  C5_5
REMARK    5  A    between atoms: C10_10  and  O1_11
REMARK    6  A    between atoms: C14_16  and  O6_24
REMARK    7  A    between atoms: C15_17  and  O5_22
REMARK    8  A    between atoms: C16_18  and  O4_21
REMARK    9  A    between atoms: O5_22  and  C18_23
REMARK   10  A    between atoms: O6_24  and  C19_25
REMARK   11  A    between atoms: C22_28  and  C24_30
REMARK   12  A    between atoms: C22_28  and  C25_31
REMARK                            x       y       z     vdW  Elec       q    Type
REMARK                         _______ _______ _______ _____ _____    ______ ____
ROOT
ATOM      6  C   UNL     1      -1.008  -0.636   3.425  0.00  0.00    -0.130 A 
ATOM      7  C   UNL     1      -2.294  -0.141   3.511  0.00  0.00    +0.011 A 
ATOM      8  C   UNL     1      -3.222  -0.726   4.372  0.00  0.00    -0.084 A 
ATOM      9  C   UNL     1      -4.601  -0.202   4.410  0.00  0.00    +0.017 C 
ATOM     10  C   UNL     1      -5.038   0.573   3.429  0.00  0.00    -0.005 C 
ATOM     11  C   UNL     1      -4.164   0.903   2.251  0.00  0.00    -0.035 C 
ATOM     12  C   UNL     1      -4.274  -0.216   1.213  0.00  0.00    +0.036 C 
ATOM     13  C   UNL     1      -4.637   2.216   1.625  0.00  0.00    +0.040 C 
ATOM     14  C   UNL     1      -2.851  -1.811   5.178  0.00  0.00    +0.183 A 
ATOM     15  C   UNL     1      -1.542  -2.306   5.081  0.00  0.00    -0.261 A 
ATOM     16  C   UNL     1      -1.162  -3.459   5.920  0.00  0.00    +0.446 A 
ATOM     17  C   UNL     1      -2.275  -4.175   6.576  0.00  0.00    -0.176 A 
ATOM     18  C   UNL     1      -2.074  -5.420   7.175  0.00  0.00    +0.037 A 
ATOM     19  C   UNL     1      -3.134  -6.068   7.776  0.00  0.00    +0.101 A 
ATOM     22  C   UNL     1      -4.400  -5.478   7.782  0.00  0.00    +0.104 A 
ATOM     25  C   UNL     1      -4.605  -4.241   7.191  0.00  0.00    +0.105 A 
ATOM     28  C   UNL     1      -3.543  -3.573   6.584  0.00  0.00    +0.111 A 
ATOM     29  O   UNL     1      -0.001  -3.800   6.062  0.00  0.00    -0.431 OA
ATOM     30  O   UNL     1      -3.743  -2.362   6.023  0.00  0.00    -0.209 OA
ATOM     31  C   UNL     1      -2.706   1.048   2.681  0.00  0.00    +0.105 C 
ATOM     32  C   UNL     1      -0.625  -1.722   4.198  0.00  0.00    +0.211 A 
ENDROOT
BRANCH  19  20
ATOM     20  O   UNL     1      -2.946  -7.281   8.361  0.00  0.00    -0.298 OA
ATOM     21  C   UNL     1      -1.625  -7.825   8.317  0.00  0.00    +0.249 C 
ENDBRANCH  19  20
BRANCH  22  23
ATOM     23  O   UNL     1      -5.440  -6.123   8.373  0.00  0.00    -0.309 OA
ATOM     24  C   UNL     1      -5.664  -5.859   9.759  0.00  0.00    +0.235 C 
ENDBRANCH  22  23
BRANCH  25  26
ATOM     26  O   UNL     1      -5.844  -3.679   7.205  0.00  0.00    -0.463 OA
ATOM     27  H   UNL     1      -6.013  -3.119   7.975  0.00  0.00    +0.392 HD
ENDBRANCH  25  26
BRANCH  32  33
ATOM     33  O   UNL     1       0.635  -2.214   4.103  0.00  0.00    -0.472 OA
ATOM     34  H   UNL     1       1.263  -1.808   4.716  0.00  0.00    +0.398 HD
ENDBRANCH  32  33
BRANCH   6   5
ATOM      5  C   UNL     1      -0.019   0.002   2.483  0.00  0.00    +0.123 C 
BRANCH   5   4
ATOM      1  C   UNL     1       2.293  -0.978   1.199  0.00  0.00    +0.075 C 
ATOM      2  C   UNL     1       0.940  -1.157   0.560  0.00  0.00    -0.116 C 
ATOM      3  C   UNL     1       0.813  -1.922  -0.732  0.00  0.00    +0.072 C 
ATOM      4  C   UNL     1      -0.125  -0.648   1.127  0.00  0.00    -0.061 C 
ENDBRANCH   5   4
ENDBRANCH   6   5
TORSDOF 6
