REMARK  Name = ZINC95486015
REMARK  7 active torsions:
REMARK  status: ('A' for Active; 'I' for Inactive)
REMARK    1  A    between atoms: C1_1  and  O1_2
REMARK    2  A    between atoms: O1_2  and  C2_3
REMARK    3  A    between atoms: C7_8  and  O2_9
REMARK    4  A    between atoms: O2_9  and  C8_10
REMARK    5  A    between atoms: C20_25  and  C21_28
REMARK    6  A    between atoms: C21_28  and  C23_30
REMARK    7  A    between atoms: C23_30  and  O5_31
REMARK                            x       y       z     vdW  Elec       q    Type
REMARK                         _______ _______ _______ _____ _____    ______ ____
ROOT
ATOM      3  C   UNL     1       0.626  -0.619   1.042  0.00  0.00    +0.111 A 
ATOM      4  C   UNL     1       1.201   0.133   2.049  0.00  0.00    -0.042 A 
ATOM      5  C   UNL     1       1.846  -0.483   3.115  0.00  0.00    -0.071 A 
ATOM      6  C   UNL     1       1.916  -1.861   3.163  0.00  0.00    -0.078 A 
ATOM      7  C   UNL     1       2.629  -2.577   4.273  0.00  0.00    +0.008 C 
ATOM      8  C   UNL     1       2.725  -1.667   5.504  0.00  0.00    +0.188 C 
ATOM      9  O   UNL     1       3.467  -2.341   6.517  0.00  0.00    -0.292 OA
ATOM     10  C   UNL     1       3.054  -3.579   6.871  0.00  0.00    +0.233 A 
ATOM     11  C   UNL     1       2.247  -4.365   6.018  0.00  0.00    -0.283 A 
ATOM     12  C   UNL     1       1.820  -5.637   6.403  0.00  0.00    +0.154 A 
ATOM     13  C   UNL     1       2.169  -6.179   7.612  0.00  0.00    -0.031 A 
ATOM     14  C   UNL     1       2.977  -5.415   8.465  0.00  0.00    +0.184 A 
ATOM     15  O   UNL     1       3.451  -5.745   9.682  0.00  0.00    -0.284 OA
ATOM     16  C   UNL     1       3.866  -4.551  10.373  0.00  0.00    +0.226 C 
ATOM     22  C   UNL     1       4.222  -3.582   9.217  0.00  0.00    +0.101 C 
ATOM     23  C   UNL     1       3.399  -4.134   8.085  0.00  0.00    -0.229 A 
ATOM     24  C   UNL     1       3.404  -0.368   5.076  0.00  0.00    +0.066 C 
ATOM     25  C   UNL     1       1.871  -3.820   4.696  0.00  0.00    +0.414 C 
ATOM     26  O   UNL     1       1.015  -4.326   4.001  0.00  0.00    -0.435 OA
ATOM     27  C   UNL     1       1.332  -2.619   2.158  0.00  0.00    +0.004 A 
ATOM     28  C   UNL     1       2.434   0.404   4.181  0.00  0.00    +0.099 C 
ATOM     29  C   UNL     1       0.684  -2.008   1.101  0.00  0.00    +0.097 A 
ENDROOT
BRANCH   3   2
ATOM      1  C   UNL     1      -0.017   1.425   0.010  0.00  0.00    +0.237 C 
ATOM      2  O   UNL     1       0.002  -0.004   0.002  0.00  0.00    -0.305 OA
ENDBRANCH   3   2
BRANCH  16  17
ATOM     17  C   UNL     1       5.073  -4.821  11.234  0.00  0.00    -0.150 C 
ATOM     21  C   UNL     1       5.089  -4.425  12.482  0.00  0.00    +0.093 C 
BRANCH  17  18
ATOM     18  C   UNL     1       6.262  -5.547  10.658  0.00  0.00    +0.234 C 
BRANCH  18  19
ATOM     19  O   UNL     1       7.270  -5.680  11.661  0.00  0.00    -0.571 OA
ATOM     20  H   UNL     1       8.067  -6.139  11.360  0.00  0.00    +0.386 HD
ENDBRANCH  18  19
ENDBRANCH  17  18
ENDBRANCH  16  17
BRANCH  29  30
ATOM     30  O   UNL     1       0.112  -2.759   0.122  0.00  0.00    -0.305 OA
ATOM     31  C   UNL     1       0.212  -4.178   0.251  0.00  0.00    +0.239 C 
ENDBRANCH  29  30
TORSDOF 5
