REMARK  Name = ZINC95486136
REMARK  8 active torsions:
REMARK  status: ('A' for Active; 'I' for Inactive)
REMARK    1  A    between atoms: C1_1  and  O1_2
REMARK    2  A    between atoms: O1_2  and  C2_3
REMARK    3  A    between atoms: C3_4  and  O4_20
REMARK    4  A    between atoms: C5_6  and  C8_10
REMARK    5  A    between atoms: C7_8  and  O2_9
REMARK    6  A    between atoms: C8_10  and  C9_12
REMARK    7  A    between atoms: C8_10  and  O3_19
REMARK    8  A    between atoms: C9_12  and  C10_13
REMARK                            x       y       z     vdW  Elec       q    Type
REMARK                         _______ _______ _______ _____ _____    ______ ____
ROOT
ATOM      3  C   UNL     1       0.607  -0.608  -1.057  0.00  0.00    +0.044 A 
ATOM      4  C   UNL     1      -0.130  -0.923  -2.193  0.00  0.00    +0.108 A 
ATOM      7  C   UNL     1       0.490  -1.538  -3.270  0.00  0.00    +0.009 A 
ATOM      8  C   UNL     1       1.838  -1.839  -3.215  0.00  0.00    -0.090 A 
ATOM     19  C   UNL     1       2.574  -1.528  -2.087  0.00  0.00    +0.002 A 
ATOM     20  C   UNL     1       1.963  -0.906  -1.008  0.00  0.00    +0.111 A 
ENDROOT
BRANCH   3   2
ATOM      1  C   UNL     1      -0.017   1.425   0.010  0.00  0.00    +0.228 C 
ATOM      2  O   UNL     1       0.002  -0.004   0.002  0.00  0.00    -0.323 OA
ENDBRANCH   3   2
BRANCH   4   5
ATOM      5  O   UNL     1      -1.456  -0.628  -2.248  0.00  0.00    -0.483 OA
ATOM      6  H   UNL     1      -1.650   0.249  -2.607  0.00  0.00    +0.390 HD
ENDBRANCH   4   5
BRANCH  20  21
ATOM     21  O   UNL     1       2.689  -0.595   0.099  0.00  0.00    -0.489 OA
ATOM     22  H   UNL     1       2.713  -1.297   0.764  0.00  0.00    +0.398 HD
ENDBRANCH  20  21
BRANCH   8   9
ATOM      9  C   UNL     1       2.508  -2.508  -4.388  0.00  0.00    +0.270 C 
BRANCH   9  10
ATOM     10  O   UNL     1       3.430  -3.491  -3.913  0.00  0.00    -0.545 OA
ATOM     11  H   UNL     1       4.130  -3.133  -3.350  0.00  0.00    +0.373 HD
ENDBRANCH   9  10
BRANCH   9  12
ATOM     12  C   UNL     1       3.258  -1.460  -5.212  0.00  0.00    +0.056 C 
BRANCH  12  13
ATOM     13  C   UNL     1       3.825  -2.107  -6.450  0.00  0.00    -0.080 A 
ATOM     14  C   UNL     1       5.090  -2.663  -6.422  0.00  0.00    +0.016 A 
ATOM     15  C   UNL     1       5.609  -3.256  -7.558  0.00  0.00    +0.003 A 
ATOM     16  C   UNL     1       4.863  -3.294  -8.721  0.00  0.00    -0.001 A 
ATOM     17  C   UNL     1       3.598  -2.739  -8.749  0.00  0.00    +0.003 A 
ATOM     18  C   UNL     1       3.076  -2.149  -7.612  0.00  0.00    +0.002 A 
ENDBRANCH  12  13
ENDBRANCH   9  12
ENDBRANCH   8   9
TORSDOF 7
