REMARK  Name = ZINC13311972
REMARK  8 active torsions:
REMARK  status: ('A' for Active; 'I' for Inactive)
REMARK    1  A    between atoms: C1_1  and  C2_2
REMARK    2  A    between atoms: C2_2  and  C22_28
REMARK    3  A    between atoms: C10_10  and  O1_11
REMARK    4  A    between atoms: O1_11  and  C11_12
REMARK    5  A    between atoms: C13_15  and  C15_18
REMARK    6  A    between atoms: C18_21  and  O5_25
REMARK    7  A    between atoms: C20_23  and  O4_24
REMARK    8  A    between atoms: O5_25  and  C21_26
REMARK                            x       y       z     vdW  Elec       q    Type
REMARK                         _______ _______ _______ _____ _____    ______ ____
ROOT
ATOM      1  C   UNL     1       3.857   3.100  -4.782  0.00  0.00    +0.088 C 
ATOM      2  C   UNL     1       3.388   2.452  -3.478  0.00  0.00    +0.146 C 
ATOM      3  C   UNL     1       4.188   1.171  -3.235  0.00  0.00    +0.038 C 
ATOM      4  C   UNL     1       1.926   2.109  -3.591  0.00  0.00    -0.049 C 
ATOM      5  C   UNL     1       1.164   2.074  -2.499  0.00  0.00    +0.057 C 
ATOM      6  C   UNL     1       1.795   2.392  -1.201  0.00  0.00    -0.183 A 
ATOM      7  C   UNL     1       3.040   3.047  -1.203  0.00  0.00    +0.210 A 
ATOM      8  C   UNL     1       3.664   3.363  -0.013  0.00  0.00    -0.024 A 
ATOM      9  C   UNL     1       3.067   3.037   1.201  0.00  0.00    +0.192 A 
ATOM     10  C   UNL     1       1.820   2.386   1.205  0.00  0.00    -0.270 A 
ATOM     11  C   UNL     1       1.210   2.043   2.501  0.00  0.00    +0.431 A 
ATOM     12  C   UNL     1       1.970   2.430   3.704  0.00  0.00    -0.223 A 
ATOM     23  C   UNL     1       3.159   3.060   3.542  0.00  0.00    +0.316 A 
ATOM     24  O   UNL     1       0.134   1.474   2.575  0.00  0.00    -0.426 OA
ATOM     25  O   UNL     1       3.686   3.351   2.355  0.00  0.00    -0.206 OA
ATOM     26  C   UNL     1       1.183   2.057   0.002  0.00  0.00    +0.233 A 
ATOM     29  O   UNL     1       3.609   3.357  -2.396  0.00  0.00    -0.294 OA
ENDROOT
BRANCH  12  13
ATOM     13  C   UNL     1       1.444   2.139   5.060  0.00  0.00    -0.092 A 
ATOM     14  C   UNL     1       1.105   3.183   5.917  0.00  0.00    +0.083 A 
ATOM     15  C   UNL     1       0.612   2.909   7.176  0.00  0.00    -0.081 A 
ATOM     16  C   UNL     1       0.462   1.594   7.596  0.00  0.00    +0.152 A 
ATOM     19  C   UNL     1       0.803   0.548   6.750  0.00  0.00    -0.040 A 
ATOM     20  C   UNL     1       1.294   0.815   5.483  0.00  0.00    +0.175 A 
BRANCH  16  17
ATOM     17  O   UNL     1      -0.019   1.330   8.839  0.00  0.00    -0.315 OA
ATOM     18  C   UNL     1      -0.350   2.453   9.659  0.00  0.00    +0.245 C 
ENDBRANCH  16  17
BRANCH  20  21
ATOM     21  O   UNL     1       1.627  -0.208   4.654  0.00  0.00    -0.484 OA
ATOM     22  H   UNL     1       2.547  -0.496   4.734  0.00  0.00    +0.390 HD
ENDBRANCH  20  21
ENDBRANCH  12  13
BRANCH  26  27
ATOM     27  O   UNL     1      -0.017   1.425   0.010  0.00  0.00    -0.316 OA
ATOM     28  C   UNL     1       0.002  -0.004   0.002  0.00  0.00    +0.248 C 
ENDBRANCH  26  27
TORSDOF 4
