REMARK  Name = ZINC14683764
REMARK  11 active torsions:
REMARK  status: ('A' for Active; 'I' for Inactive)
REMARK    1  A    between atoms: C1_1  and  C2_2
REMARK    2  A    between atoms: C2_2  and  C23_28
REMARK    3  A    between atoms: C8_8  and  O4_25
REMARK    4  A    between atoms: C9_9  and  C12_13
REMARK    5  A    between atoms: C10_10  and  O1_11
REMARK    6  A    between atoms: O1_11  and  C11_12
REMARK    7  A    between atoms: C12_13  and  O3_23
REMARK    8  A    between atoms: C13_14  and  C14_15
REMARK    9  A    between atoms: C14_15  and  C15_17
REMARK   10  A    between atoms: O3_23  and  C21_24
REMARK   11  A    between atoms: O4_25  and  C22_26
REMARK                            x       y       z     vdW  Elec       q    Type
REMARK                         _______ _______ _______ _____ _____    ______ ____
ROOT
ATOM      1  C   UNL     1       0.262   0.196   0.632  0.00  0.00    +0.085 C 
ATOM      2  C   UNL     1       0.194   1.719   0.500  0.00  0.00    +0.148 C 
ATOM      3  C   UNL     1       1.615   2.280   0.407  0.00  0.00    +0.037 C 
ATOM      4  C   UNL     1      -0.487   2.292   1.714  0.00  0.00    -0.056 C 
ATOM      5  C   UNL     1      -1.160   3.438   1.622  0.00  0.00    +0.057 C 
ATOM      6  C   UNL     1      -1.221   4.104   0.304  0.00  0.00    -0.193 A 
ATOM      7  C   UNL     1      -0.888   3.356  -0.839  0.00  0.00    +0.208 A 
ATOM      8  C   UNL     1      -0.932   3.944  -2.091  0.00  0.00    -0.098 A 
ATOM      9  C   UNL     1      -1.306   5.271  -2.224  0.00  0.00    +0.208 A 
ATOM     12  C   UNL     1      -1.643   6.029  -1.089  0.00  0.00    -0.199 A 
ATOM     25  C   UNL     1      -1.598   5.438   0.184  0.00  0.00    +0.219 A 
ATOM     28  O   UNL     1      -0.525   2.058  -0.686  0.00  0.00    -0.299 OA
ENDROOT
BRANCH   9  10
ATOM     10  O   UNL     1      -1.348   5.840  -3.454  0.00  0.00    -0.301 OA
ATOM     11  C   UNL     1      -0.993   5.013  -4.564  0.00  0.00    +0.254 C 
ENDBRANCH   9  10
BRANCH  12  13
ATOM     13  C   UNL     1      -2.039   7.436  -1.235  0.00  0.00    +0.236 C 
ATOM     16  C   UNL     1      -1.105   8.380  -1.599  0.00  0.00    -0.115 C 
BRANCH  13  14
ATOM     14  O   UNL     1      -3.320   7.804  -1.011  0.00  0.00    -0.307 OA
ATOM     15  C   UNL     1      -4.307   7.295  -1.911  0.00  0.00    +0.238 C 
ENDBRANCH  13  14
BRANCH  16  17
ATOM     17  C   UNL     1      -1.503   9.705  -1.842  0.00  0.00    +0.421 C 
ATOM     24  O   UNL     1      -2.657  10.041  -1.638  0.00  0.00    -0.447 OA
BRANCH  17  18
ATOM     18  C   UNL     1      -0.522  10.692  -2.346  0.00  0.00    -0.155 A 
ATOM     19  C   UNL     1       0.801  10.312  -2.575  0.00  0.00    +0.052 A 
ATOM     20  C   UNL     1       1.709  11.235  -3.050  0.00  0.00    -0.005 A 
ATOM     21  C   UNL     1       1.313  12.539  -3.289  0.00  0.00    +0.031 A 
ATOM     22  C   UNL     1       0.005  12.924  -3.059  0.00  0.00    -0.004 A 
ATOM     23  C   UNL     1      -0.914  12.009  -2.589  0.00  0.00    +0.066 A 
ENDBRANCH  17  18
ENDBRANCH  16  17
ENDBRANCH  12  13
BRANCH  25  26
ATOM     26  O   UNL     1      -1.921   6.160   1.286  0.00  0.00    -0.325 OA
ATOM     27  C   UNL     1      -3.291   6.149   1.690  0.00  0.00    +0.245 C 
ENDBRANCH  25  26
TORSDOF 6
