REMARK  Name = ZINC04654686
REMARK  9 active torsions:
REMARK  status: ('A' for Active; 'I' for Inactive)
REMARK    1  A    between atoms: C1_1  and  C2_2
REMARK    2  A    between atoms: C7_8  and  C12_15
REMARK    3  A    between atoms: C8_9  and  O1_14
REMARK    4  A    between atoms: C10_11  and  C11_13
REMARK    5  A    between atoms: C17_20  and  O4_29
REMARK    6  A    between atoms: C19_22  and  O3_27
REMARK    7  A    between atoms: C21_24  and  C22_25
REMARK    8  A    between atoms: C22_25  and  O2_26
REMARK    9  A    between atoms: O3_27  and  C23_28
REMARK                            x       y       z     vdW  Elec       q    Type
REMARK                         _______ _______ _______ _____ _____    ______ ____
ROOT
ATOM     13  C   UNL     1       1.163   3.585   0.009  0.00  0.00    -0.105 A 
ATOM     14  C   UNL     1       1.144   4.303  -1.211  0.00  0.00    +0.027 A 
ATOM     15  C   UNL     1       1.140   3.636  -2.444  0.00  0.00    -0.010 A 
ATOM     16  C   UNL     1       1.121   4.350  -3.604  0.00  0.00    +0.055 A 
ATOM     17  C   UNL     1       1.103   5.741  -3.589  0.00  0.00    -0.027 A 
ATOM     18  C   UNL     1       1.106   6.432  -2.398  0.00  0.00    +0.153 A 
ATOM     21  C   UNL     1       1.126   5.718  -1.183  0.00  0.00    -0.103 A 
ATOM     22  C   UNL     1       1.128   6.388   0.056  0.00  0.00    +0.174 A 
ATOM     25  C   UNL     1       1.147   5.664   1.228  0.00  0.00    -0.068 A 
ATOM     26  C   UNL     1       1.160   4.276   1.208  0.00  0.00    -0.013 A 
ENDROOT
BRANCH  13  12
ATOM      1  C   UNL     1      -0.079  -4.274  -0.188  0.00  0.00    +0.094 C 
ATOM      2  C   UNL     1      -0.078  -2.762  -0.421  0.00  0.00    +0.171 C 
ATOM      3  N   UNL     1      -1.128  -2.137   0.404  0.00  0.00    -0.511 N 
ATOM      4  H   UNL     1      -2.010  -2.648   0.277  0.00  0.00    +0.436 HD
ATOM      5  H   UNL     1      -0.851  -2.172   1.392  0.00  0.00    +0.432 HD
ATOM      6  C   UNL     1      -1.314  -0.737  -0.000  0.00  0.00    +0.235 C 
ATOM      7  C   UNL     1      -1.915  -0.691  -1.407  0.00  0.00    +0.099 C 
ATOM      8  C   UNL     1       0.002  -0.004   0.002  0.00  0.00    -0.154 A 
ATOM      9  C   UNL     1      -0.017   1.386   0.010  0.00  0.00    +0.147 A 
ATOM     12  C   UNL     1       1.182   2.104   0.002  0.00  0.00    -0.037 A 
ATOM     30  C   UNL     1       2.395   1.417  -0.013  0.00  0.00    +0.075 A 
ATOM     31  C   UNL     1       2.400   0.039  -0.018  0.00  0.00    +0.030 A 
ATOM     32  C   UNL     1       1.208  -0.673  -0.009  0.00  0.00    -0.074 A 
ATOM     33  C   UNL     1       1.275  -2.180  -0.010  0.00  0.00    +0.131 C 
BRANCH   9  10
ATOM     10  O   UNL     1      -1.203   2.047   0.019  0.00  0.00    -0.482 OA
ATOM     11  H   UNL     1      -1.543   2.234   0.905  0.00  0.00    +0.395 HD
ENDBRANCH   9  10
ENDBRANCH  13  12
BRANCH  18  19
ATOM     19  O   UNL     1       1.088   7.790  -2.393  0.00  0.00    -0.479 OA
ATOM     20  H   UNL     1       0.200   8.171  -2.384  0.00  0.00    +0.395 HD
ENDBRANCH  18  19
BRANCH  22  23
ATOM     23  O   UNL     1       1.111   7.746   0.095  0.00  0.00    -0.292 OA
ATOM     24  C   UNL     1       1.114   8.358   1.386  0.00  0.00    +0.249 C 
ENDBRANCH  22  23
BRANCH  26  27
ATOM     27  C   UNL     1       1.175   3.512   2.508  0.00  0.00    +0.235 C 
BRANCH  27  28
ATOM     28  O   UNL     1       1.168   4.433   3.601  0.00  0.00    -0.564 OA
ATOM     29  H   UNL     1       1.177   4.010   4.471  0.00  0.00    +0.388 HD
ENDBRANCH  27  28
ENDBRANCH  26  27
TORSDOF 6
