REMARK  Name = ZINC04098287
REMARK  7 active torsions:
REMARK  status: ('A' for Active; 'I' for Inactive)
REMARK    1  A    between atoms: C1_1  and  C2_2
REMARK    2  A    between atoms: C6_6  and  C14_20
REMARK    3  A    between atoms: C6_6  and  C15_21
REMARK    4  A    between atoms: C8_9  and  O4_19
REMARK    5  A    between atoms: C10_12  and  C13_17
REMARK    6  A    between atoms: C11_13  and  C12_14
REMARK    7  A    between atoms: C11_13  and  O2_16
REMARK                            x       y       z     vdW  Elec       q    Type
REMARK                         _______ _______ _______ _____ _____    ______ ____
ROOT
ATOM      1  C   UNL     1      -0.102   1.660   0.175  0.00  0.00    +0.042 C 
ATOM      2  C   UNL     1      -0.093   0.150  -0.081  0.00  0.00    -0.017 C 
ATOM      3  C   UNL     1      -1.513  -0.330  -0.383  0.00  0.00    +0.034 C 
ATOM      4  C   UNL     1      -2.378  -0.252   0.874  0.00  0.00    +0.009 C 
ATOM      5  C   UNL     1      -1.797  -1.195   1.922  0.00  0.00    +0.017 C 
ATOM      6  C   UNL     1      -0.370  -0.786   2.293  0.00  0.00    -0.046 C 
ATOM      7  C   UNL     1       0.175  -1.933   3.176  0.00  0.00    +0.026 C 
ATOM      8  C   UNL     1      -0.418   0.472   3.159  0.00  0.00    +0.024 C 
ATOM      9  C   UNL     1       0.766  -0.119  -1.332  0.00  0.00    +0.128 C 
ATOM     14  C   UNL     1       2.212   0.131  -1.027  0.00  0.00    -0.241 C 
ATOM     17  C   UNL     1       2.705   0.182   0.194  0.00  0.00    +0.062 C 
ATOM     18  C   UNL     1       1.877  -0.013   1.437  0.00  0.00    +0.216 C 
ATOM     21  C   UNL     1       0.524  -0.630   1.079  0.00  0.00    +0.043 C 
ENDROOT
BRANCH   9  10
ATOM     10  O   UNL     1       0.596  -1.472  -1.748  0.00  0.00    -0.526 OA
ATOM     11  H   UNL     1       1.109  -1.710  -2.532  0.00  0.00    +0.384 HD
ENDBRANCH   9  10
BRANCH   9  12
ATOM     12  C   UNL     1       0.337   0.808  -2.440  0.00  0.00    +0.420 C 
ATOM     13  O   UNL     1      -0.179   0.360  -3.436  0.00  0.00    -0.428 OA
ENDBRANCH   9  12
BRANCH  14  15
ATOM     15  C   UNL     1       3.128   0.330  -2.151  0.00  0.00    +0.473 C 
ATOM     16  O   UNL     1       2.730   0.191  -3.289  0.00  0.00    -0.451 OA
ENDBRANCH  14  15
BRANCH  18  19
ATOM     19  O   UNL     1       2.617  -0.884   2.299  0.00  0.00    -0.547 OA
ATOM     20  H   UNL     1       3.483  -0.539   2.557  0.00  0.00    +0.378 HD
ENDBRANCH  18  19
TORSDOF 4
