REMARK  Name = ZINC95486134
REMARK  10 active torsions:
REMARK  status: ('A' for Active; 'I' for Inactive)
REMARK    1  A    between atoms: C1_1  and  C2_2
REMARK    2  A    between atoms: C3_3  and  O4_37
REMARK    3  A    between atoms: C11_14  and  C30_36
REMARK    4  A    between atoms: C14_17  and  C29_35
REMARK    5  A    between atoms: C15_18  and  C28_34
REMARK    6  A    between atoms: C18_21  and  C27_33
REMARK    7  A    between atoms: C21_25  and  C24_28
REMARK    8  A    between atoms: C21_25  and  C25_29
REMARK    9  A    between atoms: C25_29  and  O3_31
REMARK   10  A    between atoms: O3_31  and  C26_32
REMARK                            x       y       z     vdW  Elec       q    Type
REMARK                         _______ _______ _______ _____ _____    ______ ____
ROOT
ATOM      1  C   UNL     1       0.586   1.280  -0.101  0.00  0.00    +0.111 C 
ATOM      2  C   UNL     1       0.109  -0.101  -0.459  0.00  0.00    -0.125 C 
ATOM      3  C   UNL     1      -0.198  -0.418  -1.749  0.00  0.00    -0.001 C 
ATOM      6  C   UNL     1      -0.661  -1.828  -1.928  0.00  0.00    +0.402 C 
ATOM      7  C   UNL     1      -1.684  -2.254  -0.929  0.00  0.00    -0.091 C 
ATOM      8  C   UNL     1      -1.367  -1.913   0.346  0.00  0.00    -0.016 C 
ATOM      9  C   UNL     1      -2.321  -2.278   1.452  0.00  0.00    -0.004 C 
ATOM     10  C   UNL     1      -2.531  -3.802   1.353  0.00  0.00    +0.031 C 
ATOM     11  C   UNL     1      -3.650  -1.577   1.152  0.00  0.00    +0.040 C 
ATOM     12  C   UNL     1      -4.666  -1.903   2.233  0.00  0.00    +0.012 C 
ATOM     13  C   UNL     1      -4.206  -1.324   3.582  0.00  0.00    -0.022 C 
ATOM     14  C   UNL     1      -5.223  -1.848   4.613  0.00  0.00    +0.016 C 
ATOM     15  C   UNL     1      -2.830  -1.866   3.945  0.00  0.00    -0.025 C 
ATOM     16  C   UNL     1      -3.047  -3.320   4.452  0.00  0.00    +0.010 C 
ATOM     17  C   UNL     1      -2.265  -1.121   5.163  0.00  0.00    +0.016 C 
ATOM     18  C   UNL     1      -2.281   0.388   5.029  0.00  0.00    +0.009 C 
ATOM     19  C   UNL     1      -3.688   0.912   4.718  0.00  0.00    -0.047 C 
ATOM     20  C   UNL     1      -4.567   0.802   5.955  0.00  0.00    +0.026 C 
ATOM     21  C   UNL     1      -3.549   2.406   4.361  0.00  0.00    +0.009 C 
ATOM     22  C   UNL     1      -4.904   2.989   3.989  0.00  0.00    +0.042 C 
ATOM     23  C   UNL     1      -5.564   2.226   2.846  0.00  0.00    -0.043 C 
ATOM     28  C   UNL     1      -7.009   2.733   2.689  0.00  0.00    +0.055 C 
ATOM     29  C   UNL     1      -5.609   0.724   3.129  0.00  0.00    +0.055 C 
ATOM     30  C   UNL     1      -4.227   0.194   3.491  0.00  0.00    +0.021 C 
ATOM     31  C   UNL     1      -1.806  -1.920   2.829  0.00  0.00    +0.008 C 
ATOM     32  C   UNL     1      -0.949  -0.654   2.796  0.00  0.00    +0.031 C 
ATOM     33  C   UNL     1       0.304  -0.918   1.952  0.00  0.00    +0.034 C 
ATOM     34  O   UNL     1      -0.247  -2.561  -2.800  0.00  0.00    -0.433 OA
ATOM     35  C   UNL     1      -0.063  -1.209   0.532  0.00  0.00    +0.057 C 
ENDROOT
BRANCH   3   4
ATOM      4  O   UNL     1      -0.091   0.463  -2.773  0.00  0.00    -0.451 OA
ATOM      5  H   UNL     1      -0.343   0.098  -3.633  0.00  0.00    +0.400 HD
ENDBRANCH   3   4
BRANCH  23  24
ATOM     24  C   UNL     1      -4.831   2.489   1.555  0.00  0.00    +0.467 C 
ATOM     27  O   UNL     1      -4.384   1.567   0.915  0.00  0.00    -0.493 OA
BRANCH  24  25
ATOM     25  O   UNL     1      -4.676   3.748   1.117  0.00  0.00    -0.353 OA
ATOM     26  C   UNL     1      -3.971   3.924  -0.114  0.00  0.00    +0.253 C 
ENDBRANCH  24  25
ENDBRANCH  23  24
TORSDOF 3
