REMARK  Name = ZINC95486001
REMARK  8 active torsions:
REMARK  status: ('A' for Active; 'I' for Inactive)
REMARK    1  A    between atoms: C1_1  and  C2_2
REMARK    2  A    between atoms: C3_3  and  O4_34
REMARK    3  A    between atoms: C11_12  and  C29_33
REMARK    4  A    between atoms: C14_15  and  C28_32
REMARK    5  A    between atoms: C15_16  and  C27_31
REMARK    6  A    between atoms: C18_19  and  C26_30
REMARK    7  A    between atoms: C21_23  and  C24_26
REMARK    8  A    between atoms: C21_23  and  C25_27
REMARK                            x       y       z     vdW  Elec       q    Type
REMARK                         _______ _______ _______ _____ _____    ______ ____
ROOT
ATOM      1  C   UNL     1       0.238   1.882  -0.956  0.00  0.00    +0.105 C 
ATOM      2  C   UNL     1       0.354   0.383  -0.854  0.00  0.00    -0.064 C 
ATOM      3  C   UNL     1       0.457  -0.346  -1.998  0.00  0.00    +0.003 C 
ATOM      6  C   UNL     1       0.575  -1.754  -1.929  0.00  0.00    +0.381 C 
ATOM      7  C   UNL     1       0.655  -2.390  -0.676  0.00  0.00    -0.117 C 
ATOM      8  C   UNL     1       0.555  -1.665   0.470  0.00  0.00    +0.031 C 
ATOM      9  C   UNL     1       0.704  -2.378   1.791  0.00  0.00    -0.002 C 
ATOM     10  C   UNL     1       2.201  -2.679   1.920  0.00  0.00    +0.070 C 
ATOM     11  C   UNL     1      -0.051  -3.702   1.744  0.00  0.00    +0.045 C 
ATOM     12  C   UNL     1      -0.204  -4.339   3.121  0.00  0.00    +0.027 C 
ATOM     13  C   UNL     1      -0.877  -3.373   4.103  0.00  0.00    -0.025 C 
ATOM     14  C   UNL     1      -2.184  -2.910   3.446  0.00  0.00    +0.023 C 
ATOM     15  C   UNL     1       0.047  -2.165   4.303  0.00  0.00    -0.019 C 
ATOM     16  C   UNL     1       1.392  -2.590   4.900  0.00  0.00    +0.045 C 
ATOM     17  C   UNL     1      -0.611  -1.187   5.276  0.00  0.00    +0.023 C 
ATOM     18  C   UNL     1      -0.792  -1.855   6.639  0.00  0.00    +0.012 C 
ATOM     19  C   UNL     1      -1.637  -3.123   6.534  0.00  0.00    -0.043 C 
ATOM     20  C   UNL     1      -3.107  -2.735   6.386  0.00  0.00    +0.023 C 
ATOM     21  C   UNL     1      -1.494  -3.909   7.854  0.00  0.00    +0.001 C 
ATOM     22  C   UNL     1      -2.365  -5.157   7.822  0.00  0.00    +0.015 C 
ATOM     23  C   UNL     1      -2.102  -6.045   6.614  0.00  0.00    -0.125 C 
ATOM     27  C   UNL     1      -0.784  -6.805   6.799  0.00  0.00    +0.012 C 
ATOM     28  C   UNL     1      -2.068  -5.255   5.307  0.00  0.00    +0.041 C 
ATOM     29  C   UNL     1      -1.142  -4.049   5.433  0.00  0.00    +0.002 C 
ATOM     30  C   UNL     1       0.250  -1.530   2.943  0.00  0.00    +0.019 C 
ATOM     31  C   UNL     1       0.014  -0.219   2.805  0.00  0.00    -0.065 C 
ATOM     32  C   UNL     1       0.110   0.447   1.577  0.00  0.00    +0.163 C 
ATOM     33  O   UNL     1       0.615  -2.418  -2.955  0.00  0.00    -0.497 OA
ATOM     34  C   UNL     1       0.340  -0.269   0.401  0.00  0.00    -0.119 C 
ENDROOT
BRANCH  23  24
ATOM     24  C   UNL     1      -3.221  -7.066   6.518  0.00  0.00    +0.498 C 
ATOM     25  O   UNL     1      -4.207  -6.827   5.842  0.00  0.00    -0.698 OA
ATOM     26  O   UNL     1      -3.134  -8.124   7.118  0.00  0.00    -0.700 OA
ENDBRANCH  23  24
BRANCH   3   4
ATOM      4  O   UNL     1       0.445   0.281  -3.205  0.00  0.00    -0.467 OA
ATOM      5  H   UNL     1       0.524  -0.318  -3.960  0.00  0.00    +0.400 HD
ENDBRANCH   3   4
TORSDOF 2
