REMARK  Name = ZINC95486243
REMARK  10 active torsions:
REMARK  status: ('A' for Active; 'I' for Inactive)
REMARK    1  A    between atoms: C1_1  and  C2_2
REMARK    2  A    between atoms: C6_7  and  C30_41
REMARK    3  A    between atoms: C11_13  and  C23_30
REMARK    4  A    between atoms: C13_15  and  O3_29
REMARK    5  A    between atoms: C14_17  and  C22_26
REMARK    6  A    between atoms: C17_21  and  C20_24
REMARK    7  A    between atoms: C17_21  and  C21_25
REMARK    8  A    between atoms: C25_32  and  O6_40
REMARK    9  A    between atoms: C27_35  and  C28_36
REMARK   10  A    between atoms: C27_35  and  C29_37
REMARK                            x       y       z     vdW  Elec       q    Type
REMARK                         _______ _______ _______ _____ _____    ______ ____
ROOT
ATOM      1  C   UNL     1       1.015   1.653   0.041  0.00  0.00    +0.008 C 
ATOM      2  C   UNL     1       0.697   0.125   0.125  0.00  0.00    -0.023 C 
ATOM      3  C   UNL     1       1.473  -0.506  -1.026  0.00  0.00    +0.002 C 
ATOM      4  C   UNL     1       1.673  -2.001  -0.902  0.00  0.00    +0.010 C 
ATOM      5  C   UNL     1       2.205  -2.465   0.445  0.00  0.00    +0.027 C 
ATOM      6  C   UNL     1       1.611  -1.786   1.649  0.00  0.00    -0.013 C 
ATOM      7  C   UNL     1       2.760  -1.716   2.718  0.00  0.00    -0.006 C 
ATOM      8  C   UNL     1       0.462  -2.482   2.341  0.00  0.00    +0.037 C 
ATOM      9  C   UNL     1       0.018  -3.850   1.906  0.00  0.00    +0.155 C 
ATOM     12  C   UNL     1       0.633  -4.390   0.632  0.00  0.00    +0.014 C 
ATOM     13  C   UNL     1       2.099  -3.992   0.502  0.00  0.00    -0.115 C 
ATOM     17  C   UNL     1       2.916  -4.593   1.644  0.00  0.00    +0.021 C 
ATOM     18  C   UNL     1      -0.810  -0.039  -0.015  0.00  0.00    +0.025 C 
ATOM     19  C   UNL     1      -1.173  -1.528  -0.090  0.00  0.00    +0.019 C 
ATOM     20  C   UNL     1      -1.299   0.577  -1.319  0.00  0.00    -0.012 C 
ATOM     21  C   UNL     1      -2.803   0.802  -1.365  0.00  0.00    +0.177 C 
ATOM     24  C   UNL     1      -3.295   1.623  -0.184  0.00  0.00    -0.100 C 
ATOM     28  C   UNL     1      -2.965   0.961   1.139  0.00  0.00    +0.060 C 
ATOM     29  C   UNL     1      -3.865  -0.238   1.419  0.00  0.00    +0.023 C 
ATOM     30  C   UNL     1      -5.343   0.127   1.352  0.00  0.00    -0.055 C 
ATOM     31  C   UNL     1      -6.173  -1.161   1.530  0.00  0.00    +0.004 C 
ATOM     32  C   UNL     1      -5.710   1.102   2.468  0.00  0.00    +0.008 C 
ATOM     33  C   UNL     1      -5.668   0.730  -0.010  0.00  0.00    +0.012 C 
ATOM     34  C   UNL     1      -4.784   1.929  -0.314  0.00  0.00    +0.016 C 
ATOM     35  C   UNL     1      -1.517   0.521   1.182  0.00  0.00    -0.036 C 
ATOM     36  C   UNL     1      -0.910   0.617   2.334  0.00  0.00    -0.104 C 
ATOM     37  C   UNL     1       0.495   0.242   2.635  0.00  0.00    +0.047 C 
ATOM     38  C   UNL     1       1.267  -0.311   1.450  0.00  0.00    -0.008 C 
ENDROOT
BRANCH  13  14
ATOM     14  C   UNL     1       2.632  -4.585  -0.790  0.00  0.00    +0.506 C 
ATOM     15  O   UNL     1       1.882  -5.189  -1.538  0.00  0.00    -0.703 OA
ATOM     16  O   UNL     1       3.809  -4.457  -1.080  0.00  0.00    -0.704 OA
ENDBRANCH  13  14
BRANCH  24  25
ATOM     25  C   UNL     1      -2.581   2.966  -0.215  0.00  0.00    +0.506 C 
ATOM     26  O   UNL     1      -1.885   3.308   0.726  0.00  0.00    -0.676 OA
ATOM     27  O   UNL     1      -2.705   3.700  -1.180  0.00  0.00    -0.707 OA
ENDBRANCH  24  25
BRANCH   9  10
ATOM     10  O   UNL     1       0.239  -4.792   2.975  0.00  0.00    -0.582 OA
ATOM     11  H   UNL     1      -0.025  -5.697   2.762  0.00  0.00    +0.366 HD
ENDBRANCH   9  10
BRANCH  21  22
ATOM     22  O   UNL     1      -3.501  -0.433  -1.471  0.00  0.00    -0.558 OA
ATOM     23  H   UNL     1      -3.279  -0.944  -2.262  0.00  0.00    +0.358 HD
ENDBRANCH  21  22
TORSDOF 4
