REMARK  Name = ZINC95486101
REMARK  7 active torsions:
REMARK  status: ('A' for Active; 'I' for Inactive)
REMARK    1  A    between atoms: C2_2  and  C3_3
REMARK    2  A    between atoms: C10_15  and  O4_20
REMARK    3  A    between atoms: C11_17  and  O3_19
REMARK    4  A    between atoms: O4_20  and  C12_21
REMARK    5  A    between atoms: C12_21  and  C13_23
REMARK    6  A    between atoms: C13_23  and  C15_25
REMARK    7  A    between atoms: C15_25  and  O6_26
REMARK                            x       y       z     vdW  Elec       q    Type
REMARK                         _______ _______ _______ _____ _____    ______ ____
ROOT
ATOM      3  C   UNL     1      -1.240  -0.856  -0.050  0.00  0.00    -0.048 C 
ATOM      4  C   UNL     1      -1.303  -1.739   1.201  0.00  0.00    +0.270 C 
ATOM      5  O   UNL     1      -0.161  -2.600   1.238  0.00  0.00    -0.356 OA
ATOM      6  C   UNL     1       0.034  -3.359   0.140  0.00  0.00    +0.482 C 
ATOM      7  C   UNL     1       0.047  -2.666  -1.205  0.00  0.00    +0.077 C 
ATOM      8  O   UNL     1       0.193  -4.553   0.227  0.00  0.00    -0.439 OA
ATOM      9  C   UNL     1      -2.473   0.046  -0.075  0.00  0.00    +0.187 C 
ATOM     12  C   UNL     1      -3.754  -0.751  -0.247  0.00  0.00    +0.167 C 
ATOM     21  C   UNL     1      -3.637  -1.555  -1.528  0.00  0.00    +0.050 C 
ATOM     22  C   UNL     1      -4.748  -2.524  -1.838  0.00  0.00    -0.224 C 
ATOM     23  C   UNL     1      -4.036  -3.705  -2.399  0.00  0.00    +0.510 C 
ATOM     24  O   UNL     1      -2.687  -3.471  -2.387  0.00  0.00    -0.313 OA
ATOM     25  O   UNL     1      -4.568  -4.720  -2.803  0.00  0.00    -0.430 OA
ATOM     26  C   UNL     1      -6.056  -2.362  -1.655  0.00  0.00    +0.204 C 
ATOM     27  C   UNL     1      -2.468  -2.563  -1.316  0.00  0.00    +0.160 C 
ATOM     28  C   UNL     1      -1.190  -1.756  -1.298  0.00  0.00    +0.063 C 
ENDROOT
BRANCH   3   2
ATOM      1  C   UNL     1       0.750  -0.001   1.077  0.00  0.00    +0.045 C 
ATOM      2  C   UNL     1       0.002  -0.004   0.002  0.00  0.00    -0.021 C 
ENDBRANCH   3   2
BRANCH   9  10
ATOM     10  O   UNL     1      -2.358   0.964  -1.165  0.00  0.00    -0.544 OA
ATOM     11  H   UNL     1      -3.106   1.572  -1.247  0.00  0.00    +0.387 HD
ENDBRANCH   9  10
BRANCH  12  13
ATOM     13  O   UNL     1      -4.876   0.130  -0.328  0.00  0.00    -0.336 OA
BRANCH  13  14
ATOM     14  C   UNL     1      -5.498   0.436   0.829  0.00  0.00    +0.505 C 
ATOM     20  O   UNL     1      -5.099  -0.034   1.876  0.00  0.00    -0.495 OA
BRANCH  14  15
ATOM     15  C   UNL     1      -6.659   1.337   0.822  0.00  0.00    -0.187 C 
ATOM     19  C   UNL     1      -7.273   1.638   1.964  0.00  0.00    +0.214 C 
BRANCH  15  16
ATOM     16  C   UNL     1      -7.154   1.919  -0.476  0.00  0.00    +0.252 C 
BRANCH  16  17
ATOM     17  O   UNL     1      -8.285   2.756  -0.223  0.00  0.00    -0.572 OA
ATOM     18  H   UNL     1      -8.656   3.165  -1.016  0.00  0.00    +0.392 HD
ENDBRANCH  16  17
ENDBRANCH  15  16
ENDBRANCH  14  15
ENDBRANCH  13  14
ENDBRANCH  12  13
TORSDOF 7
