REMARK  Name = ZINC00057384
REMARK  7 active torsions:
REMARK  status: ('A' for Active; 'I' for Inactive)
REMARK    1  A    between atoms: C1_1  and  C2_2
REMARK    2  A    between atoms: C2_2  and  C3_3
REMARK    3  A    between atoms: C2_2  and  C4_4
REMARK    4  A    between atoms: C4_4  and  C5_5
REMARK    5  A    between atoms: C5_5  and  C6_7
REMARK    6  A    between atoms: C5_5  and  N2_39
REMARK    7  A    between atoms: N1_9  and  C7_10
REMARK                            x       y       z     vdW  Elec       q    Type
REMARK                         _______ _______ _______ _____ _____    ______ ____
ROOT
ATOM      9  C   UNL     1       0.133   1.472  -0.261  0.00  0.00    +0.501 C 
ATOM     10  N   UNL     1       1.328   2.079  -0.406  0.00  0.00    -0.643 N 
ATOM     11  H   UNL     1       2.143   1.551  -0.410  0.00  0.00    +0.418 HD
ATOM     22  O   UNL     1      -0.876   2.137  -0.165  0.00  0.00    -0.504 OA
ENDROOT
BRANCH  10  12
ATOM     12  C   UNL     1       1.394   3.468  -0.550  0.00  0.00    +0.124 A 
ATOM     13  C   UNL     1       0.370   4.144  -1.223  0.00  0.00    +0.014 A 
ATOM     14  C   UNL     1       0.405   5.495  -1.373  0.00  0.00    +0.058 A 
ATOM     15  C   UNL     1       1.488   6.229  -0.858  0.00  0.00    -0.055 A 
ATOM     16  C   UNL     1       1.554   7.625  -1.004  0.00  0.00    +0.028 A 
ATOM     17  C   UNL     1       2.616   8.307  -0.494  0.00  0.00    +0.021 A 
ATOM     18  C   UNL     1       3.643   7.641   0.172  0.00  0.00    +0.027 A 
ATOM     19  C   UNL     1       3.613   6.290   0.333  0.00  0.00    +0.019 A 
ATOM     20  C   UNL     1       2.532   5.552  -0.180  0.00  0.00    -0.037 A 
ATOM     21  C   UNL     1       2.469   4.157  -0.033  0.00  0.00    +0.017 A 
ENDBRANCH  10  12
BRANCH   9   4
ATOM      4  C   UNL     1       0.052  -0.032  -0.224  0.00  0.00    +0.175 C 
BRANCH   4   5
ATOM      5  N   UNL     1      -1.212  -0.426   0.423  0.00  0.00    -0.629 N 
ATOM      6  H   UNL     1      -1.290   0.051   1.329  0.00  0.00    +0.446 HD
ATOM      7  H   UNL     1      -1.228  -1.433   0.575  0.00  0.00    +0.447 HD
ATOM      8  H   UNL     1      -2.002  -0.158  -0.162  0.00  0.00    +0.445 HD
ENDBRANCH   4   5
BRANCH   4   3
ATOM      3  C   UNL     1       0.114  -0.582  -1.651  0.00  0.00    +0.072 C 
BRANCH   3   2
ATOM      1  C   UNL     1       2.560  -1.065  -1.483  0.00  0.00    +0.031 C 
ATOM      2  C   UNL     1       1.490  -0.286  -2.251  0.00  0.00    -0.021 C 
ATOM     23  C   UNL     1       1.508  -0.710  -3.721  0.00  0.00    +0.045 C 
ENDBRANCH   3   2
ENDBRANCH   4   3
ENDBRANCH   9   4
TORSDOF 5
