REMARK  Name = ZINC14504006
REMARK  3 active torsions:
REMARK  status: ('A' for Active; 'I' for Inactive)
REMARK    1  A    between atoms: C1_1  and  O1_2
REMARK    2  A    between atoms: O1_2  and  C2_3
REMARK    3  A    between atoms: C7_9  and  C13_17
REMARK                            x       y       z     vdW  Elec       q    Type
REMARK                         _______ _______ _______ _____ _____    ______ ____
ROOT
ATOM      3  C   UNL     1       3.640   2.118  -0.021  0.00  0.00    +0.128 A 
ATOM      4  C   UNL     1       2.485   1.369  -0.015  0.00  0.00    +0.044 A 
ATOM      5  C   UNL     1       1.235   1.999   0.001  0.00  0.00    -0.196 A 
ATOM      6  C   UNL     1      -0.015   1.216   0.009  0.00  0.00    +0.425 A 
ATOM      7  C   UNL     1      -1.233   1.934   0.018  0.00  0.00    -0.151 A 
ATOM      8  C   UNL     1      -1.208   3.294   0.030  0.00  0.00    +0.211 A 
ATOM     15  O   UNL     1      -0.063   3.992   0.024  0.00  0.00    -0.211 OA
ATOM     16  O   UNL     1       0.002  -0.004   0.002  0.00  0.00    -0.470 OA
ATOM     17  C   UNL     1       1.147   3.397   0.009  0.00  0.00    +0.165 A 
ATOM     18  C   UNL     1       2.325   4.154   0.002  0.00  0.00    -0.116 A 
ATOM     19  C   UNL     1       2.616   5.592   0.007  0.00  0.00    -0.025 A 
ATOM     20  C   UNL     1       3.952   5.702  -0.005  0.00  0.00    +0.236 A 
ATOM     21  O   UNL     1       4.515   4.481  -0.017  0.00  0.00    -0.171 OA
ATOM     22  C   UNL     1       3.573   3.516  -0.013  0.00  0.00    +0.085 A 
ENDROOT
BRANCH   8   9
ATOM      9  C   UNL     1      -2.489   4.029   0.046  0.00  0.00    -0.075 A 
ATOM     10  C   UNL     1      -3.699   3.330   0.047  0.00  0.00    +0.057 A 
ATOM     11  C   UNL     1      -4.891   4.023   0.068  0.00  0.00    +0.014 A 
ATOM     12  C   UNL     1      -4.891   5.407   0.074  0.00  0.00    +0.038 A 
ATOM     13  C   UNL     1      -3.697   6.105   0.067  0.00  0.00    +0.009 A 
ATOM     14  C   UNL     1      -2.497   5.425   0.053  0.00  0.00    +0.056 A 
ENDBRANCH   8   9
BRANCH   3   2
ATOM      1  C   UNL     1       4.847   0.069  -0.043  0.00  0.00    +0.253 C 
ATOM      2  O   UNL     1       4.850   1.498  -0.036  0.00  0.00    -0.307 OA
ENDBRANCH   3   2
TORSDOF 2
