REMARK  Name = ZINC40393112
REMARK  6 active torsions:
REMARK  status: ('A' for Active; 'I' for Inactive)
REMARK    1  A    between atoms: C1_1  and  C2_2
REMARK    2  A    between atoms: C2_2  and  C3_4
REMARK    3  A    between atoms: C5_7  and  O2_30
REMARK    4  A    between atoms: C7_11  and  C21_29
REMARK    5  A    between atoms: C15_21  and  C20_28
REMARK    6  A    between atoms: C18_24  and  N1_27
REMARK                            x       y       z     vdW  Elec       q    Type
REMARK                         _______ _______ _______ _____ _____    ______ ____
ROOT
ATOM      3  C   UNL     1      -0.012  -0.745  -1.299  0.00  0.00    -0.027 C 
ATOM      4  C   UNL     1       1.443  -0.957  -1.800  0.00  0.00    +0.013 C 
ATOM      5  C   UNL     1       1.482  -2.365  -2.445  0.00  0.00    +0.171 C 
ATOM      8  C   UNL     1       0.048  -2.879  -2.378  0.00  0.00    +0.013 C 
ATOM      9  C   UNL     1      -0.129  -4.373  -2.189  0.00  0.00    +0.016 C 
ATOM     10  C   UNL     1       0.451  -5.117  -3.397  0.00  0.00    +0.076 C 
ATOM     11  C   UNL     1       0.121  -6.577  -3.284  0.00  0.00    +0.002 C 
ATOM     12  C   UNL     1      -0.912  -7.022  -2.631  0.00  0.00    -0.167 C 
ATOM     13  C   UNL     1      -1.901  -6.137  -1.917  0.00  0.00    -0.013 C 
ATOM     14  C   UNL     1      -1.783  -6.427  -0.420  0.00  0.00    +0.035 C 
ATOM     15  C   UNL     1      -3.329  -6.491  -2.345  0.00  0.00    +0.030 C 
ATOM     16  C   UNL     1      -3.564  -7.988  -2.137  0.00  0.00    +0.059 C 
ATOM     17  C   UNL     1      -2.616  -8.787  -3.033  0.00  0.00    +0.174 C 
ATOM     22  C   UNL     1      -1.146  -8.523  -2.592  0.00  0.00    +0.112 C 
ATOM     23  C   UNL     1      -1.646  -4.655  -2.135  0.00  0.00    +0.002 C 
ATOM     24  C   UNL     1      -2.332  -3.845  -1.039  0.00  0.00    +0.020 C 
ATOM     25  C   UNL     1      -2.038  -2.343  -1.170  0.00  0.00    +0.036 C 
ATOM     26  C   UNL     1      -0.529  -2.177  -1.117  0.00  0.00    -0.046 C 
ATOM     27  C   UNL     1       0.051  -2.798   0.155  0.00  0.00    +0.038 C 
ENDROOT
BRANCH  17  18
ATOM     18  N   UNL     1      -2.802  -8.379  -4.431  0.00  0.00    -0.636 N 
ATOM     19  H   UNL     1      -3.756  -8.556  -4.709  0.00  0.00    +0.435 HD
ATOM     20  H   UNL     1      -2.176  -8.906  -5.022  0.00  0.00    +0.434 HD
ATOM     21  H   UNL     1      -2.602  -7.394  -4.524  0.00  0.00    +0.432 HD
ENDBRANCH  17  18
BRANCH   3   2
ATOM      1  C   UNL     1      -1.264   0.723   0.458  0.00  0.00    +0.062 C 
ATOM      2  C   UNL     1      -0.022  -0.004   0.013  0.00  0.00    +0.363 C 
ATOM     28  O   UNL     1       0.966   0.007   0.708  0.00  0.00    -0.451 OA
ENDBRANCH   3   2
BRANCH   5   6
ATOM      6  O   UNL     1       1.914  -2.274  -3.805  0.00  0.00    -0.565 OA
ATOM      7  H   UNL     1       2.805  -1.915  -3.911  0.00  0.00    +0.383 HD
ENDBRANCH   5   6
TORSDOF 3
