REMARK  Name = ZINC95486140
REMARK  10 active torsions:
REMARK  status: ('A' for Active; 'I' for Inactive)
REMARK    1  A    between atoms: C1_1  and  C2_2
REMARK    2  A    between atoms: C2_2  and  C4_4
REMARK    3  A    between atoms: C7_8  and  C32_40
REMARK    4  A    between atoms: C13_17  and  C31_39
REMARK    5  A    between atoms: C16_20  and  C29_35
REMARK    6  A    between atoms: C17_22  and  C27_33
REMARK    7  A    between atoms: C17_22  and  C28_34
REMARK    8  A    between atoms: C21_27  and  C26_32
REMARK    9  A    between atoms: C22_28  and  C25_31
REMARK   10  A    between atoms: C29_35  and  C30_36
REMARK                            x       y       z     vdW  Elec       q    Type
REMARK                         _______ _______ _______ _____ _____    ______ ____
ROOT
ATOM      3  C   UNL     1      -0.729  -1.520  -1.363  0.00  0.00    +0.031 C 
ATOM      4  C   UNL     1      -2.059  -1.407  -2.135  0.00  0.00    +0.014 C 
ATOM      5  C   UNL     1      -1.815  -0.303  -3.184  0.00  0.00    +0.004 C 
ATOM      6  C   UNL     1      -0.312  -0.468  -3.577  0.00  0.00    -0.044 C 
ATOM      7  C   UNL     1       0.268   0.896  -4.007  0.00  0.00    +0.025 C 
ATOM      8  C   UNL     1      -0.293  -1.455  -4.738  0.00  0.00    +0.004 C 
ATOM      9  C   UNL     1       1.003  -2.242  -4.871  0.00  0.00    +0.015 C 
ATOM     10  C   UNL     1       1.297  -2.972  -3.558  0.00  0.00    -0.028 C 
ATOM     11  C   UNL     1       0.092  -3.855  -3.216  0.00  0.00    +0.014 C 
ATOM     12  C   UNL     1       2.526  -3.885  -3.691  0.00  0.00    -0.028 C 
ATOM     13  C   UNL     1       2.185  -4.902  -4.792  0.00  0.00    +0.013 C 
ATOM     14  C   UNL     1       2.746  -4.656  -2.387  0.00  0.00    +0.013 C 
ATOM     15  C   UNL     1       3.913  -5.621  -2.544  0.00  0.00    -0.001 C 
ATOM     16  C   UNL     1       5.216  -4.942  -2.948  0.00  0.00    -0.004 C 
ATOM     17  C   UNL     1       6.097  -4.686  -1.746  0.00  0.00    -0.045 C 
ATOM     18  C   UNL     1       5.314  -4.151  -0.544  0.00  0.00    +0.014 C 
ATOM     19  C   UNL     1       6.711  -6.042  -1.314  0.00  0.00    +0.001 C 
ATOM     20  C   UNL     1       7.270  -3.751  -2.028  0.00  0.00    +0.019 C 
ATOM     25  C   UNL     1       6.770  -2.506  -2.757  0.00  0.00    +0.022 C 
ATOM     26  C   UNL     1       6.246  -2.926  -4.119  0.00  0.00    +0.001 C 
ATOM     27  C   UNL     1       5.069  -3.910  -4.029  0.00  0.00    -0.027 C 
ATOM     28  C   UNL     1       5.143  -4.660  -5.393  0.00  0.00    -0.002 C 
ATOM     29  C   UNL     1       3.777  -3.093  -4.009  0.00  0.00    +0.012 C 
ATOM     30  C   UNL     1       3.972  -1.954  -3.003  0.00  0.00    +0.014 C 
ATOM     31  C   UNL     1       2.740  -1.066  -2.902  0.00  0.00    -0.002 C 
ATOM     32  C   UNL     1       1.524  -1.912  -2.492  0.00  0.00    +0.009 C 
ATOM     33  C   UNL     1       0.349  -0.980  -2.302  0.00  0.00    -0.000 C 
ENDROOT
BRANCH   3   2
ATOM      1  C   UNL     1      -1.068   0.805  -0.216  0.00  0.00    +0.067 C 
ATOM      2  C   UNL     1      -0.792  -0.672  -0.112  0.00  0.00    -0.113 C 
ATOM     34  C   UNL     1      -0.606  -1.222   1.063  0.00  0.00    -0.013 C 
ENDBRANCH   3   2
BRANCH  20  21
ATOM     21  C   UNL     1       7.922  -3.337  -0.706  0.00  0.00    -0.070 C 
BRANCH  21  22
ATOM     22  C   UNL     1       9.154  -2.516  -0.989  0.00  0.00    +0.489 C 
ATOM     23  O   UNL     1       9.824  -2.085  -0.066  0.00  0.00    -0.713 OA
ATOM     24  O   UNL     1       9.481  -2.284  -2.140  0.00  0.00    -0.694 OA
ENDBRANCH  21  22
ENDBRANCH  20  21
TORSDOF 3
