REMARK  Name = ZINC95486329
REMARK  7 active torsions:
REMARK  status: ('A' for Active; 'I' for Inactive)
REMARK    1  A    between atoms: C1_1  and  C2_2
REMARK    2  A    between atoms: C5_6  and  C7_9
REMARK    3  A    between atoms: C8_10  and  O6_28
REMARK    4  A    between atoms: C12_14  and  O3_15
REMARK    5  A    between atoms: O3_15  and  C13_16
REMARK    6  A    between atoms: C16_20  and  C17_22
REMARK    7  A    between atoms: O6_28  and  C23_29
REMARK                            x       y       z     vdW  Elec       q    Type
REMARK                         _______ _______ _______ _____ _____    ______ ____
ROOT
ATOM      6  C   UNL     1       2.433  -1.185  -4.265  0.00  0.00    -0.091 A 
ATOM      7  C   UNL     1       3.834  -1.168  -4.276  0.00  0.00    +0.222 A 
ATOM     10  C   UNL     1       4.527  -1.135  -5.473  0.00  0.00    -0.090 A 
ATOM     11  C   UNL     1       3.839  -1.119  -6.678  0.00  0.00    +0.209 A 
ATOM     12  C   UNL     1       2.432  -1.137  -6.675  0.00  0.00    -0.282 A 
ATOM     13  C   UNL     1       1.727  -1.119  -7.968  0.00  0.00    +0.425 A 
ATOM     14  C   UNL     1       2.519  -1.085  -9.142  0.00  0.00    -0.143 A 
ATOM     15  C   UNL     1       3.874  -1.070  -9.035  0.00  0.00    +0.203 A 
ATOM     22  O   UNL     1       0.508  -1.132  -8.026  0.00  0.00    -0.453 OA
ATOM     23  O   UNL     1       4.506  -1.086  -7.851  0.00  0.00    -0.218 OA
ATOM     24  C   UNL     1       1.728  -1.175  -5.467  0.00  0.00    +0.242 A 
ENDROOT
BRANCH   6   5
ATOM      1  C   UNL     1      -0.018   1.503   0.010  0.00  0.00    +0.122 C 
ATOM      2  C   UNL     1       0.002  -0.004   0.002  0.00  0.00    +0.097 C 
ATOM      3  C   UNL     1       0.581  -0.660  -1.011  0.00  0.00    -0.074 C 
ATOM      4  C   UNL     1       1.247  -0.062  -2.189  0.00  0.00    +0.402 C 
ATOM      5  C   UNL     1       1.700  -1.220  -2.975  0.00  0.00    -0.274 C 
ATOM     27  C   UNL     1       1.317  -2.326  -2.290  0.00  0.00    +0.359 C 
ATOM     28  O   UNL     1       1.388   1.121  -2.449  0.00  0.00    -0.428 OA
ATOM     29  O   UNL     1       0.679  -2.005  -1.158  0.00  0.00    -0.217 OA
ENDBRANCH   6   5
BRANCH  15  16
ATOM     16  C   UNL     1       4.683  -1.035 -10.271  0.00  0.00    -0.073 A 
ATOM     17  C   UNL     1       4.056  -1.011 -11.519  0.00  0.00    +0.056 A 
ATOM     18  C   UNL     1       4.818  -0.978 -12.668  0.00  0.00    +0.014 A 
ATOM     19  C   UNL     1       6.199  -0.968 -12.587  0.00  0.00    +0.037 A 
ATOM     20  C   UNL     1       6.826  -0.992 -11.354  0.00  0.00    +0.009 A 
ATOM     21  C   UNL     1       6.077  -1.019 -10.196  0.00  0.00    +0.054 A 
ENDBRANCH  15  16
BRANCH   7   8
ATOM      8  O   UNL     1       4.517  -1.184  -3.103  0.00  0.00    -0.294 OA
ATOM      9  C   UNL     1       5.943  -1.165  -3.182  0.00  0.00    +0.254 C 
ENDBRANCH   7   8
BRANCH  24  25
ATOM     25  O   UNL     1       0.371  -1.197  -5.465  0.00  0.00    -0.313 OA
ATOM     26  C   UNL     1      -0.298   0.065  -5.442  0.00  0.00    +0.248 C 
ENDBRANCH  24  25
TORSDOF 4
