REMARK  Name = ZINC14826756
REMARK  5 active torsions:
REMARK  status: ('A' for Active; 'I' for Inactive)
REMARK    1  A    between atoms: C1_1  and  O1_2
REMARK    2  A    between atoms: O1_2  and  C2_3
REMARK    3  A    between atoms: C7_8  and  O2_9
REMARK    4  A    between atoms: O2_9  and  C8_10
REMARK    5  A    between atoms: C17_22  and  O6_25
REMARK                            x       y       z     vdW  Elec       q    Type
REMARK                         _______ _______ _______ _____ _____    ______ ____
ROOT
ATOM      3  C   UNL     1       1.813   2.383   1.201  0.00  0.00    +0.184 A 
ATOM      4  C   UNL     1       3.047   3.026   1.203  0.00  0.00    -0.091 A 
ATOM      5  C   UNL     1       3.655   3.357   0.025  0.00  0.00    +0.161 A 
ATOM      6  C   UNL     1       3.037   3.042  -1.189  0.00  0.00    -0.272 A 
ATOM      7  C   UNL     1       1.792   2.390  -1.204  0.00  0.00    +0.204 A 
ATOM      8  O   UNL     1       1.171   2.083  -2.375  0.00  0.00    -0.266 OA
ATOM      9  C   UNL     1       1.550   2.838  -3.520  0.00  0.00    +0.173 C 
ATOM     10  C   UNL     1       0.902   2.324  -4.803  0.00  0.00    +0.310 C 
ATOM     11  O   UNL     1       1.250   3.222  -5.860  0.00  0.00    -0.295 OA
ATOM     12  C   UNL     1       2.535   3.658  -5.965  0.00  0.00    +0.166 A 
ATOM     13  C   UNL     1       2.886   4.324  -7.144  0.00  0.00    +0.023 A 
ATOM     14  C   UNL     1       4.182   4.797  -7.259  0.00  0.00    +0.086 A 
ATOM     15  C   UNL     1       5.114   4.613  -6.226  0.00  0.00    -0.005 A 
ATOM     16  O   UNL     1       6.290   5.173  -6.594  0.00  0.00    -0.301 OA
ATOM     17  C   UNL     1       6.197   5.359  -8.022  0.00  0.00    +0.437 C 
ATOM     18  C   UNL     1       4.766   3.948  -5.061  0.00  0.00    +0.127 A 
ATOM     19  O   UNL     1       4.780   5.468  -8.270  0.00  0.00    -0.299 OA
ATOM     20  C   UNL     1       3.462   3.472  -4.951  0.00  0.00    -0.204 A 
ATOM     21  C   UNL     1       3.074   2.742  -3.695  0.00  0.00    +0.115 C 
ATOM     24  C   UNL     1       3.686   3.387  -2.468  0.00  0.00    +0.393 C 
ATOM     25  O   UNL     1       4.641   4.133  -2.533  0.00  0.00    -0.418 OA
ATOM     26  C   UNL     1       1.187   2.059   0.002  0.00  0.00    +0.022 A 
ENDROOT
BRANCH   3   2
ATOM      1  C   UNL     1       1.911   2.423   3.575  0.00  0.00    +0.254 C 
ATOM      2  O   UNL     1       1.217   2.063   2.378  0.00  0.00    -0.295 OA
ENDBRANCH   3   2
BRANCH  21  22
ATOM     22  O   UNL     1       3.470   1.372  -3.787  0.00  0.00    -0.514 OA
ATOM     23  H   UNL     1       4.421   1.243  -3.898  0.00  0.00    +0.390 HD
ENDBRANCH  21  22
BRANCH  26  27
ATOM     27  O   UNL     1      -0.017   1.425   0.010  0.00  0.00    -0.308 OA
ATOM     28  C   UNL     1       0.002  -0.004   0.002  0.00  0.00    +0.224 C 
ENDBRANCH  26  27
TORSDOF 3
