REMARK  Name = ZINC95486012
REMARK  4 active torsions:
REMARK  status: ('A' for Active; 'I' for Inactive)
REMARK    1  A    between atoms: C1_1  and  O1_2
REMARK    2  A    between atoms: O1_2  and  C2_3
REMARK    3  A    between atoms: C7_8  and  O2_9
REMARK    4  A    between atoms: O2_9  and  C8_10
REMARK                            x       y       z     vdW  Elec       q    Type
REMARK                         _______ _______ _______ _____ _____    ______ ____
ROOT
ATOM      3  C   UNL     1       0.626  -0.619   1.042  0.00  0.00    +0.111 A 
ATOM      4  C   UNL     1       1.201   0.133   2.050  0.00  0.00    -0.042 A 
ATOM      5  C   UNL     1       1.846  -0.483   3.115  0.00  0.00    -0.070 A 
ATOM      6  C   UNL     1       1.916  -1.861   3.163  0.00  0.00    -0.079 A 
ATOM      7  C   UNL     1       2.626  -2.578   4.275  0.00  0.00    +0.009 C 
ATOM      8  C   UNL     1       2.714  -1.667   5.506  0.00  0.00    +0.187 C 
ATOM      9  O   UNL     1       3.445  -2.337   6.527  0.00  0.00    -0.297 OA
ATOM     10  C   UNL     1       3.011  -3.572   6.901  0.00  0.00    +0.198 A 
ATOM     11  C   UNL     1       3.371  -4.036   8.162  0.00  0.00    +0.005 A 
ATOM     12  C   UNL     1       2.925  -5.300   8.536  0.00  0.00    +0.118 A 
ATOM     13  C   UNL     1       2.132  -6.085   7.658  0.00  0.00    -0.179 A 
ATOM     14  C   UNL     1       1.768  -5.628   6.397  0.00  0.00    +0.187 A 
ATOM     15  C   UNL     1       1.862  -7.324   8.375  0.00  0.00    -0.027 A 
ATOM     16  C   UNL     1       2.474  -7.204   9.565  0.00  0.00    +0.211 A 
ATOM     17  O   UNL     1       3.096  -6.010   9.653  0.00  0.00    -0.186 OA
ATOM     18  C   UNL     1       2.223  -4.353   6.035  0.00  0.00    -0.260 A 
ATOM     19  C   UNL     1       3.398  -0.369   5.080  0.00  0.00    +0.067 C 
ATOM     20  C   UNL     1       1.868  -3.821   4.694  0.00  0.00    +0.414 C 
ATOM     21  O   UNL     1       1.029  -4.337   3.986  0.00  0.00    -0.432 OA
ATOM     22  C   UNL     1       1.332  -2.620   2.158  0.00  0.00    +0.003 A 
ATOM     23  C   UNL     1       2.435   0.404   4.180  0.00  0.00    +0.099 C 
ATOM     24  C   UNL     1       0.684  -2.008   1.101  0.00  0.00    +0.097 A 
ENDROOT
BRANCH   3   2
ATOM      1  C   UNL     1      -0.017   1.425   0.010  0.00  0.00    +0.238 C 
ATOM      2  O   UNL     1       0.002  -0.004   0.002  0.00  0.00    -0.305 OA
ENDBRANCH   3   2
BRANCH  24  25
ATOM     25  O   UNL     1       0.112  -2.759   0.122  0.00  0.00    -0.305 OA
ATOM     26  C   UNL     1       0.212  -4.178   0.251  0.00  0.00    +0.239 C 
ENDBRANCH  24  25
TORSDOF 2
