REMARK  Name = ZINC95486336
REMARK  6 active torsions:
REMARK  status: ('A' for Active; 'I' for Inactive)
REMARK    1  A    between atoms: C1_1  and  C2_2
REMARK    2  A    between atoms: C6_6  and  C19_27
REMARK    3  A    between atoms: C6_6  and  C20_28
REMARK    4  A    between atoms: C12_13  and  C13_15
REMARK    5  A    between atoms: C15_18  and  C18_25
REMARK    6  A    between atoms: C17_20  and  O3_24
REMARK                            x       y       z     vdW  Elec       q    Type
REMARK                         _______ _______ _______ _____ _____    ______ ____
ROOT
ATOM      1  C   UNL     1      -0.543   1.053   0.063  0.00  0.00    +0.030 C 
ATOM      2  C   UNL     1      -0.156  -0.415  -0.112  0.00  0.00    -0.028 C 
ATOM      3  C   UNL     1      -1.410  -1.247  -0.383  0.00  0.00    +0.005 C 
ATOM      4  C   UNL     1      -2.289  -1.298   0.866  0.00  0.00    -0.001 C 
ATOM      5  C   UNL     1      -1.522  -1.976   1.996  0.00  0.00    +0.008 C 
ATOM      6  C   UNL     1      -0.235  -1.218   2.321  0.00  0.00    -0.049 C 
ATOM      7  C   UNL     1      -0.566   0.066   3.079  0.00  0.00    +0.023 C 
ATOM      8  C   UNL     1       0.574  -2.122   3.281  0.00  0.00    +0.012 C 
ATOM      9  C   UNL     1       0.761  -0.516  -1.349  0.00  0.00    +0.034 C 
ATOM     21  C   UNL     1       2.045   0.224  -1.047  0.00  0.00    -0.112 C 
ATOM     22  C   UNL     1       2.500   1.134  -1.876  0.00  0.00    +0.010 C 
ATOM     23  C   UNL     1       2.795  -0.108   0.220  0.00  0.00    +0.053 C 
ATOM     24  C   UNL     1       1.823  -0.099   1.406  0.00  0.00    +0.021 C 
ATOM     25  C   UNL     1       0.607  -0.966   1.084  0.00  0.00    +0.005 C 
ENDROOT
BRANCH   9  10
ATOM     10  C   UNL     1       0.079   0.136  -2.553  0.00  0.00    +0.219 C 
ATOM     11  C   UNL     1      -1.352  -0.347  -2.648  0.00  0.00    +0.019 C 
ATOM     12  C   UNL     1      -1.611  -1.648  -2.602  0.00  0.00    -0.152 C 
ATOM     15  C   UNL     1      -0.478  -2.639  -2.465  0.00  0.00    +0.096 C 
ATOM     16  C   UNL     1       0.320  -2.651  -3.773  0.00  0.00    +0.350 C 
ATOM     19  O   UNL     1       1.277  -1.602  -3.771  0.00  0.00    -0.225 OA
ATOM     20  O   UNL     1       0.771  -0.228  -3.751  0.00  0.00    -0.170 OA
BRANCH  12  13
ATOM     13  C   UNL     1      -2.993  -2.123  -2.683  0.00  0.00    +0.476 C 
ATOM     14  O   UNL     1      -3.229  -3.312  -2.641  0.00  0.00    -0.448 OA
ENDBRANCH  12  13
BRANCH  16  17
ATOM     17  O   UNL     1      -0.573  -2.473  -4.875  0.00  0.00    -0.562 OA
ATOM     18  H   UNL     1      -0.137  -2.470  -5.738  0.00  0.00    +0.386 HD
ENDBRANCH  16  17
ENDBRANCH   9  10
TORSDOF 3
