REMARK  Name = ZINC31168265
REMARK  3 active torsions:
REMARK  status: ('A' for Active; 'I' for Inactive)
REMARK    1  A    between atoms: C1_1  and  C2_2
REMARK    2  A    between atoms: C16_18  and  C19_21
REMARK    3  A    between atoms: C16_18  and  O3_22
REMARK                            x       y       z     vdW  Elec       q    Type
REMARK                         _______ _______ _______ _____ _____    ______ ____
ROOT
ATOM      1  C   UNL     1      -3.916  -0.457   4.325  0.00  0.00    +0.117 C 
ATOM      2  C   UNL     1      -3.630   0.012   2.922  0.00  0.00    -0.022 A 
ATOM      3  C   UNL     1      -2.399   0.575   2.617  0.00  0.00    -0.064 A 
ATOM      4  C   UNL     1      -2.131   1.009   1.332  0.00  0.00    -0.066 A 
ATOM      5  C   UNL     1      -0.729   1.579   1.267  0.00  0.00    +0.176 C 
ATOM      8  C   UNL     1      -0.013   1.086   0.008  0.00  0.00    +0.024 C 
ATOM      9  C   UNL     1      -0.019   1.048   2.530  0.00  0.00    +0.027 C 
ATOM     10  C   UNL     1      -3.090   0.884   0.336  0.00  0.00    +0.099 A 
ATOM     11  C   UNL     1      -4.325   0.320   0.627  0.00  0.00    -0.122 A 
ATOM     12  C   UNL     1      -5.357   0.178  -0.424  0.00  0.00    +0.438 C 
ATOM     13  O   UNL     1      -5.245   0.770  -1.479  0.00  0.00    -0.427 OA
ATOM     14  C   UNL     1      -6.526  -0.694  -0.175  0.00  0.00    -0.120 A 
ATOM     15  C   UNL     1      -7.354  -1.084  -1.221  0.00  0.00    +0.075 A 
ATOM     16  C   UNL     1      -8.444  -1.900  -0.969  0.00  0.00    +0.040 A 
ATOM     17  C   UNL     1      -8.714  -2.331   0.317  0.00  0.00    +0.040 A 
ATOM     18  C   UNL     1      -7.900  -1.951   1.370  0.00  0.00    +0.075 A 
ATOM     19  C   UNL     1      -6.800  -1.133   1.134  0.00  0.00    -0.119 A 
ATOM     20  C   UNL     1      -5.916  -0.720   2.245  0.00  0.00    +0.436 C 
ATOM     21  O   UNL     1      -6.266  -0.872   3.399  0.00  0.00    -0.422 OA
ATOM     22  C   UNL     1      -1.196   0.824   3.502  0.00  0.00    +0.098 C 
ATOM     23  C   UNL     1      -4.599  -0.120   1.936  0.00  0.00    -0.117 A 
ENDROOT
BRANCH   5   6
ATOM      6  O   UNL     1      -0.771   3.007   1.285  0.00  0.00    -0.578 OA
ATOM      7  H   UNL     1       0.164   3.586   1.244  0.00  0.00    +0.411 HD
ENDBRANCH   5   6
TORSDOF 1
