REMARK  Name = ZINC95486361
REMARK  4 active torsions:
REMARK  status: ('A' for Active; 'I' for Inactive)
REMARK    1  A    between atoms: C1_1  and  C2_2
REMARK    2  A    between atoms: C6_7  and  C18_24
REMARK    3  A    between atoms: C6_7  and  C19_25
REMARK    4  A    between atoms: C19_25  and  O2_26
REMARK                            x       y       z     vdW  Elec       q    Type
REMARK                         _______ _______ _______ _____ _____    ______ ____
ROOT
ATOM      1  C   UNL     1       0.130   1.554  -0.239  0.00  0.00    +0.031 C 
ATOM      2  C   UNL     1       0.131   0.024  -0.243  0.00  0.00    -0.049 C 
ATOM      3  C   UNL     1       0.842  -0.484  -1.502  0.00  0.00    +0.048 C 
ATOM      4  C   UNL     1       2.277   0.047  -1.545  0.00  0.00    +0.011 C 
ATOM      5  C   UNL     1       2.963  -0.362  -0.259  0.00  0.00    +0.369 C 
ATOM      6  C   UNL     1       2.286  -0.005   1.043  0.00  0.00    -0.100 C 
ATOM     10  C   UNL     1       2.313   1.513   1.232  0.00  0.00    +0.058 C 
ATOM     11  O   UNL     1       4.016  -0.953  -0.274  0.00  0.00    -0.435 OA
ATOM     12  C   UNL     1      -1.318  -0.490  -0.293  0.00  0.00    +0.025 C 
ATOM     13  C   UNL     1      -1.362  -1.549  -1.405  0.00  0.00    +0.047 C 
ATOM     14  C   UNL     1      -2.441  -2.600  -1.142  0.00  0.00    -0.026 C 
ATOM     15  C   UNL     1      -2.132  -3.368   0.178  0.00  0.00    -0.076 C 
ATOM     16  C   UNL     1      -1.189  -2.574   1.137  0.00  0.00    +0.059 C 
ATOM     17  C   UNL     1      -3.410  -2.506   0.026  0.00  0.00    -0.032 C 
ATOM     18  C   UNL     1      -3.252  -1.320   1.005  0.00  0.00    +0.050 C 
ATOM     19  C   UNL     1      -1.708  -1.129   1.035  0.00  0.00    -0.056 C 
ATOM     20  C   UNL     1      -1.343  -0.294   2.240  0.00  0.00    +0.026 C 
ATOM     21  C   UNL     1       0.135   0.070   2.255  0.00  0.00    +0.020 C 
ATOM     22  C   UNL     1       0.833  -0.489   1.010  0.00  0.00    +0.024 C 
ENDROOT
BRANCH   6   7
ATOM      7  C   UNL     1       3.023  -0.677   2.203  0.00  0.00    +0.189 C 
BRANCH   7   8
ATOM      8  O   UNL     1       4.379  -0.226   2.231  0.00  0.00    -0.560 OA
ATOM      9  H   UNL     1       4.907  -0.612   2.943  0.00  0.00    +0.379 HD
ENDBRANCH   7   8
ENDBRANCH   6   7
TORSDOF 2
