REMARK  Name = ZINC14721303
REMARK  7 active torsions:
REMARK  status: ('A' for Active; 'I' for Inactive)
REMARK    1  A    between atoms: C1_1  and  N1_2
REMARK    2  A    between atoms: C6_7  and  O4_21
REMARK    3  A    between atoms: C11_13  and  O3_19
REMARK    4  A    between atoms: C12_14  and  O2_17
REMARK    5  A    between atoms: O2_17  and  C15_18
REMARK    6  A    between atoms: O3_19  and  C16_20
REMARK    7  A    between atoms: O4_21  and  C17_22
REMARK                            x       y       z     vdW  Elec       q    Type
REMARK                         _______ _______ _______ _____ _____    ______ ____
ROOT
ATOM      1  C   UNL     1       1.393   1.477   2.348  0.00  0.00    +0.319 C 
ATOM      2  N   UNL     1       1.299   2.926   2.540  0.00  0.00    -0.505 N 
ATOM      3  C   UNL     1       2.276   3.563   3.280  0.00  0.00    +0.251 A 
ATOM      4  C   UNL     1       3.319   2.829   3.831  0.00  0.00    -0.027 A 
ATOM      5  C   UNL     1       4.303   3.460   4.574  0.00  0.00    +0.127 A 
ATOM      6  C   UNL     1       4.258   4.840   4.781  0.00  0.00    -0.039 A 
ATOM      7  O   UNL     1       5.336   5.202   5.540  0.00  0.00    -0.294 OA
ATOM      8  C   UNL     1       5.811   3.982   6.138  0.00  0.00    +0.438 C 
ATOM      9  C   UNL     1       3.228   5.589   4.241  0.00  0.00    +0.214 A 
ATOM     12  O   UNL     1       5.407   2.963   5.204  0.00  0.00    -0.299 OA
ATOM     13  C   UNL     1       2.229   4.954   3.487  0.00  0.00    -0.229 A 
ATOM     14  C   UNL     1       1.129   5.731   2.897  0.00  0.00    +0.445 A 
ATOM     15  C   UNL     1       0.112   4.997   2.124  0.00  0.00    -0.235 A 
ATOM     16  C   UNL     1      -0.970   5.671   1.551  0.00  0.00    +0.167 A 
ATOM     17  C   UNL     1      -1.905   4.977   0.838  0.00  0.00    -0.097 A 
ATOM     18  C   UNL     1      -1.789   3.599   0.678  0.00  0.00    +0.185 A 
ATOM     21  C   UNL     1      -0.723   2.912   1.239  0.00  0.00    -0.009 A 
ATOM     24  O   UNL     1       1.055   6.937   3.051  0.00  0.00    -0.449 OA
ATOM     25  C   UNL     1       0.238   3.605   1.974  0.00  0.00    +0.247 A 
ENDROOT
BRANCH   9  10
ATOM     10  O   UNL     1       3.183   6.931   4.439  0.00  0.00    -0.312 OA
ATOM     11  C   UNL     1       2.477   7.394   5.592  0.00  0.00    +0.244 C 
ENDBRANCH   9  10
BRANCH  18  19
ATOM     19  O   UNL     1      -2.728   2.922  -0.034  0.00  0.00    -0.299 OA
ATOM     20  C   UNL     1      -3.801   3.687  -0.586  0.00  0.00    +0.251 C 
ENDBRANCH  18  19
BRANCH  21  22
ATOM     22  O   UNL     1      -0.618   1.565   1.077  0.00  0.00    -0.309 OA
ATOM     23  C   UNL     1       0.109   1.103  -0.063  0.00  0.00    +0.217 C 
ENDBRANCH  21  22
TORSDOF 3
