REMARK  Name = ZINC95486144
REMARK  9 active torsions:
REMARK  status: ('A' for Active; 'I' for Inactive)
REMARK    1  A    between atoms: C1_1  and  C2_2
REMARK    2  A    between atoms: C6_6  and  C20_27
REMARK    3  A    between atoms: C6_6  and  C21_28
REMARK    4  A    between atoms: C11_12  and  C12_14
REMARK    5  A    between atoms: C12_14  and  C13_15
REMARK    6  A    between atoms: C14_16  and  C15_17
REMARK    7  A    between atoms: C14_16  and  C17_21
REMARK    8  A    between atoms: C17_21  and  O3_23
REMARK    9  A    between atoms: O3_23  and  C18_24
REMARK                            x       y       z     vdW  Elec       q    Type
REMARK                         _______ _______ _______ _____ _____    ______ ____
ROOT
ATOM      1  C   UNL     1      -0.383   1.270   0.138  0.00  0.00    +0.029 C 
ATOM      2  C   UNL     1      -0.290  -0.261   0.039  0.00  0.00    -0.031 C 
ATOM      3  C   UNL     1      -1.710  -0.826  -0.031  0.00  0.00    +0.019 C 
ATOM      4  C   UNL     1      -2.442  -0.534   1.281  0.00  0.00    +0.007 C 
ATOM      5  C   UNL     1      -1.723  -1.250   2.420  0.00  0.00    +0.012 C 
ATOM      6  C   UNL     1      -0.268  -0.802   2.542  0.00  0.00    -0.050 C 
ATOM      7  C   UNL     1      -0.201   0.573   3.204  0.00  0.00    +0.024 C 
ATOM      8  C   UNL     1       0.417  -1.804   3.503  0.00  0.00    +0.011 C 
ATOM      9  C   UNL     1       0.444  -0.576  -1.274  0.00  0.00    +0.034 C 
ATOM     20  C   UNL     1       1.890  -0.084  -1.178  0.00  0.00    +0.030 C 
ATOM     21  C   UNL     1       2.247   1.254  -1.819  0.00  0.00    +0.181 C 
ATOM     22  O   UNL     1       2.624   0.006  -2.405  0.00  0.00    -0.344 OA
ATOM     23  C   UNL     1       2.668  -0.525   0.061  0.00  0.00    +0.046 C 
ATOM     24  C   UNL     1       1.860  -0.229   1.329  0.00  0.00    +0.030 C 
ATOM     25  C   UNL     1       0.469  -0.853   1.214  0.00  0.00    +0.005 C 
ENDROOT
BRANCH   9  10
ATOM     10  C   UNL     1       0.428  -2.069  -1.588  0.00  0.00    +0.071 C 
BRANCH  10  11
ATOM     11  C   UNL     1       1.052  -2.304  -2.939  0.00  0.00    +0.083 C 
ATOM     12  C   UNL     1       2.056  -3.169  -3.067  0.00  0.00    -0.142 C 
BRANCH  12  17
ATOM     17  C   UNL     1       2.619  -3.472  -4.431  0.00  0.00    +0.184 C 
ATOM     18  C   UNL     1       4.076  -3.091  -4.702  0.00  0.00    +0.217 C 
ATOM     19  O   UNL     1       3.660  -4.447  -4.520  0.00  0.00    -0.349 OA
ENDBRANCH  12  17
BRANCH  12  13
ATOM     13  C   UNL     1       2.614  -3.827  -1.878  0.00  0.00    +0.516 C 
ATOM     16  O   UNL     1       3.657  -3.430  -1.397  0.00  0.00    -0.489 OA
BRANCH  13  14
ATOM     14  O   UNL     1       1.970  -4.872  -1.321  0.00  0.00    -0.349 OA
ATOM     15  C   UNL     1       2.570  -5.464  -0.167  0.00  0.00    +0.256 C 
ENDBRANCH  13  14
ENDBRANCH  12  13
ENDBRANCH  10  11
ENDBRANCH   9  10
TORSDOF 5
