REMARK  Name = ZINC95099511
REMARK  13 active torsions:
REMARK  status: ('A' for Active; 'I' for Inactive)
REMARK    1  A    between atoms: C1_1  and  C2_2
REMARK    2  A    between atoms: C5_5  and  C8_8
REMARK    3  A    between atoms: C11_12  and  C22_26
REMARK    4  A    between atoms: C12_13  and  O4_25
REMARK    5  A    between atoms: C13_14  and  C17_20
REMARK    6  A    between atoms: C14_15  and  O3_19
REMARK    7  A    between atoms: C17_20  and  C18_21
REMARK    8  A    between atoms: C19_22  and  C20_23
REMARK    9  A    between atoms: C19_22  and  C21_24
REMARK   10  A    between atoms: C22_26  and  C23_27
REMARK   11  A    between atoms: C23_27  and  C24_29
REMARK   12  A    between atoms: C23_27  and  O5_32
REMARK   13  A    between atoms: C24_29  and  C26_31
REMARK                            x       y       z     vdW  Elec       q    Type
REMARK                         _______ _______ _______ _____ _____    ______ ____
ROOT
ATOM      6  C   UNL     1      -0.375  -5.380  -2.243  0.00  0.00    -0.236 A 
ATOM      7  C   UNL     1       0.580  -6.237  -2.692  0.00  0.00    +0.322 A 
ATOM      8  O   UNL     1       0.631  -7.518  -2.321  0.00  0.00    -0.214 OA
ATOM      9  C   UNL     1      -0.417  -8.129  -1.734  0.00  0.00    +0.168 A 
ATOM     10  C   UNL     1      -0.470  -9.513  -1.648  0.00  0.00    -0.134 A 
ATOM     18  C   UNL     1      -1.547 -10.131  -1.033  0.00  0.00    +0.200 A 
ATOM     21  C   UNL     1      -2.585  -9.379  -0.494  0.00  0.00    -0.152 A 
ATOM     27  C   UNL     1      -2.554  -7.999  -0.570  0.00  0.00    +0.214 A 
ATOM     30  C   UNL     1      -1.472  -7.369  -1.197  0.00  0.00    -0.253 A 
ATOM     31  C   UNL     1      -1.399  -5.902  -1.317  0.00  0.00    +0.433 A 
ATOM     32  O   UNL     1      -2.142  -5.163  -0.693  0.00  0.00    -0.437 OA
ENDROOT
BRANCH   6   5
ATOM      1  C   UNL     1      -0.410   0.137  -3.891  0.00  0.00    +0.089 C 
ATOM      2  C   UNL     1      -0.401  -1.307  -3.460  0.00  0.00    -0.080 A 
ATOM      3  C   UNL     1      -0.618  -2.305  -4.392  0.00  0.00    +0.004 A 
ATOM      4  C   UNL     1      -0.610  -3.630  -4.003  0.00  0.00    +0.020 A 
ATOM      5  C   UNL     1      -0.383  -3.959  -2.668  0.00  0.00    -0.036 A 
ATOM     33  C   UNL     1      -0.165  -2.949  -1.733  0.00  0.00    +0.039 A 
ATOM     34  C   UNL     1      -0.169  -1.629  -2.135  0.00  0.00    +0.005 A 
ENDBRANCH   6   5
BRANCH  18  19
ATOM     19  O   UNL     1      -1.589 -11.485  -0.957  0.00  0.00    -0.483 OA
ATOM     20  H   UNL     1      -1.177 -11.848  -0.160  0.00  0.00    +0.399 HD
ENDBRANCH  18  19
BRANCH  27  28
ATOM     28  O   UNL     1      -3.563  -7.261  -0.043  0.00  0.00    -0.471 OA
ATOM     29  H   UNL     1      -3.428  -7.014   0.882  0.00  0.00    +0.401 HD
ENDBRANCH  27  28
BRANCH  10  11
ATOM     11  C   UNL     1       0.646 -10.346  -2.226  0.00  0.00    +0.082 C 
BRANCH  11  12
ATOM     12  C   UNL     1       1.716 -10.576  -1.157  0.00  0.00    +0.256 C 
BRANCH  12  15
ATOM     15  C   UNL     1       2.887 -11.303  -1.767  0.00  0.00    -0.164 C 
ATOM     16  C   UNL     1       2.716 -12.708  -2.283  0.00  0.00    +0.079 C 
ATOM     17  C   UNL     1       4.054 -10.713  -1.849  0.00  0.00    +0.030 C 
ENDBRANCH  12  15
BRANCH  12  13
ATOM     13  O   UNL     1       1.169 -11.361  -0.096  0.00  0.00    -0.555 OA
ATOM     14  H   UNL     1       0.851 -12.231  -0.374  0.00  0.00    +0.372 HD
ENDBRANCH  12  13
ENDBRANCH  11  12
ENDBRANCH  10  11
BRANCH  21  22
ATOM     22  C   UNL     1      -3.746 -10.069   0.175  0.00  0.00    +0.136 C 
BRANCH  22  23
ATOM     23  C   UNL     1      -3.448 -10.246   1.642  0.00  0.00    -0.061 C 
ATOM     24  C   UNL     1      -4.299  -9.814   2.539  0.00  0.00    -0.122 C 
ATOM     25  C   UNL     1      -4.069 -10.110   3.999  0.00  0.00    +0.074 C 
ATOM     26  C   UNL     1      -5.507  -9.020   2.112  0.00  0.00    +0.076 C 
ENDBRANCH  22  23
ENDBRANCH  21  22
TORSDOF 9
