REMARK  Name = ZINC13327497
REMARK  6 active torsions:
REMARK  status: ('A' for Active; 'I' for Inactive)
REMARK    1  A    between atoms: C1_1  and  O1_2
REMARK    2  A    between atoms: O1_2  and  C2_3
REMARK    3  A    between atoms: C5_6  and  C8_9
REMARK    4  A    between atoms: C8_9  and  C9_10
REMARK    5  A    between atoms: C13_16  and  O5_23
REMARK    6  A    between atoms: C15_18  and  O4_22
REMARK                            x       y       z     vdW  Elec       q    Type
REMARK                         _______ _______ _______ _____ _____    ______ ____
ROOT
ATOM      8  C   UNL     1      -2.944   0.708   1.462  0.00  0.00    -0.051 C 
ATOM      9  C   UNL     1      -4.297  -0.020   1.477  0.00  0.00    +0.272 C 
ATOM     10  O   UNL     1      -4.169  -1.268   0.797  0.00  0.00    -0.300 OA
ATOM     11  C   UNL     1      -3.181  -2.114   1.171  0.00  0.00    +0.211 A 
ATOM     12  C   UNL     1      -3.286  -3.466   0.895  0.00  0.00    -0.054 A 
ATOM     13  C   UNL     1      -2.270  -4.336   1.266  0.00  0.00    +0.196 A 
ATOM     16  C   UNL     1      -1.135  -3.866   1.916  0.00  0.00    -0.075 A 
ATOM     17  C   UNL     1      -1.010  -2.519   2.204  0.00  0.00    +0.221 A 
ATOM     20  C   UNL     1      -2.037  -1.635   1.837  0.00  0.00    -0.291 A 
ATOM     21  C   UNL     1      -1.937  -0.203   2.141  0.00  0.00    +0.406 C 
ATOM     22  O   UNL     1      -1.092   0.231   2.897  0.00  0.00    -0.422 OA
ENDROOT
BRANCH  13  14
ATOM     14  O   UNL     1      -2.385  -5.660   0.990  0.00  0.00    -0.490 OA
ATOM     15  H   UNL     1      -2.813  -6.171   1.690  0.00  0.00    +0.402 HD
ENDBRANCH  13  14
BRANCH  17  18
ATOM     18  O   UNL     1       0.096  -2.056   2.838  0.00  0.00    -0.478 OA
ATOM     19  H   UNL     1       0.024  -2.052   3.802  0.00  0.00    +0.403 HD
ENDBRANCH  17  18
BRANCH   8   7
ATOM      7  C   UNL     1      -2.513   0.977   0.019  0.00  0.00    +0.111 C 
BRANCH   7   6
ATOM      3  C   UNL     1       1.155   3.169   0.008  0.00  0.00    +0.129 A 
ATOM      4  C   UNL     1       1.175   1.782   0.000  0.00  0.00    -0.014 A 
ATOM      5  C   UNL     1      -0.013   1.076   0.008  0.00  0.00    +0.058 A 
ATOM      6  C   UNL     1      -1.220   1.750   0.017  0.00  0.00    -0.131 A 
ATOM     23  C   UNL     1      -1.242   3.133   0.031  0.00  0.00    +0.054 A 
ATOM     24  C   UNL     1      -0.057   3.844   0.023  0.00  0.00    -0.078 A 
BRANCH   3   2
ATOM      1  C   UNL     1       2.225   5.292   0.010  0.00  0.00    +0.239 C 
ATOM      2  O   UNL     1       2.322   3.866   0.001  0.00  0.00    -0.318 OA
ENDBRANCH   3   2
ENDBRANCH   7   6
ENDBRANCH   8   7
TORSDOF 5
