REMARK  Name = ZINC28456059
REMARK  2 active torsions:
REMARK  status: ('A' for Active; 'I' for Inactive)
REMARK    1  A    between atoms: C8_9  and  O4_17
REMARK    2  A    between atoms: C12_14  and  O3_16
REMARK                            x       y       z     vdW  Elec       q    Type
REMARK                         _______ _______ _______ _____ _____    ______ ____
ROOT
ATOM      1  C   UNL     1      -0.013   1.076   0.008  0.00  0.00    +0.031 A 
ATOM      2  C   UNL     1       1.173   1.779   0.000  0.00  0.00    +0.073 A 
ATOM      3  C   UNL     1       1.150   3.174   0.008  0.00  0.00    -0.188 A 
ATOM      4  C   UNL     1       2.407   3.951  -0.000  0.00  0.00    +0.443 A 
ATOM      5  C   UNL     1       2.279   5.420   0.008  0.00  0.00    -0.280 A 
ATOM      6  C   UNL     1       3.411   6.237   0.001  0.00  0.00    +0.166 A 
ATOM      7  C   UNL     1       3.269   7.595   0.009  0.00  0.00    -0.051 A 
ATOM      8  C   UNL     1       1.999   8.168   0.024  0.00  0.00    +0.232 A 
ATOM     11  C   UNL     1       0.867   7.371   0.031  0.00  0.00    -0.107 A 
ATOM     12  C   UNL     1       0.993   5.987   0.024  0.00  0.00    +0.212 A 
ATOM     13  O   UNL     1      -0.109   5.211   0.031  0.00  0.00    -0.220 OA
ATOM     14  O   UNL     1       3.495   3.405  -0.014  0.00  0.00    -0.450 OA
ATOM     15  C   UNL     1      -0.071   3.863   0.024  0.00  0.00    +0.121 A 
ATOM     16  C   UNL     1      -1.261   3.132   0.031  0.00  0.00    +0.137 A 
ATOM     19  C   UNL     1      -1.224   1.750   0.017  0.00  0.00    -0.010 A 
ENDROOT
BRANCH   8   9
ATOM      9  O   UNL     1       1.871   9.519   0.032  0.00  0.00    -0.496 OA
ATOM     10  H   UNL     1       0.870   9.976   0.044  0.00  0.00    +0.444 HD
ENDBRANCH   8   9
BRANCH  16  17
ATOM     17  O   UNL     1      -2.456   3.780   0.046  0.00  0.00    -0.498 OA
ATOM     18  H   UNL     1      -3.393   3.205   0.052  0.00  0.00    +0.440 HD
ENDBRANCH  16  17
TORSDOF 2
