REMARK  Name = ZINC95486216
REMARK  0 active torsions:
REMARK  status: ('A' for Active; 'I' for Inactive)
REMARK                            x       y       z     vdW  Elec       q    Type
REMARK                         _______ _______ _______ _____ _____    ______ ____
ROOT
ATOM      1  C   UNL     1      -0.016   1.348   0.009  0.00  0.00    -0.065 A 
ATOM      2  C   UNL     1       1.183   2.099   0.002  0.00  0.00    +0.018 A 
ATOM      3  C   UNL     1       1.136   3.502   0.011  0.00  0.00    +0.031 A 
ATOM      4  C   UNL     1       2.304   4.231  -0.006  0.00  0.00    +0.054 A 
ATOM      5  C   UNL     1       3.546   3.583  -0.028  0.00  0.00    +0.021 A 
ATOM      6  O   UNL     1       4.529   4.531  -0.042  0.00  0.00    -0.307 OA
ATOM      7  C   UNL     1       3.880   5.752  -0.445  0.00  0.00    +0.431 C 
ATOM      8  C   UNL     1       3.612   2.206  -0.031  0.00  0.00    +0.073 A 
ATOM      9  O   UNL     1       2.520   5.580  -0.006  0.00  0.00    -0.308 OA
ATOM     10  C   UNL     1       2.438   1.450  -0.017  0.00  0.00    -0.062 A 
ATOM     11  C   UNL     1       2.486  -0.016  -0.019  0.00  0.00    +0.018 A 
ATOM     12  C   UNL     1       1.272  -0.734   0.003  0.00  0.00    -0.063 A 
ATOM     13  C   UNL     1       1.283  -2.133   0.018  0.00  0.00    -0.047 A 
ATOM     14  C   UNL     1       2.475  -2.798  -0.009  0.00  0.00    +0.041 A 
ATOM     15  C   UNL     1       3.683  -2.103  -0.041  0.00  0.00    +0.049 A 
ATOM     16  O   UNL     1       4.973  -2.552  -0.072  0.00  0.00    -0.306 OA
ATOM     17  C   UNL     1       5.781  -1.428   0.322  0.00  0.00    +0.434 C 
ATOM     18  O   UNL     1       4.993  -0.289  -0.073  0.00  0.00    -0.302 OA
ATOM     19  C   UNL     1      -0.014  -2.898   0.067  0.00  0.00    +0.084 C 
ATOM     20  C   UNL     1      -1.125  -2.095  -0.615  0.00  0.00    +0.281 C 
ATOM     21  N   UNL     1      -1.183  -0.749  -0.022  0.00  0.00    -0.751 N 
ATOM     22  H   UNL     1      -2.010  -0.392   0.338  0.00  0.00    +0.410 HD
ATOM     23  C   UNL     1       3.697  -0.716  -0.044  0.00  0.00    +0.035 A 
ATOM     24  C   UNL     1       0.002  -0.004   0.002  0.00  0.00    +0.230 A 
ENDROOT
TORSDOF 0
