REMARK  Name = ZINC95485996
REMARK  15 active torsions:
REMARK  status: ('A' for Active; 'I' for Inactive)
REMARK    1  A    between atoms: C1_1  and  C2_2
REMARK    2  A    between atoms: C2_2  and  O2_4
REMARK    3  A    between atoms: O2_4  and  C3_5
REMARK    4  A    between atoms: C5_9  and  O6_34
REMARK    5  A    between atoms: C7_12  and  C21_29
REMARK    6  A    between atoms: C8_13  and  O3_15
REMARK    7  A    between atoms: O3_15  and  C9_16
REMARK    8  A    between atoms: C9_16  and  C10_17
REMARK    9  A    between atoms: C19_26  and  C20_27
REMARK   10  A    between atoms: C19_26  and  O4_28
REMARK   11  A    between atoms: C22_31  and  C23_32
REMARK   12  A    between atoms: C22_31  and  C24_33
REMARK   13  A    between atoms: O6_34  and  C25_35
REMARK   14  A    between atoms: C28_39  and  C31_44
REMARK   15  A    between atoms: N1_42  and  C30_43
REMARK                            x       y       z     vdW  Elec       q    Type
REMARK                         _______ _______ _______ _____ _____    ______ ____
ROOT
ATOM      4  C   UNL     1      -0.360  -2.707   1.045  0.00  0.00    +0.165 C 
ATOM      5  C   UNL     1      -1.346  -3.571   1.827  0.00  0.00    -0.031 C 
ATOM      6  C   UNL     1      -1.454  -4.910   1.020  0.00  0.00    +0.142 C 
ATOM     19  C   UNL     1      -2.279  -4.398  -0.178  0.00  0.00    +0.162 C 
ATOM     20  O   UNL     1      -3.188  -3.403   0.357  0.00  0.00    -0.326 OA
ATOM     21  C   UNL     1      -1.334  -3.655  -1.120  0.00  0.00    -0.051 C 
ATOM     22  C   UNL     1      -0.169  -4.517  -1.615  0.00  0.00    +0.047 C 
ATOM     23  C   UNL     1      -2.130  -3.152  -2.332  0.00  0.00    +0.056 C 
ATOM     24  C   UNL     1      -2.789  -4.332  -3.044  0.00  0.00    +0.007 C 
ATOM     25  C   UNL     1      -3.778  -5.015  -2.107  0.00  0.00    +0.001 C 
ATOM     26  C   UNL     1      -3.096  -5.493  -0.824  0.00  0.00    +0.156 C 
ATOM     29  C   UNL     1      -2.284  -6.753  -1.102  0.00  0.00    +0.027 C 
ATOM     30  C   UNL     1      -2.792  -3.058   1.690  0.00  0.00    +0.131 C 
ATOM     31  C   UNL     1      -2.916  -1.559   1.946  0.00  0.00    +0.051 C 
ATOM     32  C   UNL     1      -3.706  -3.778   2.697  0.00  0.00    +0.027 C 
ATOM     33  C   UNL     1      -0.746  -2.437  -0.394  0.00  0.00    +0.153 C 
ENDROOT
BRANCH  26  27
ATOM     27  O   UNL     1      -4.151  -5.853   0.096  0.00  0.00    -0.537 OA
ATOM     28  H   UNL     1      -4.734  -6.553  -0.229  0.00  0.00    +0.366 HD
ENDBRANCH  26  27
BRANCH   4   3
ATOM      3  O   UNL     1      -0.085  -1.482   1.731  0.00  0.00    -0.332 OA
BRANCH   3   2
ATOM      1  C   UNL     1       1.521   0.299   2.315  0.00  0.00    +0.156 C 
ATOM      2  C   UNL     1       1.158  -0.988   1.620  0.00  0.00    +0.450 C 
ATOM     42  O   UNL     1       1.985  -1.574   0.963  0.00  0.00    -0.507 OA
ENDBRANCH   3   2
ENDBRANCH   4   3
BRANCH   6   7
ATOM      7  O   UNL     1      -2.113  -5.926   1.776  0.00  0.00    -0.323 OA
BRANCH   7   8
ATOM      8  C   UNL     1      -1.299  -6.513   2.793  0.00  0.00    +0.374 C 
ATOM      9  C   UNL     1      -2.192  -7.232   3.803  0.00  0.00    +0.091 C 
ATOM     10  C   UNL     1      -1.347  -8.029   4.762  0.00  0.00    +0.044 C 
ATOM     11  C   UNL     1      -0.212  -8.616   4.323  0.00  0.00    -0.202 C 
ATOM     15  C   UNL     1       0.174  -8.456   2.905  0.00  0.00    +0.558 C 
ATOM     16  O   UNL     1       0.970  -9.222   2.396  0.00  0.00    -0.497 OA
ATOM     17  N   UNL     1      -0.365  -7.458   2.181  0.00  0.00    -0.639 N 
ATOM     18  C   UNL     1      -0.009  -7.314   0.767  0.00  0.00    +0.260 C 
BRANCH  11  12
ATOM     12  C   UNL     1       0.627  -9.403   5.243  0.00  0.00    +0.528 C 
ATOM     13  O   UNL     1       1.652  -9.931   4.836  0.00  0.00    -0.662 OA
ATOM     14  O   UNL     1       0.298  -9.529   6.415  0.00  0.00    -0.691 OA
ENDBRANCH  11  12
ENDBRANCH   7   8
ENDBRANCH   6   7
BRANCH  33  34
ATOM     34  O   UNL     1      -1.603  -1.310  -0.523  0.00  0.00    -0.330 OA
BRANCH  34  35
ATOM     35  C   UNL     1      -0.913  -0.073  -0.710  0.00  0.00    +0.201 C 
BRANCH  35  36
ATOM     36  C   UNL     1      -1.913   1.047  -0.835  0.00  0.00    -0.084 A 
ATOM     37  C   UNL     1      -2.409   1.396  -2.077  0.00  0.00    +0.024 A 
ATOM     38  C   UNL     1      -3.327   2.424  -2.191  0.00  0.00    -0.002 A 
ATOM     39  C   UNL     1      -3.749   3.102  -1.063  0.00  0.00    +0.006 A 
ATOM     40  C   UNL     1      -3.254   2.752   0.179  0.00  0.00    +0.000 A 
ATOM     41  C   UNL     1      -2.340   1.722   0.294  0.00  0.00    +0.028 A 
ENDBRANCH  35  36
ENDBRANCH  34  35
ENDBRANCH  33  34
TORSDOF 9
