REMARK  Name = ZINC14645975
REMARK  9 active torsions:
REMARK  status: ('A' for Active; 'I' for Inactive)
REMARK    1  A    between atoms: C1_1  and  O1_2
REMARK    2  A    between atoms: O1_2  and  C2_3
REMARK    3  A    between atoms: C4_5  and  O7_25
REMARK    4  A    between atoms: C9_11  and  C11_14
REMARK    5  A    between atoms: C13_16  and  O6_24
REMARK    6  A    between atoms: C14_17  and  O5_22
REMARK    7  A    between atoms: C15_18  and  O4_20
REMARK    8  A    between atoms: O4_20  and  C17_21
REMARK    9  A    between atoms: O5_22  and  C18_23
REMARK                            x       y       z     vdW  Elec       q    Type
REMARK                         _______ _______ _______ _____ _____    ______ ____
ROOT
ATOM      3  C   UNL     1       3.105   2.413  -1.205  0.00  0.00    +0.212 A 
ATOM      4  C   UNL     1       1.842   1.830  -1.200  0.00  0.00    -0.118 A 
ATOM      5  C   UNL     1       1.221   1.532  -0.001  0.00  0.00    +0.243 A 
ATOM      8  C   UNL     1       1.871   1.826   1.204  0.00  0.00    -0.289 A 
ATOM      9  C   UNL     1       3.151   2.410   1.198  0.00  0.00    +0.201 A 
ATOM     10  O   UNL     1       3.777   2.687   2.359  0.00  0.00    -0.214 OA
ATOM     11  C   UNL     1       3.247   2.429   3.558  0.00  0.00    +0.344 A 
ATOM     12  C   UNL     1       2.023   1.862   3.708  0.00  0.00    -0.246 A 
ATOM     25  C   UNL     1       1.249   1.517   2.502  0.00  0.00    +0.434 A 
ATOM     26  O   UNL     1       0.144   1.007   2.575  0.00  0.00    -0.441 OA
ATOM     27  C   UNL     1       3.756   2.702  -0.016  0.00  0.00    -0.034 A 
ENDROOT
BRANCH  12  13
ATOM     13  C   UNL     1       1.474   1.594   5.060  0.00  0.00    +0.027 A 
ATOM     14  C   UNL     1       0.186   2.014   5.386  0.00  0.00    +0.002 A 
ATOM     15  C   UNL     1      -0.325   1.763   6.648  0.00  0.00    +0.132 A 
ATOM     18  C   UNL     1       0.447   1.093   7.590  0.00  0.00    +0.040 A 
ATOM     21  C   UNL     1       1.733   0.674   7.267  0.00  0.00    +0.129 A 
ATOM     24  C   UNL     1       2.245   0.918   6.004  0.00  0.00    -0.062 A 
BRANCH  15  16
ATOM     16  O   UNL     1      -1.582   2.172   6.966  0.00  0.00    -0.481 OA
ATOM     17  H   UNL     1      -2.269   1.519   6.774  0.00  0.00    +0.392 HD
ENDBRANCH  15  16
BRANCH  18  19
ATOM     19  O   UNL     1      -0.056   0.848   8.831  0.00  0.00    -0.315 OA
ATOM     20  C   UNL     1      -0.762  -0.382   9.013  0.00  0.00    +0.220 C 
ENDBRANCH  18  19
BRANCH  21  22
ATOM     22  O   UNL     1       2.487   0.018   8.190  0.00  0.00    -0.302 OA
ATOM     23  C   UNL     1       3.798  -0.383   7.790  0.00  0.00    +0.242 C 
ENDBRANCH  21  22
ENDBRANCH  12  13
BRANCH   3   2
ATOM      1  C   UNL     1       2.983   2.382  -3.578  0.00  0.00    +0.257 C 
ATOM      2  O   UNL     1       3.705   2.703  -2.387  0.00  0.00    -0.302 OA
ENDBRANCH   3   2
BRANCH   5   6
ATOM      6  O   UNL     1      -0.011   0.963   0.007  0.00  0.00    -0.474 OA
ATOM      7  H   UNL     1       0.002  -0.004   0.002  0.00  0.00    +0.404 HD
ENDBRANCH   5   6
TORSDOF 6
