REMARK  Name = ZINC95486233
REMARK  10 active torsions:
REMARK  status: ('A' for Active; 'I' for Inactive)
REMARK    1  A    between atoms: C1_1  and  C2_2
REMARK    2  A    between atoms: C2_2  and  O2_4
REMARK    3  A    between atoms: O2_4  and  C3_5
REMARK    4  A    between atoms: C4_7  and  C26_41
REMARK    5  A    between atoms: C5_9  and  C24_39
REMARK    6  A    between atoms: C5_9  and  C25_40
REMARK    7  A    between atoms: C6_11  and  C23_37
REMARK    8  A    between atoms: C12_23  and  C19_32
REMARK    9  A    between atoms: C13_25  and  C18_31
REMARK   10  A    between atoms: C26_41  and  O9_42
REMARK                            x       y       z     vdW  Elec       q    Type
REMARK                         _______ _______ _______ _____ _____    ______ ____
ROOT
ATOM      4  C   UNL     1      -0.967  -2.010   0.042  0.00  0.00    +0.223 C 
ATOM      5  C   UNL     1      -0.920  -2.586   1.433  0.00  0.00    -0.041 C 
ATOM      9  C   UNL     1      -0.539  -4.068   1.445  0.00  0.00    +0.156 C 
ATOM     10  C   UNL     1       0.869  -4.234   0.880  0.00  0.00    +0.017 C 
ATOM     11  C   UNL     1      -0.446  -4.470   2.940  0.00  0.00    +0.066 C 
ATOM     12  O   UNL     1      -1.434  -4.911   0.876  0.00  0.00    -0.347 OA
ATOM     13  C   UNL     1      -1.885  -4.993  -0.425  0.00  0.00    +0.199 C 
ATOM     16  C   UNL     1      -2.418  -3.816  -1.142  0.00  0.00    -0.040 C 
ATOM     17  C   UNL     1      -3.917  -4.058  -1.466  0.00  0.00    +0.055 C 
ATOM     18  C   UNL     1      -4.343  -2.839  -2.297  0.00  0.00    -0.162 C 
ATOM     19  C   UNL     1      -4.488  -2.709  -3.595  0.00  0.00    +0.095 C 
ATOM     20  C   UNL     1      -4.547  -1.826  -1.196  0.00  0.00    +0.160 C 
ATOM     21  C   UNL     1      -5.248  -0.542  -1.584  0.00  0.00    +0.089 C 
ATOM     22  C   UNL     1      -5.707   0.132  -0.303  0.00  0.00    +0.499 C 
ATOM     23  O   UNL     1      -6.309  -0.599   0.659  0.00  0.00    -0.367 OA
ATOM     24  C   UNL     1      -5.628  -1.817   1.053  0.00  0.00    +0.303 C 
ATOM     30  O   UNL     1      -5.549   1.318  -0.149  0.00  0.00    -0.444 OA
ATOM     31  C   UNL     1      -5.435  -2.622  -0.210  0.00  0.00    -0.113 C 
ATOM     32  C   UNL     1      -6.798  -2.881  -0.852  0.00  0.00    +0.049 C 
ATOM     33  O   UNL     1      -3.305  -1.563  -0.553  0.00  0.00    -0.336 OA
ATOM     34  C   UNL     1      -4.703  -3.957  -0.131  0.00  0.00    +0.067 C 
ATOM     35  C   UNL     1      -2.203  -2.407  -0.765  0.00  0.00    +0.151 C 
ENDROOT
BRANCH  24  25
ATOM     25  C   UNL     1      -6.471  -2.579   2.043  0.00  0.00    -0.185 A 
ATOM     26  C   UNL     1      -6.009  -3.261   3.192  0.00  0.00    -0.051 A 
ATOM     27  C   UNL     1      -7.090  -3.799   3.786  0.00  0.00    +0.172 A 
ATOM     28  O   UNL     1      -8.175  -3.480   3.062  0.00  0.00    -0.173 OA
ATOM     29  C   UNL     1      -7.806  -2.736   2.006  0.00  0.00    +0.201 A 
ENDBRANCH  24  25
BRANCH  13  14
ATOM     14  C   UNL     1      -0.909  -5.716  -1.326  0.00  0.00    +0.401 C 
ATOM     15  O   UNL     1       0.126  -6.143  -0.875  0.00  0.00    -0.427 OA
ENDBRANCH  13  14
BRANCH   4   3
ATOM      3  O   UNL     1      -0.953  -0.574   0.156  0.00  0.00    -0.316 OA
BRANCH   3   2
ATOM      1  C   UNL     1       0.343   1.522   0.307  0.00  0.00    +0.155 C 
ATOM      2  C   UNL     1       0.249   0.023   0.189  0.00  0.00    +0.457 C 
ATOM     36  O   UNL     1       1.256  -0.642   0.124  0.00  0.00    -0.519 OA
ENDBRANCH   3   2
ENDBRANCH   4   3
BRANCH   5   6
ATOM      6  C   UNL     1      -2.243  -2.395   2.168  0.00  0.00    +0.187 C 
BRANCH   6   7
ATOM      7  O   UNL     1      -2.475  -1.000   2.376  0.00  0.00    -0.552 OA
ATOM      8  H   UNL     1      -3.301  -0.804   2.839  0.00  0.00    +0.371 HD
ENDBRANCH   6   7
ENDBRANCH   5   6
TORSDOF 6
