REMARK  Name = ZINC95485947
REMARK  14 active torsions:
REMARK  status: ('A' for Active; 'I' for Inactive)
REMARK    1  A    between atoms: C1_1  and  O1_2
REMARK    2  A    between atoms: O1_2  and  C2_3
REMARK    3  A    between atoms: C4_5  and  O11_40
REMARK    4  A    between atoms: C9_11  and  C11_14
REMARK    5  A    between atoms: C13_16  and  C19_24
REMARK    6  A    between atoms: C14_17  and  O5_22
REMARK    7  A    between atoms: C15_18  and  O4_20
REMARK    8  A    between atoms: O4_20  and  C17_21
REMARK    9  A    between atoms: O5_22  and  C18_23
REMARK   10  A    between atoms: C20_26  and  O10_39
REMARK   11  A    between atoms: C21_28  and  O9_38
REMARK   12  A    between atoms: C22_30  and  O8_37
REMARK   13  A    between atoms: C23_32  and  C24_35
REMARK   14  A    between atoms: C24_35  and  O7_36
REMARK                            x       y       z     vdW  Elec       q    Type
REMARK                         _______ _______ _______ _____ _____    ______ ____
ROOT
ATOM     13  C   UNL     1      -6.133  -4.569  -1.201  0.00  0.00    +0.002 A 
ATOM     14  C   UNL     1      -6.529  -5.245  -2.354  0.00  0.00    +0.029 A 
ATOM     15  C   UNL     1      -7.450  -6.269  -2.272  0.00  0.00    -0.054 A 
ATOM     31  C   UNL     1      -7.984  -6.629  -1.044  0.00  0.00    +0.101 A 
ATOM     34  C   UNL     1      -7.592  -5.957   0.111  0.00  0.00    +0.107 A 
ATOM     37  C   UNL     1      -6.664  -4.934   0.035  0.00  0.00    -0.024 A 
ENDROOT
BRANCH  13  12
ATOM      3  C   UNL     1      -2.705   0.864  -2.125  0.00  0.00    +0.209 A 
ATOM      4  C   UNL     1      -3.971   1.264  -1.708  0.00  0.00    -0.117 A 
ATOM      5  C   UNL     1      -4.901   0.319  -1.315  0.00  0.00    +0.241 A 
ATOM      8  C   UNL     1      -4.558  -1.038  -1.342  0.00  0.00    -0.286 A 
ATOM      9  C   UNL     1      -3.275  -1.441  -1.756  0.00  0.00    +0.197 A 
ATOM     10  O   UNL     1      -2.942  -2.747  -1.763  0.00  0.00    -0.213 OA
ATOM     11  C   UNL     1      -3.866  -3.708  -1.685  0.00  0.00    +0.328 A 
ATOM     12  C   UNL     1      -5.143  -3.468  -1.289  0.00  0.00    -0.236 A 
ATOM     38  C   UNL     1      -5.518  -2.082  -0.948  0.00  0.00    +0.432 A 
ATOM     39  O   UNL     1      -6.561  -1.817  -0.374  0.00  0.00    -0.434 OA
ATOM     40  C   UNL     1      -2.359  -0.477  -2.154  0.00  0.00    -0.034 A 
BRANCH   3   2
ATOM      1  C   UNL     1      -2.217   3.165  -2.460  0.00  0.00    +0.256 C 
ATOM      2  O   UNL     1      -1.801   1.799  -2.512  0.00  0.00    -0.303 OA
ENDBRANCH   3   2
BRANCH   5   6
ATOM      6  O   UNL     1      -6.136   0.704  -0.905  0.00  0.00    -0.474 OA
ATOM      7  H   UNL     1      -6.788   0.759  -1.618  0.00  0.00    +0.403 HD
ENDBRANCH   5   6
ENDBRANCH  13  12
BRANCH  15  16
ATOM     16  C   UNL     1      -7.878  -6.998  -3.520  0.00  0.00    +0.234 C 
ATOM     17  C   UNL     1      -6.782  -7.983  -3.936  0.00  0.00    +0.173 C 
ATOM     20  C   UNL     1      -7.197  -8.676  -5.238  0.00  0.00    +0.118 C 
ATOM     23  C   UNL     1      -7.460  -7.612  -6.308  0.00  0.00    +0.129 C 
ATOM     26  C   UNL     1      -8.529  -6.642  -5.800  0.00  0.00    +0.179 C 
ATOM     30  O   UNL     1      -8.094  -6.055  -4.572  0.00  0.00    -0.341 OA
BRANCH  17  18
ATOM     18  O   UNL     1      -6.604  -8.961  -2.910  0.00  0.00    -0.546 OA
ATOM     19  H   UNL     1      -5.968  -9.655  -3.133  0.00  0.00    +0.388 HD
ENDBRANCH  17  18
BRANCH  20  21
ATOM     21  O   UNL     1      -6.149  -9.545  -5.672  0.00  0.00    -0.558 OA
ATOM     22  H   UNL     1      -6.345 -10.018  -6.493  0.00  0.00    +0.383 HD
ENDBRANCH  20  21
BRANCH  23  24
ATOM     24  O   UNL     1      -7.917  -8.243  -7.507  0.00  0.00    -0.552 OA
ATOM     25  H   UNL     1      -7.289  -8.876  -7.882  0.00  0.00    +0.382 HD
ENDBRANCH  23  24
BRANCH  26  27
ATOM     27  C   UNL     1      -8.755  -5.541  -6.839  0.00  0.00    +0.218 C 
BRANCH  27  28
ATOM     28  O   UNL     1      -9.832  -4.703  -6.419  0.00  0.00    -0.564 OA
ATOM     29  H   UNL     1     -10.031  -3.981  -7.032  0.00  0.00    +0.383 HD
ENDBRANCH  27  28
ENDBRANCH  26  27
ENDBRANCH  15  16
BRANCH  31  32
ATOM     32  O   UNL     1      -8.892  -7.638  -0.967  0.00  0.00    -0.326 OA
ATOM     33  C   UNL     1      -8.400  -8.925  -0.588  0.00  0.00    +0.232 C 
ENDBRANCH  31  32
BRANCH  34  35
ATOM     35  O   UNL     1      -8.117  -6.311   1.315  0.00  0.00    -0.305 OA
ATOM     36  C   UNL     1      -7.670  -5.579   2.458  0.00  0.00    +0.241 C 
ENDBRANCH  34  35
TORSDOF 11
