REMARK  Name = ZINC95486360
REMARK  17 active torsions:
REMARK  status: ('A' for Active; 'I' for Inactive)
REMARK    1  A    between atoms: C1_1  and  C2_2
REMARK    2  A    between atoms: C3_4  and  O16_52
REMARK    3  A    between atoms: C4_6  and  O15_51
REMARK    4  A    between atoms: C5_8  and  O14_50
REMARK    5  A    between atoms: C6_10  and  O2_13
REMARK    6  A    between atoms: O2_13  and  C7_14
REMARK    7  A    between atoms: C9_16  and  C13_21
REMARK    8  A    between atoms: C12_19  and  O3_20
REMARK    9  A    between atoms: C14_22  and  O13_49
REMARK   10  A    between atoms: C17_26  and  O12_48
REMARK   11  A    between atoms: C19_28  and  O6_32
REMARK   12  A    between atoms: O6_32  and  C22_33
REMARK   13  A    between atoms: C24_37  and  C27_45
REMARK   14  A    between atoms: C25_39  and  O9_44
REMARK   15  A    between atoms: C26_41  and  O8_43
REMARK   16  A    between atoms: C27_45  and  O10_46
REMARK   17  A    between atoms: C27_45  and  O11_47
REMARK                            x       y       z     vdW  Elec       q    Type
REMARK                         _______ _______ _______ _____ _____    ______ ____
ROOT
ATOM     17  C   UNL     1       4.415   0.650   0.605  0.00  0.00    +0.130 A 
ATOM     18  C   UNL     1       5.774   0.690   0.692  0.00  0.00    -0.036 A 
ATOM     21  C   UNL     1       6.535   1.061  -0.446  0.00  0.00    +0.403 A 
ATOM     22  C   UNL     1       5.798   1.387  -1.677  0.00  0.00    -0.290 A 
ATOM     23  C   UNL     1       6.470   1.763  -2.848  0.00  0.00    +0.252 A 
ATOM     26  C   UNL     1       5.742   2.061  -3.985  0.00  0.00    -0.120 A 
ATOM     27  C   UNL     1       4.353   1.988  -3.964  0.00  0.00    +0.216 A 
ATOM     44  C   UNL     1       3.682   1.618  -2.809  0.00  0.00    -0.033 A 
ATOM     45  C   UNL     1       4.395   1.314  -1.659  0.00  0.00    +0.210 A 
ATOM     46  O   UNL     1       7.755   1.107  -0.406  0.00  0.00    -0.449 OA
ATOM     47  O   UNL     1       3.756   0.946  -0.529  0.00  0.00    -0.198 OA
ENDROOT
BRANCH  17  16
ATOM     14  C   UNL     1       1.802   0.648   3.302  0.00  0.00    +0.098 A 
ATOM     15  C   UNL     1       2.527   1.016   2.185  0.00  0.00    -0.001 A 
ATOM     16  C   UNL     1       3.638   0.262   1.797  0.00  0.00    -0.023 A 
ATOM     48  C   UNL     1       4.011  -0.861   2.541  0.00  0.00    +0.062 A 
ATOM     49  C   UNL     1       3.283  -1.222   3.655  0.00  0.00    +0.035 A 
ATOM     50  C   UNL     1       2.183  -0.470   4.043  0.00  0.00    +0.104 A 
BRANCH  50  51
ATOM     51  O   UNL     1       1.472  -0.827   5.144  0.00  0.00    -0.483 OA
ATOM     52  H   UNL     1       0.746  -1.440   4.962  0.00  0.00    +0.391 HD
ENDBRANCH  50  51
BRANCH  14  13
ATOM     13  O   UNL     1       0.721   1.380   3.683  0.00  0.00    -0.284 OA
BRANCH  13  12
ATOM      1  C   UNL     1       2.408   5.596   2.310  0.00  0.00    +0.078 C 
ATOM      2  C   UNL     1       1.215   4.648   2.167  0.00  0.00    +0.141 C 
ATOM      3  C   UNL     1      -0.058   5.354   2.644  0.00  0.00    +0.166 C 
ATOM      6  C   UNL     1      -1.236   4.380   2.554  0.00  0.00    +0.200 C 
ATOM      9  C   UNL     1      -0.918   3.132   3.383  0.00  0.00    +0.153 C 
ATOM     12  C   UNL     1       0.388   2.512   2.878  0.00  0.00    +0.302 C 
ATOM     53  O   UNL     1       1.436   3.480   2.959  0.00  0.00    -0.382 OA
BRANCH   3   4
ATOM      4  O   UNL     1      -0.312   6.491   1.816  0.00  0.00    -0.543 OA
ATOM      5  H   UNL     1       0.398   7.148   1.822  0.00  0.00    +0.383 HD
ENDBRANCH   3   4
BRANCH   6   7
ATOM      7  O   UNL     1      -2.415   5.007   3.064  0.00  0.00    -0.542 OA
ATOM      8  H   UNL     1      -3.202   4.446   3.037  0.00  0.00    +0.389 HD
ENDBRANCH   6   7
BRANCH   9  10
ATOM     10  O   UNL     1      -1.980   2.186   3.249  0.00  0.00    -0.551 OA
ATOM     11  H   UNL     1      -1.845   1.369   3.749  0.00  0.00    +0.396 HD
ENDBRANCH   9  10
ENDBRANCH  13  12
ENDBRANCH  14  13
ENDBRANCH  17  16
BRANCH  18  19
ATOM     19  O   UNL     1       6.396   0.377   1.861  0.00  0.00    -0.447 OA
ATOM     20  H   UNL     1       7.360   0.435   1.822  0.00  0.00    +0.408 HD
ENDBRANCH  18  19
BRANCH  23  24
ATOM     24  O   UNL     1       7.825   1.833  -2.867  0.00  0.00    -0.473 OA
ATOM     25  H   UNL     1       8.259   1.007  -3.120  0.00  0.00    +0.406 HD
ENDBRANCH  23  24
BRANCH  27  28
ATOM     28  O   UNL     1       3.647   2.283  -5.086  0.00  0.00    -0.290 OA
BRANCH  28  29
ATOM     29  C   UNL     1       4.386   2.771  -6.207  0.00  0.00    +0.118 C 
ATOM     30  C   UNL     1       4.950   1.590  -7.001  0.00  0.00    +0.225 C 
ATOM     31  O   UNL     1       5.639   2.078  -8.154  0.00  0.00    -0.351 OA
ATOM     32  C   UNL     1       4.814   2.811  -9.061  0.00  0.00    +0.138 C 
ATOM     38  C   UNL     1       4.245   4.042  -8.349  0.00  0.00    +0.185 C 
ATOM     41  C   UNL     1       3.462   3.591  -7.112  0.00  0.00    +0.202 C 
BRANCH  38  39
ATOM     39  O   UNL     1       3.374   4.746  -9.237  0.00  0.00    -0.541 OA
ATOM     40  H   UNL     1       3.797   5.035 -10.057  0.00  0.00    +0.381 HD
ENDBRANCH  38  39
BRANCH  41  42
ATOM     42  O   UNL     1       2.352   2.788  -7.516  0.00  0.00    -0.544 OA
ATOM     43  H   UNL     1       1.815   2.461  -6.782  0.00  0.00    +0.388 HD
ENDBRANCH  41  42
BRANCH  32  33
ATOM     33  C   UNL     1       5.648   3.257 -10.264  0.00  0.00    +0.389 C 
BRANCH  33  34
ATOM     34  O   UNL     1       6.073   2.109 -11.000  0.00  0.00    -0.572 OA
ATOM     35  H   UNL     1       6.616   1.493 -10.489  0.00  0.00    +0.392 HD
ENDBRANCH  33  34
BRANCH  33  36
ATOM     36  O   UNL     1       6.792   3.982  -9.808  0.00  0.00    -0.575 OA
ATOM     37  H   UNL     1       7.367   4.296 -10.518  0.00  0.00    +0.390 HD
ENDBRANCH  33  36
ENDBRANCH  32  33
ENDBRANCH  28  29
ENDBRANCH  27  28
TORSDOF 16
