REMARK  Name = ZINC13481884
REMARK  6 active torsions:
REMARK  status: ('A' for Active; 'I' for Inactive)
REMARK    1  A    between atoms: C3_3  and  O6_23
REMARK    2  A    between atoms: C4_4  and  O5_22
REMARK    3  A    between atoms: C6_6  and  C7_7
REMARK    4  A    between atoms: C7_7  and  C8_8
REMARK    5  A    between atoms: C12_14  and  O4_21
REMARK    6  A    between atoms: C14_16  and  O3_20
REMARK                            x       y       z     vdW  Elec       q    Type
REMARK                         _______ _______ _______ _____ _____    ______ ____
ROOT
ATOM     12  C   UNL     1       3.624  -2.171   0.210  0.00  0.00    -0.050 C 
ATOM     13  C   UNL     1       2.377  -2.713  -0.502  0.00  0.00    +0.275 C 
ATOM     14  O   UNL     1       1.220  -2.038  -0.010  0.00  0.00    -0.300 OA
ATOM     15  C   UNL     1       1.207  -0.684  -0.015  0.00  0.00    +0.210 A 
ATOM     16  C   UNL     1       0.002  -0.004   0.002  0.00  0.00    -0.053 A 
ATOM     17  C   UNL     1      -0.017   1.385   0.010  0.00  0.00    +0.197 A 
ATOM     20  C   UNL     1       1.169   2.110   0.002  0.00  0.00    -0.075 A 
ATOM     21  C   UNL     1       2.384   1.450  -0.016  0.00  0.00    +0.221 A 
ATOM     24  C   UNL     1       2.410   0.047  -0.029  0.00  0.00    -0.289 A 
ATOM     25  C   UNL     1       3.684  -0.678  -0.064  0.00  0.00    +0.404 C 
ATOM     26  O   UNL     1       4.733  -0.115  -0.299  0.00  0.00    -0.420 OA
ENDROOT
BRANCH  17  18
ATOM     18  O   UNL     1      -1.205   2.040   0.019  0.00  0.00    -0.492 OA
ATOM     19  H   UNL     1      -1.545   2.225   0.905  0.00  0.00    +0.403 HD
ENDBRANCH  17  18
BRANCH  21  22
ATOM     22  O   UNL     1       3.543   2.155  -0.021  0.00  0.00    -0.479 OA
ATOM     23  H   UNL     1       3.871   2.367  -0.906  0.00  0.00    +0.404 HD
ENDBRANCH  21  22
BRANCH  12  11
ATOM     11  C   UNL     1       3.514  -2.420   1.716  0.00  0.00    +0.114 C 
BRANCH  11  10
ATOM      1  C   UNL     1       4.859  -0.643   2.853  0.00  0.00    +0.028 A 
ATOM      2  C   UNL     1       6.011  -0.202   3.478  0.00  0.00    +0.012 A 
ATOM      3  C   UNL     1       7.080  -1.067   3.649  0.00  0.00    +0.082 A 
ATOM      6  C   UNL     1       6.992  -2.378   3.191  0.00  0.00    +0.082 A 
ATOM      9  C   UNL     1       5.833  -2.814   2.570  0.00  0.00    +0.011 A 
ATOM     10  C   UNL     1       4.772  -1.945   2.397  0.00  0.00    -0.085 A 
BRANCH   3   4
ATOM      4  O   UNL     1       8.214  -0.635   4.264  0.00  0.00    -0.487 OA
ATOM      5  H   UNL     1       8.214  -0.761   5.223  0.00  0.00    +0.387 HD
ENDBRANCH   3   4
BRANCH   6   7
ATOM      7  O   UNL     1       8.039  -3.230   3.357  0.00  0.00    -0.487 OA
ATOM      8  H   UNL     1       8.013  -3.727   4.186  0.00  0.00    +0.387 HD
ENDBRANCH   6   7
ENDBRANCH  11  10
ENDBRANCH  12  11
TORSDOF 6
