REMARK  Name = ZINC95486026
REMARK  3 active torsions:
REMARK  status: ('A' for Active; 'I' for Inactive)
REMARK    1  A    between atoms: C1_1  and  C2_2
REMARK    2  A    between atoms: C2_2  and  C4_4
REMARK    3  A    between atoms: C5_5  and  C6_6
REMARK                            x       y       z     vdW  Elec       q    Type
REMARK                         _______ _______ _______ _____ _____    ______ ____
ROOT
ATOM      5  C   UNL     1      -0.023  -0.779  -3.712  0.00  0.00    -0.038 A 
ATOM      6  C   UNL     1      -0.009  -2.183  -3.716  0.00  0.00    -0.012 A 
ATOM      7  C   UNL     1      -0.011  -2.868  -4.893  0.00  0.00    +0.054 A 
ATOM      8  C   UNL     1      -0.026  -2.173  -6.107  0.00  0.00    -0.108 A 
ATOM      9  C   UNL     1      -0.031  -2.586  -7.511  0.00  0.00    -0.059 A 
ATOM     10  C   UNL     1      -0.047  -1.465  -8.252  0.00  0.00    +0.224 A 
ATOM     11  N   UNL     1      -0.052  -0.367  -7.436  0.00  0.00    -0.597 N 
ATOM     12  H   UNL     1      -0.063   0.554  -7.741  0.00  0.00    +0.416 HD
ATOM     13  C   UNL     1      -0.040  -0.764  -6.117  0.00  0.00    +0.094 A 
ATOM     14  C   UNL     1      -0.044  -0.073  -4.914  0.00  0.00    +0.004 A 
ENDROOT
BRANCH   5   4
ATOM      3  C   UNL     1      -0.000  -0.730  -1.271  0.00  0.00    +0.007 C 
ATOM      4  C   UNL     1      -0.020  -0.050  -2.434  0.00  0.00    +0.015 C 
BRANCH   3   2
ATOM      1  C   UNL     1      -0.018   1.503   0.010  0.00  0.00    +0.077 C 
ATOM      2  C   UNL     1       0.002  -0.004   0.002  0.00  0.00    -0.103 C 
ATOM     15  C   UNL     1       0.022  -0.676   1.152  0.00  0.00    +0.025 C 
ENDBRANCH   3   2
ENDBRANCH   5   4
TORSDOF 2
