REMARK  Name = ZINC95486167
REMARK  6 active torsions:
REMARK  status: ('A' for Active; 'I' for Inactive)
REMARK    1  A    between atoms: C1_1  and  C2_2
REMARK    2  A    between atoms: C7_8  and  O4_16
REMARK    3  A    between atoms: C9_10  and  O3_14
REMARK    4  A    between atoms: C10_11  and  O2_12
REMARK    5  A    between atoms: O2_12  and  C11_13
REMARK    6  A    between atoms: O3_14  and  C12_15
REMARK                            x       y       z     vdW  Elec       q    Type
REMARK                         _______ _______ _______ _____ _____    ______ ____
ROOT
ATOM      1  C   UNL     1      -0.018   1.503   0.010  0.00  0.00    +0.075 C 
ATOM      2  C   UNL     1       0.002  -0.004   0.002  0.00  0.00    -0.443 C 
ATOM      3  C   UNL     1       0.006  -0.668  -1.174  0.00  0.00    +0.247 C 
ATOM      4  O   UNL     1      -0.009   0.022  -2.339  0.00  0.00    -0.645 OA
ATOM      5  C   UNL     1       0.025  -2.150  -1.194  0.00  0.00    +0.392 C 
ATOM      6  C   UNL     1      -0.263  -2.887   0.049  0.00  0.00    -0.095 A 
ATOM      7  C   UNL     1      -0.267  -2.185   1.275  0.00  0.00    -0.146 A 
ATOM      8  C   UNL     1      -0.538  -2.864   2.463  0.00  0.00    +0.175 A 
ATOM     11  C   UNL     1      -0.804  -4.233   2.434  0.00  0.00    -0.077 A 
ATOM     12  C   UNL     1      -0.802  -4.923   1.239  0.00  0.00    +0.125 A 
ATOM     15  C   UNL     1      -0.531  -4.253   0.033  0.00  0.00    +0.101 A 
ATOM     18  O   UNL     1       0.276  -2.750  -2.222  0.00  0.00    -0.415 OA
ATOM     19  C   UNL     1       0.024  -0.740   1.272  0.00  0.00    +0.430 C 
ATOM     20  O   UNL     1       0.276  -0.161   2.313  0.00  0.00    -0.498 OA
ENDROOT
BRANCH   8   9
ATOM      9  O   UNL     1      -0.541  -2.195   3.642  0.00  0.00    -0.472 OA
ATOM     10  H   UNL     1      -1.404  -1.831   3.885  0.00  0.00    +0.392 HD
ENDBRANCH   8   9
BRANCH  12  13
ATOM     13  O   UNL     1      -1.063  -6.255   1.228  0.00  0.00    -0.302 OA
ATOM     14  C   UNL     1      -1.330  -6.874   2.488  0.00  0.00    +0.238 C 
ENDBRANCH  12  13
BRANCH  15  16
ATOM     16  O   UNL     1      -0.529  -4.934  -1.139  0.00  0.00    -0.311 OA
ATOM     17  C   UNL     1       0.713  -5.505  -1.556  0.00  0.00    +0.229 C 
ENDBRANCH  15  16
TORSDOF 3
