REMARK  Name = ZINC95486056
REMARK  7 active torsions:
REMARK  status: ('A' for Active; 'I' for Inactive)
REMARK    1  A    between atoms: C4_4  and  C7_7
REMARK    2  A    between atoms: C8_8  and  C9_9
REMARK    3  A    between atoms: C9_9  and  C10_11
REMARK    4  A    between atoms: C11_12  and  O6_23
REMARK    5  A    between atoms: C12_13  and  C17_21
REMARK    6  A    between atoms: C13_14  and  O4_20
REMARK    7  A    between atoms: C14_15  and  C16_18
REMARK                            x       y       z     vdW  Elec       q    Type
REMARK                         _______ _______ _______ _____ _____    ______ ____
ROOT
ATOM      8  C   UNL     1       4.907  -4.209  -0.067  0.00  0.00    -0.334 A 
ATOM      9  C   UNL     1       6.078  -4.980  -0.024  0.00  0.00    +0.257 A 
ATOM     12  C   UNL     1       5.997  -6.383  -0.028  0.00  0.00    -0.384 A 
ATOM     15  C   UNL     1       4.742  -7.013  -0.077  0.00  0.00    +0.285 A 
ATOM     18  C   UNL     1       3.570  -6.240  -0.120  0.00  0.00    -0.373 A 
ATOM     21  C   UNL     1       3.654  -4.836  -0.110  0.00  0.00    +0.369 A 
ATOM     22  O   UNL     1       2.527  -4.091  -0.146  0.00  0.00    -0.622 OA
ENDROOT
BRANCH   8   7
ATOM      7  C   UNL     1       4.994  -2.739  -0.063  0.00  0.00    +0.478 C 
ATOM     23  O   UNL     1       5.081  -2.138   0.993  0.00  0.00    -0.473 OA
BRANCH   7   6
ATOM      5  C   UNL     1       4.948  -0.652  -1.320  0.00  0.00    +0.075 C 
ATOM      6  C   UNL     1       4.975  -2.001  -1.327  0.00  0.00    -0.054 C 
BRANCH   5   4
ATOM      1  C   UNL     1       4.895   1.487  -4.983  0.00  0.00    +0.001 A 
ATOM      2  C   UNL     1       4.885   2.177  -3.783  0.00  0.00    -0.002 A 
ATOM      3  C   UNL     1       4.902   1.489  -2.588  0.00  0.00    +0.023 A 
ATOM      4  C   UNL     1       4.930   0.090  -2.591  0.00  0.00    -0.060 A 
ATOM     24  C   UNL     1       4.939  -0.599  -3.808  0.00  0.00    +0.026 A 
ATOM     25  C   UNL     1       4.923   0.103  -4.994  0.00  0.00    +0.003 A 
ENDBRANCH   5   4
ENDBRANCH   7   6
ENDBRANCH   8   7
BRANCH   9  10
ATOM     10  O   UNL     1       7.285  -4.373   0.023  0.00  0.00    -0.500 OA
ATOM     11  H   UNL     1       7.602  -4.197   0.919  0.00  0.00    +0.394 HD
ENDBRANCH   9  10
BRANCH  12  13
ATOM     13  C   UNL     1       7.218  -7.186   0.016  0.00  0.00    +0.476 C 
ATOM     14  O   UNL     1       7.147  -8.398   0.012  0.00  0.00    -0.491 OA
ENDBRANCH  12  13
BRANCH  15  16
ATOM     16  O   UNL     1       4.662  -8.362  -0.082  0.00  0.00    -0.485 OA
ATOM     17  H   UNL     1       4.606  -8.756   0.800  0.00  0.00    +0.394 HD
ENDBRANCH  15  16
BRANCH  18  19
ATOM     19  C   UNL     1       2.263  -6.894  -0.171  0.00  0.00    +0.458 C 
ATOM     20  O   UNL     1       1.251  -6.225  -0.208  0.00  0.00    -0.460 OA
ENDBRANCH  18  19
TORSDOF 7
