REMARK  Name = ZINC95486139
REMARK  8 active torsions:
REMARK  status: ('A' for Active; 'I' for Inactive)
REMARK    1  A    between atoms: C1_1  and  C2_2
REMARK    2  A    between atoms: C2_2  and  C4_4
REMARK    3  A    between atoms: C7_8  and  C30_36
REMARK    4  A    between atoms: C13_17  and  C29_35
REMARK    5  A    between atoms: C17_22  and  C27_33
REMARK    6  A    between atoms: C17_22  and  C28_34
REMARK    7  A    between atoms: C21_27  and  C26_32
REMARK    8  A    between atoms: C22_28  and  C25_31
REMARK                            x       y       z     vdW  Elec       q    Type
REMARK                         _______ _______ _______ _____ _____    ______ ____
ROOT
ATOM      3  C   UNL     1      -0.116  -0.362  -2.006  0.00  0.00    +0.033 C 
ATOM      4  C   UNL     1      -1.236  -0.121  -3.043  0.00  0.00    +0.010 C 
ATOM      5  C   UNL     1      -0.591  -0.345  -4.417  0.00  0.00    +0.004 C 
ATOM      6  C   UNL     1       0.942  -0.159  -4.240  0.00  0.00    -0.044 C 
ATOM      7  C   UNL     1       1.401   1.095  -5.018  0.00  0.00    +0.024 C 
ATOM      8  C   UNL     1       1.578  -1.408  -4.841  0.00  0.00    +0.005 C 
ATOM      9  C   UNL     1       2.936  -1.761  -4.253  0.00  0.00    +0.015 C 
ATOM     10  C   UNL     1       2.803  -1.929  -2.737  0.00  0.00    -0.029 C 
ATOM     11  C   UNL     1       1.709  -2.964  -2.451  0.00  0.00    +0.020 C 
ATOM     12  C   UNL     1       4.113  -2.453  -2.131  0.00  0.00    -0.029 C 
ATOM     13  C   UNL     1       4.340  -3.825  -2.784  0.00  0.00    +0.018 C 
ATOM     14  C   UNL     1       3.960  -2.660  -0.621  0.00  0.00    +0.019 C 
ATOM     15  C   UNL     1       5.237  -3.286  -0.068  0.00  0.00    +0.010 C 
ATOM     16  C   UNL     1       6.454  -2.408  -0.285  0.00  0.00    +0.013 C 
ATOM     17  C   UNL     1       6.686  -1.378   0.802  0.00  0.00    -0.095 C 
ATOM     18  C   UNL     1       5.678  -1.487   1.953  0.00  0.00    +0.048 C 
ATOM     19  C   UNL     1       8.092  -1.599   1.401  0.00  0.00    +0.047 C 
ATOM     20  C   UNL     1       6.622   0.032   0.267  0.00  0.00    +0.380 C 
ATOM     21  O   UNL     1       5.929   0.861   0.820  0.00  0.00    -0.460 OA
ATOM     22  C   UNL     1       7.432   0.403  -0.946  0.00  0.00    +0.017 C 
ATOM     23  C   UNL     1       7.647  -0.810  -1.830  0.00  0.00    +0.032 C 
ATOM     24  C   UNL     1       6.577  -1.901  -1.710  0.00  0.00    -0.038 C 
ATOM     25  C   UNL     1       7.208  -3.060  -2.538  0.00  0.00    +0.016 C 
ATOM     26  C   UNL     1       5.267  -1.490  -2.365  0.00  0.00    +0.019 C 
ATOM     27  C   UNL     1       4.878  -0.101  -1.843  0.00  0.00    +0.001 C 
ATOM     28  C   UNL     1       3.580   0.405  -2.457  0.00  0.00    +0.002 C 
ATOM     29  C   UNL     1       2.431  -0.571  -2.164  0.00  0.00    +0.013 C 
ATOM     30  C   UNL     1       1.169   0.019  -2.745  0.00  0.00    +0.001 C 
ENDROOT
BRANCH   3   2
ATOM      1  C   UNL     1      -0.373   2.038  -0.997  0.00  0.00    +0.070 C 
ATOM      2  C   UNL     1      -0.327   0.543  -0.811  0.00  0.00    -0.113 C 
ATOM     31  C   UNL     1      -0.468   0.027   0.385  0.00  0.00    -0.010 C 
ENDBRANCH   3   2
TORSDOF 1
