REMARK  Name = ZINC03830747
REMARK  12 active torsions:
REMARK  status: ('A' for Active; 'I' for Inactive)
REMARK    1  A    between atoms: C1_1  and  C2_2
REMARK    2  A    between atoms: C2_2  and  C3_3
REMARK    3  A    between atoms: C9_11  and  O4_38
REMARK    4  A    between atoms: C10_12  and  O3_36
REMARK    5  A    between atoms: C15_18  and  C16_20
REMARK    6  A    between atoms: C16_20  and  C17_21
REMARK    7  A    between atoms: C20_25  and  O2_34
REMARK    8  A    between atoms: C21_26  and  O1_32
REMARK    9  A    between atoms: O1_32  and  C26_33
REMARK   10  A    between atoms: O2_34  and  C27_35
REMARK   11  A    between atoms: O3_36  and  C28_37
REMARK   12  A    between atoms: O4_38  and  C29_39
REMARK                            x       y       z     vdW  Elec       q    Type
REMARK                         _______ _______ _______ _____ _____    ______ ____
ROOT
ATOM      3  C   UNL     1       0.718  -0.498  -1.257  0.00  0.00    +0.003 C 
ATOM      4  C   UNL     1       2.188  -0.073  -1.207  0.00  0.00    +0.268 C 
ATOM      5  N   UNL     1       2.875  -0.554  -2.412  0.00  0.00    -0.380 N 
ATOM      6  H   UNL     1       2.401  -0.202  -3.230  0.00  0.00    +0.425 HD
ATOM      7  C   UNL     1       4.265  -0.081  -2.420  0.00  0.00    +0.273 C 
ATOM      8  C   UNL     1       4.854  -0.322  -3.811  0.00  0.00    +0.128 C 
ATOM      9  C   UNL     1       4.609  -1.749  -4.233  0.00  0.00    -0.075 A 
ATOM     10  C   UNL     1       5.346  -2.264  -5.288  0.00  0.00    -0.016 A 
ATOM     11  C   UNL     1       5.149  -3.568  -5.708  0.00  0.00    +0.141 A 
ATOM     14  C   UNL     1       4.204  -4.363  -5.066  0.00  0.00    +0.118 A 
ATOM     17  C   UNL     1       3.472  -3.844  -4.013  0.00  0.00    -0.019 A 
ATOM     18  C   UNL     1       3.675  -2.538  -3.594  0.00  0.00    -0.139 A 
ATOM     19  C   UNL     1       2.864  -2.019  -2.438  0.00  0.00    +0.234 C 
ATOM     20  C   UNL     1       1.422  -2.519  -2.544  0.00  0.00    +0.067 C 
ATOM     21  C   UNL     1       0.631  -2.024  -1.329  0.00  0.00    -0.024 C 
ENDROOT
BRANCH   3   2
ATOM      1  C   UNL     1      -0.019   1.526   0.010  0.00  0.00    +0.028 C 
ATOM      2  C   UNL     1       0.002  -0.004   0.002  0.00  0.00    +0.039 C 
ENDBRANCH   3   2
BRANCH  11  12
ATOM     12  O   UNL     1       5.874  -4.069  -6.743  0.00  0.00    -0.293 OA
ATOM     13  C   UNL     1       6.825  -3.194  -7.353  0.00  0.00    +0.260 C 
ENDBRANCH  11  12
BRANCH  14  15
ATOM     15  O   UNL     1       4.001  -5.645  -5.472  0.00  0.00    -0.292 OA
ATOM     16  C   UNL     1       3.016  -6.401  -4.766  0.00  0.00    +0.246 C 
ENDBRANCH  14  15
BRANCH  21  22
ATOM     22  C   UNL     1      -0.833  -2.446  -1.465  0.00  0.00    +0.085 C 
BRANCH  22  23
ATOM     23  C   UNL     1      -0.931  -3.972  -1.412  0.00  0.00    +0.233 C 
ATOM     24  C   UNL     1      -2.353  -4.388  -1.682  0.00  0.00    -0.140 A 
ATOM     25  C   UNL     1      -3.059  -3.725  -2.676  0.00  0.00    -0.014 A 
ATOM     26  C   UNL     1      -4.366  -4.077  -2.961  0.00  0.00    +0.119 A 
ATOM     29  C   UNL     1      -4.976  -5.102  -2.244  0.00  0.00    +0.142 A 
ATOM     32  C   UNL     1      -4.270  -5.760  -1.253  0.00  0.00    -0.018 A 
ATOM     33  C   UNL     1      -2.960  -5.403  -0.972  0.00  0.00    -0.077 A 
ATOM     34  C   UNL     1      -2.230  -6.141   0.121  0.00  0.00    +0.128 C 
ATOM     35  C   UNL     1      -0.726  -5.888   0.003  0.00  0.00    +0.277 C 
ATOM     36  N   UNL     1      -0.501  -4.438  -0.090  0.00  0.00    -0.506 N 
ATOM     37  H   UNL     1      -1.035  -3.966   0.624  0.00  0.00    +0.432 HD
ATOM     38  H   UNL     1       0.480  -4.241   0.034  0.00  0.00    +0.425 HD
BRANCH  26  27
ATOM     27  O   UNL     1      -5.052  -3.423  -3.936  0.00  0.00    -0.292 OA
ATOM     28  C   UNL     1      -4.361  -2.382  -4.629  0.00  0.00    +0.249 C 
ENDBRANCH  26  27
BRANCH  29  30
ATOM     30  O   UNL     1      -6.261  -5.456  -2.517  0.00  0.00    -0.293 OA
ATOM     31  C   UNL     1      -6.820  -6.518  -1.741  0.00  0.00    +0.260 C 
ENDBRANCH  29  30
ENDBRANCH  22  23
ENDBRANCH  21  22
TORSDOF 7
