REMARK  Name = ZINC95486286
REMARK  10 active torsions:
REMARK  status: ('A' for Active; 'I' for Inactive)
REMARK    1  A    between atoms: C1_1  and  C2_2
REMARK    2  A    between atoms: C3_3  and  O8_26
REMARK    3  A    between atoms: C4_4  and  C18_25
REMARK    4  A    between atoms: C7_7  and  O1_8
REMARK    5  A    between atoms: C9_11  and  O7_23
REMARK    6  A    between atoms: C10_12  and  O4_14
REMARK    7  A    between atoms: O4_14  and  C11_15
REMARK    8  A    between atoms: C14_18  and  O6_22
REMARK    9  A    between atoms: C15_19  and  O5_21
REMARK   10  A    between atoms: O7_23  and  C17_24
REMARK                            x       y       z     vdW  Elec       q    Type
REMARK                         _______ _______ _______ _____ _____    ______ ____
ROOT
ATOM      1  C   UNL     1      -0.282   1.498   0.034  0.00  0.00    +0.121 C 
ATOM      2  C   UNL     1      -0.214  -0.008   0.021  0.00  0.00    -0.161 A 
ATOM      3  C   UNL     1      -0.211  -0.692  -1.190  0.00  0.00    +0.187 A 
ATOM      6  C   UNL     1      -0.149  -2.076  -1.219  0.00  0.00    -0.136 A 
ATOM      7  C   UNL     1      -0.149  -2.802  -2.540  0.00  0.00    +0.122 C 
ATOM      8  C   UNL     1      -0.089  -2.793  -0.034  0.00  0.00    +0.182 A 
ATOM      9  C   UNL     1      -0.091  -2.104   1.191  0.00  0.00    -0.247 A 
ATOM     10  C   UNL     1      -0.026  -2.887   2.437  0.00  0.00    +0.442 A 
ATOM     11  C   UNL     1       0.035  -4.295   2.318  0.00  0.00    -0.077 A 
ATOM     14  C   UNL     1       0.031  -4.864   1.083  0.00  0.00    +0.225 A 
ATOM     26  O   UNL     1      -0.025  -2.342   3.529  0.00  0.00    -0.427 OA
ATOM     27  O   UNL     1      -0.029  -4.141  -0.044  0.00  0.00    -0.229 OA
ATOM     28  C   UNL     1      -0.148  -0.705   1.213  0.00  0.00    +0.213 A 
ENDROOT
BRANCH   3   4
ATOM      4  O   UNL     1      -0.270   0.003  -2.355  0.00  0.00    -0.480 OA
ATOM      5  H   UNL     1       0.595   0.245  -2.713  0.00  0.00    +0.402 HD
ENDBRANCH   3   4
BRANCH  11  12
ATOM     12  O   UNL     1       0.097  -5.076   3.433  0.00  0.00    -0.285 OA
ATOM     13  C   UNL     1       0.156  -6.489   3.233  0.00  0.00    +0.258 C 
ENDBRANCH  11  12
BRANCH  28  29
ATOM     29  O   UNL     1      -0.144  -0.039   2.396  0.00  0.00    -0.468 OA
ATOM     30  H   UNL     1      -1.025   0.114   2.764  0.00  0.00    +0.402 HD
ENDBRANCH  28  29
BRANCH  14  15
ATOM     15  O   UNL     1       0.089  -6.211   0.989  0.00  0.00    -0.206 OA
BRANCH  15  16
ATOM     16  C   UNL     1      -0.014  -6.770  -0.246  0.00  0.00    +0.060 A 
ATOM     17  C   UNL     1       1.074  -6.754  -1.107  0.00  0.00    +0.036 A 
ATOM     18  C   UNL     1       0.971  -7.321  -2.363  0.00  0.00    +0.029 A 
ATOM     19  C   UNL     1      -0.219  -7.906  -2.766  0.00  0.00    +0.098 A 
ATOM     22  C   UNL     1      -1.311  -7.923  -1.904  0.00  0.00    +0.096 A 
ATOM     25  C   UNL     1      -1.205  -7.360  -0.643  0.00  0.00    +0.023 A 
BRANCH  19  20
ATOM     20  O   UNL     1      -0.319  -8.463  -4.003  0.00  0.00    -0.484 OA
ATOM     21  H   UNL     1      -0.077  -9.399  -4.034  0.00  0.00    +0.394 HD
ENDBRANCH  19  20
BRANCH  22  23
ATOM     23  O   UNL     1      -2.479  -8.497  -2.297  0.00  0.00    -0.481 OA
ATOM     24  H   UNL     1      -2.547  -9.438  -2.084  0.00  0.00    +0.393 HD
ENDBRANCH  22  23
ENDBRANCH  15  16
ENDBRANCH  14  15
TORSDOF 7
