REMARK  Name = ZINC95486320
REMARK  5 active torsions:
REMARK  status: ('A' for Active; 'I' for Inactive)
REMARK    1  A    between atoms: C1_1  and  C2_2
REMARK    2  A    between atoms: C10_11  and  C11_14
REMARK    3  A    between atoms: C16_21  and  O4_29
REMARK    4  A    between atoms: C22_27  and  O3_28
REMARK    5  A    between atoms: O4_29  and  C23_30
REMARK                            x       y       z     vdW  Elec       q    Type
REMARK                         _______ _______ _______ _____ _____    ______ ____
ROOT
ATOM      1  C   UNL     1      -0.019   1.526   0.010  0.00  0.00    +0.096 C 
ATOM      2  C   UNL     1       0.002  -0.004   0.002  0.00  0.00    +0.167 C 
ATOM      3  C   UNL     1      -1.431  -0.537   0.022  0.00  0.00    +0.140 C 
ATOM      4  C   UNL     1      -1.417  -2.027   0.245  0.00  0.00    -0.070 A 
ATOM      5  C   UNL     1      -2.561  -2.758  -0.039  0.00  0.00    +0.041 A 
ATOM      6  C   UNL     1      -2.590  -4.119   0.142  0.00  0.00    +0.075 A 
ATOM      7  C   UNL     1      -1.462  -4.802   0.628  0.00  0.00    -0.051 A 
ATOM      8  C   UNL     1      -0.324  -4.048   0.927  0.00  0.00    +0.147 A 
ATOM      9  O   UNL     1       0.757  -4.666   1.448  0.00  0.00    -0.313 OA
ATOM     10  C   UNL     1       0.582  -5.323   2.588  0.00  0.00    +0.547 C 
ATOM     11  C   UNL     1       0.011  -6.648   2.700  0.00  0.00    -0.238 A 
ATOM     12  C   UNL     1       0.419  -7.497   3.724  0.00  0.00    +0.196 A 
ATOM     13  C   UNL     1      -0.096  -8.773   3.840  0.00  0.00    -0.110 A 
ATOM     14  C   UNL     1      -1.005  -9.246   2.918  0.00  0.00    +0.225 A 
ATOM     17  C   UNL     1      -1.427  -8.443   1.840  0.00  0.00    -0.126 A 
ATOM     18  C   UNL     1      -2.240  -9.007   0.835  0.00  0.00    +0.191 A 
ATOM     21  C   UNL     1      -2.686  -8.214  -0.199  0.00  0.00    -0.021 A 
ATOM     22  C   UNL     1      -2.377  -6.869  -0.227  0.00  0.00    +0.102 A 
ATOM     23  C   UNL     1      -1.012  -7.087   1.745  0.00  0.00    +0.070 A 
ATOM     24  O   UNL     1       0.927  -4.770   3.615  0.00  0.00    -0.452 OA
ATOM     25  C   UNL     1      -1.584  -6.270   0.760  0.00  0.00    -0.095 A 
ATOM     26  C   UNL     1      -0.298  -2.674   0.727  0.00  0.00    -0.128 A 
ATOM     27  C   UNL     1       0.971  -1.927   1.042  0.00  0.00    +0.235 C 
ATOM     28  C   UNL     1       1.971  -2.128  -0.099  0.00  0.00    +0.104 C 
ATOM     29  N   UNL     1       0.705  -0.495   1.197  0.00  0.00    -0.501 N 
ATOM     30  H   UNL     1       0.129  -0.348   2.012  0.00  0.00    +0.429 HD
ATOM     31  H   UNL     1       1.577   0.003   1.304  0.00  0.00    +0.433 HD
ENDROOT
BRANCH  14  15
ATOM     15  O   UNL     1      -1.500 -10.501   3.051  0.00  0.00    -0.287 OA
ATOM     16  C   UNL     1      -1.036 -11.267   4.164  0.00  0.00    +0.263 C 
ENDBRANCH  14  15
BRANCH  18  19
ATOM     19  O   UNL     1      -2.578 -10.320   0.885  0.00  0.00    -0.475 OA
ATOM     20  H   UNL     1      -3.397 -10.498   1.368  0.00  0.00    +0.404 HD
ENDBRANCH  18  19
TORSDOF 2
