REMARK  Name = ZINC00039811
REMARK  3 active torsions:
REMARK  status: ('A' for Active; 'I' for Inactive)
REMARK    1  A    between atoms: C3_3  and  O2_11
REMARK    2  A    between atoms: C6_6  and  C7_7
REMARK    3  A    between atoms: C8_8  and  C9_9
REMARK                            x       y       z     vdW  Elec       q    Type
REMARK                         _______ _______ _______ _____ _____    ______ ____
ROOT
ATOM      1  C   UNL     1      -0.013   1.076   0.008  0.00  0.00    +0.029 A 
ATOM      2  C   UNL     1      -1.213   1.749   0.017  0.00  0.00    -0.018 A 
ATOM      3  C   UNL     1      -1.233   3.139   0.030  0.00  0.00    +0.085 A 
ATOM      6  C   UNL     1      -0.043   3.857   0.022  0.00  0.00    -0.014 A 
ATOM      7  C   UNL     1       1.163   3.193   0.008  0.00  0.00    +0.029 A 
ATOM      8  C   UNL     1       1.189   1.793   0.000  0.00  0.00    -0.043 A 
ENDROOT
BRANCH   3   4
ATOM      4  O   UNL     1      -2.420   3.798   0.044  0.00  0.00    -0.501 OA
ATOM      5  H   UNL     1      -2.772   3.994  -0.835  0.00  0.00    +0.385 HD
ENDBRANCH   3   4
BRANCH   8   9
ATOM      9  C   UNL     1       2.474   1.080  -0.016  0.00  0.00    +0.013 C 
ATOM     10  C   UNL     1       3.633   1.775  -0.023  0.00  0.00    -0.033 C 
BRANCH  10  11
ATOM     11  C   UNL     1       4.872   1.086  -0.039  0.00  0.00    +0.469 C 
ATOM     12  O   UNL     1       6.029   1.780  -0.046  0.00  0.00    -0.764 OA
ATOM     13  O   UNL     1       4.892  -0.130  -0.045  0.00  0.00    -0.637 OA
ENDBRANCH  10  11
ENDBRANCH   8   9
TORSDOF 3
