REMARK  Name = ZINC95485974
REMARK  17 active torsions:
REMARK  status: ('A' for Active; 'I' for Inactive)
REMARK    1  A    between atoms: C1_1  and  C2_2
REMARK    2  A    between atoms: C2_2  and  C27_34
REMARK    3  A    between atoms: C3_3  and  C4_4
REMARK    4  A    between atoms: C4_4  and  C5_5
REMARK    5  A    between atoms: C5_5  and  C6_6
REMARK    6  A    between atoms: C7_7  and  O7_33
REMARK    7  A    between atoms: C8_8  and  C21_27
REMARK    8  A    between atoms: C11_11  and  O1_12
REMARK    9  A    between atoms: C15_17  and  O6_25
REMARK   10  A    between atoms: C16_18  and  O5_23
REMARK   11  A    between atoms: C17_19  and  O4_22
REMARK   12  A    between atoms: O5_23  and  C19_24
REMARK   13  A    between atoms: O6_25  and  C20_26
REMARK   14  A    between atoms: C21_27  and  C22_28
REMARK   15  A    between atoms: C22_28  and  C23_29
REMARK   16  A    between atoms: C24_30  and  C25_31
REMARK   17  A    between atoms: C24_30  and  C26_32
REMARK                            x       y       z     vdW  Elec       q    Type
REMARK                         _______ _______ _______ _____ _____    ______ ____
ROOT
ATOM      7  C   UNL     1      -0.205   2.105   4.513  0.00  0.00    -0.165 A 
ATOM      8  C   UNL     1       0.440   1.346   5.484  0.00  0.00    +0.195 A 
ATOM     11  C   UNL     1       0.462   1.758   6.807  0.00  0.00    -0.140 A 
ATOM     18  C   UNL     1      -0.161   2.941   7.181  0.00  0.00    +0.189 A 
ATOM     19  C   UNL     1      -0.804   3.713   6.197  0.00  0.00    -0.264 A 
ATOM     20  C   UNL     1      -1.441   4.979   6.603  0.00  0.00    +0.445 A 
ATOM     21  C   UNL     1      -1.103   5.468   7.956  0.00  0.00    -0.175 A 
ATOM     22  C   UNL     1      -1.425   6.768   8.350  0.00  0.00    +0.037 A 
ATOM     23  C   UNL     1      -1.093   7.199   9.618  0.00  0.00    +0.102 A 
ATOM     26  C   UNL     1      -0.438   6.338  10.499  0.00  0.00    +0.104 A 
ATOM     29  C   UNL     1      -0.117   5.045  10.114  0.00  0.00    +0.106 A 
ATOM     32  C   UNL     1      -0.448   4.594   8.838  0.00  0.00    +0.110 A 
ATOM     33  O   UNL     1      -2.200   5.585   5.868  0.00  0.00    -0.430 OA
ATOM     34  O   UNL     1      -0.146   3.331   8.471  0.00  0.00    -0.208 OA
ATOM     35  C   UNL     1      -0.826   3.290   4.862  0.00  0.00    +0.216 A 
ENDROOT
BRANCH   8   9
ATOM      9  O   UNL     1       1.055   0.188   5.132  0.00  0.00    -0.479 OA
ATOM     10  H   UNL     1       1.982   0.296   4.879  0.00  0.00    +0.398 HD
ENDBRANCH   8   9
BRANCH  23  24
ATOM     24  O   UNL     1      -1.403   8.465  10.009  0.00  0.00    -0.298 OA
ATOM     25  C   UNL     1      -2.073   9.293   9.055  0.00  0.00    +0.249 C 
ENDBRANCH  23  24
BRANCH  26  27
ATOM     27  O   UNL     1      -0.112   6.770  11.746  0.00  0.00    -0.309 OA
ATOM     28  C   UNL     1      -1.081   6.567  12.777  0.00  0.00    +0.235 C 
ENDBRANCH  26  27
BRANCH  29  30
ATOM     30  O   UNL     1       0.522   4.216  10.983  0.00  0.00    -0.462 OA
ATOM     31  H   UNL     1      -0.073   3.692  11.537  0.00  0.00    +0.392 HD
ENDBRANCH  29  30
BRANCH  35  36
ATOM     36  O   UNL     1      -1.455   4.035   3.919  0.00  0.00    -0.472 OA
ATOM     37  H   UNL     1      -2.388   3.813   3.800  0.00  0.00    +0.402 HD
ENDBRANCH  35  36
BRANCH   7   6
ATOM      6  C   UNL     1      -0.222   1.638   3.080  0.00  0.00    +0.098 C 
BRANCH   6   5
ATOM      5  C   UNL     1       1.000   2.196   2.348  0.00  0.00    +0.054 C 
BRANCH   5   4
ATOM      1  C   UNL     1       1.004   4.079   0.248  0.00  0.00    +0.073 C 
ATOM      2  C   UNL     1       0.927   2.605  -0.058  0.00  0.00    -0.126 C 
ATOM      3  C   UNL     1       0.784   2.139  -1.484  0.00  0.00    +0.072 C 
ATOM      4  C   UNL     1       0.983   1.730   0.915  0.00  0.00    -0.063 C 
ENDBRANCH   5   4
ENDBRANCH   6   5
ENDBRANCH   7   6
BRANCH  11  12
ATOM     12  C   UNL     1       1.164   0.919   7.843  0.00  0.00    +0.100 C 
BRANCH  12  13
ATOM     13  C   UNL     1       2.626   1.357   7.949  0.00  0.00    +0.056 C 
BRANCH  13  14
ATOM     14  C   UNL     1       3.329   0.518   8.985  0.00  0.00    -0.053 C 
ATOM     15  C   UNL     1       4.377  -0.193   8.652  0.00  0.00    -0.132 C 
ATOM     16  C   UNL     1       5.160  -0.924   9.711  0.00  0.00    +0.072 C 
ATOM     17  C   UNL     1       4.801  -0.279   7.208  0.00  0.00    +0.071 C 
ENDBRANCH  13  14
ENDBRANCH  12  13
ENDBRANCH  11  12
TORSDOF 11
