REMARK  Name = ZINC04824380
REMARK  7 active torsions:
REMARK  status: ('A' for Active; 'I' for Inactive)
REMARK    1  A    between atoms: C1_1  and  N1_2
REMARK    2  A    between atoms: C12_14  and  O4_21
REMARK    3  A    between atoms: C13_15  and  O3_19
REMARK    4  A    between atoms: C14_16  and  O2_17
REMARK    5  A    between atoms: O2_17  and  C15_18
REMARK    6  A    between atoms: O3_19  and  C16_20
REMARK    7  A    between atoms: O4_21  and  C17_22
REMARK                            x       y       z     vdW  Elec       q    Type
REMARK                         _______ _______ _______ _____ _____    ______ ____
ROOT
ATOM      1  C   UNL     1      -0.018   1.461   0.010  0.00  0.00    +0.315 C 
ATOM      2  N   UNL     1       0.002  -0.004   0.002  0.00  0.00    -0.527 N 
ATOM      3  C   UNL     1      -0.100  -0.672  -1.202  0.00  0.00    +0.213 A 
ATOM      4  C   UNL     1      -0.523   0.001  -2.345  0.00  0.00    -0.045 A 
ATOM      5  C   UNL     1      -0.617  -0.672  -3.544  0.00  0.00    +0.082 A 
ATOM      6  C   UNL     1      -0.294  -2.019  -3.628  0.00  0.00    -0.030 A 
ATOM      7  C   UNL     1       0.125  -2.704  -2.509  0.00  0.00    +0.115 A 
ATOM      8  C   UNL     1       0.223  -2.037  -1.288  0.00  0.00    -0.204 A 
ATOM      9  C   UNL     1       0.658  -2.744  -0.068  0.00  0.00    +0.442 A 
ATOM     10  C   UNL     1       0.454  -2.051   1.213  0.00  0.00    -0.261 A 
ATOM     11  C   UNL     1       0.584  -2.735   2.430  0.00  0.00    +0.216 A 
ATOM     14  C   UNL     1       0.393  -2.056   3.618  0.00  0.00    -0.003 A 
ATOM     17  C   UNL     1       0.059  -0.703   3.603  0.00  0.00    +0.196 A 
ATOM     20  C   UNL     1      -0.072  -0.021   2.403  0.00  0.00    -0.129 A 
ATOM     21  O   UNL     1       1.164  -3.852  -0.120  0.00  0.00    -0.450 OA
ATOM     22  C   UNL     1       0.128  -0.683   1.200  0.00  0.00    +0.271 A 
ENDROOT
BRANCH  11  12
ATOM     12  O   UNL     1       0.912  -4.053   2.443  0.00  0.00    -0.318 OA
ATOM     13  C   UNL     1       2.304  -4.375   2.490  0.00  0.00    +0.252 C 
ENDBRANCH  11  12
BRANCH  14  15
ATOM     15  O   UNL     1       0.521  -2.711   4.805  0.00  0.00    -0.312 OA
ATOM     16  C   UNL     1      -0.653  -3.329   5.335  0.00  0.00    +0.222 C 
ENDBRANCH  14  15
BRANCH  17  18
ATOM     18  O   UNL     1      -0.140  -0.046   4.774  0.00  0.00    -0.294 OA
ATOM     19  C   UNL     1      -0.480   1.340   4.692  0.00  0.00    +0.249 C 
ENDBRANCH  17  18
TORSDOF 3
