REMARK  Name = ZINC95486145
REMARK  7 active torsions:
REMARK  status: ('A' for Active; 'I' for Inactive)
REMARK    1  A    between atoms: C1_1  and  C2_2
REMARK    2  A    between atoms: C5_5  and  O5_29
REMARK    3  A    between atoms: C6_7  and  C19_27
REMARK    4  A    between atoms: C6_7  and  C20_28
REMARK    5  A    between atoms: C11_13  and  C12_15
REMARK    6  A    between atoms: C12_15  and  C13_16
REMARK    7  A    between atoms: C15_18  and  O3_24
REMARK                            x       y       z     vdW  Elec       q    Type
REMARK                         _______ _______ _______ _____ _____    ______ ____
ROOT
ATOM      1  C   UNL     1       0.059   1.527   0.000  0.00  0.00    +0.030 C 
ATOM      2  C   UNL     1       0.065  -0.010  -0.003  0.00  0.00    -0.031 C 
ATOM      3  C   UNL     1      -1.384  -0.497   0.047  0.00  0.00    +0.027 C 
ATOM      4  C   UNL     1      -2.015  -0.089   1.380  0.00  0.00    -0.013 C 
ATOM      5  C   UNL     1      -1.270  -0.779   2.517  0.00  0.00    +0.168 C 
ATOM      8  C   UNL     1       0.213  -0.414   2.527  0.00  0.00    -0.041 C 
ATOM      9  C   UNL     1       0.397   0.987   3.107  0.00  0.00    +0.035 C 
ATOM     10  C   UNL     1       0.902  -1.404   3.498  0.00  0.00    +0.021 C 
ATOM     11  C   UNL     1       0.703  -0.450  -1.330  0.00  0.00    +0.035 C 
ATOM     22  C   UNL     1       2.185  -0.069  -1.343  0.00  0.00    +0.025 C 
ATOM     23  C   UNL     1       2.602   1.194  -2.092  0.00  0.00    +0.180 C 
ATOM     24  O   UNL     1       2.853  -0.113  -2.610  0.00  0.00    -0.338 OA
ATOM     25  C   UNL     1       2.998  -0.485  -0.118  0.00  0.00    +0.046 C 
ATOM     26  C   UNL     1       2.287  -0.014   1.156  0.00  0.00    +0.038 C 
ATOM     27  C   UNL     1       0.861  -0.569   1.163  0.00  0.00    +0.009 C 
ENDROOT
BRANCH   5   6
ATOM      6  O   UNL     1      -1.855  -0.401   3.768  0.00  0.00    -0.564 OA
ATOM      7  H   UNL     1      -2.789  -0.637   3.853  0.00  0.00    +0.375 HD
ENDBRANCH   5   6
BRANCH  11  12
ATOM     12  C   UNL     1       0.558  -1.951  -1.559  0.00  0.00    +0.077 C 
BRANCH  12  13
ATOM     13  C   UNL     1       1.089  -2.304  -2.925  0.00  0.00    +0.152 C 
ATOM     14  C   UNL     1       2.032  -3.235  -3.051  0.00  0.00    -0.242 C 
ATOM     15  C   UNL     1       2.690  -3.717  -4.335  0.00  0.00    +0.200 C 
ATOM     18  C   UNL     1       3.700  -4.772  -3.837  0.00  0.00    +0.231 C 
ATOM     19  O   UNL     1       3.844  -4.503  -2.432  0.00  0.00    -0.336 OA
ATOM     20  C   UNL     1       2.671  -4.018  -1.975  0.00  0.00    +0.520 C 
ATOM     21  O   UNL     1       2.215  -4.199  -0.863  0.00  0.00    -0.445 OA
BRANCH  15  16
ATOM     16  O   UNL     1       3.361  -2.641  -4.993  0.00  0.00    -0.540 OA
ATOM     17  H   UNL     1       3.798  -2.896  -5.817  0.00  0.00    +0.381 HD
ENDBRANCH  15  16
ENDBRANCH  12  13
ENDBRANCH  11  12
TORSDOF 4
