REMARK  Name = ZINC85948413
REMARK  12 active torsions:
REMARK  status: ('A' for Active; 'I' for Inactive)
REMARK    1  A    between atoms: C1_1  and  C2_2
REMARK    2  A    between atoms: C3_4  and  O11_38
REMARK    3  A    between atoms: C4_6  and  O10_37
REMARK    4  A    between atoms: C5_8  and  O9_36
REMARK    5  A    between atoms: C6_10  and  O2_13
REMARK    6  A    between atoms: O2_13  and  C7_14
REMARK    7  A    between atoms: C10_18  and  O8_35
REMARK    8  A    between atoms: C12_20  and  O7_34
REMARK    9  A    between atoms: C15_24  and  C16_25
REMARK   10  A    between atoms: C19_28  and  O6_33
REMARK   11  A    between atoms: C20_29  and  O5_31
REMARK   12  A    between atoms: O5_31  and  C22_32
REMARK                            x       y       z     vdW  Elec       q    Type
REMARK                         _______ _______ _______ _____ _____    ______ ____
ROOT
ATOM     14  C   UNL     1       2.836  -1.937   2.550  0.00  0.00    -0.085 A 
ATOM     15  C   UNL     1       3.556  -2.340   3.704  0.00  0.00    +0.411 A 
ATOM     16  C   UNL     1       4.939  -1.856   3.843  0.00  0.00    -0.262 A 
ATOM     17  C   UNL     1       5.724  -2.205   4.950  0.00  0.00    +0.222 A 
ATOM     20  C   UNL     1       7.019  -1.730   5.044  0.00  0.00    -0.051 A 
ATOM     21  C   UNL     1       7.537  -0.912   4.045  0.00  0.00    +0.197 A 
ATOM     24  C   UNL     1       6.767  -0.563   2.947  0.00  0.00    -0.025 A 
ATOM     25  C   UNL     1       5.466  -1.029   2.835  0.00  0.00    +0.180 A 
ATOM     26  O   UNL     1       4.703  -0.698   1.772  0.00  0.00    -0.203 OA
ATOM     27  O   UNL     1       3.049  -3.060   4.549  0.00  0.00    -0.444 OA
ATOM     28  C   UNL     1       3.441  -1.137   1.628  0.00  0.00    +0.202 A 
ENDROOT
BRANCH  28  29
ATOM     29  C   UNL     1       2.681  -0.732   0.431  0.00  0.00    -0.033 A 
ATOM     30  C   UNL     1       1.381  -0.236   0.562  0.00  0.00    +0.061 A 
ATOM     31  C   UNL     1       0.672   0.142  -0.558  0.00  0.00    +0.038 A 
ATOM     32  C   UNL     1       1.246   0.031  -1.817  0.00  0.00    +0.107 A 
ATOM     35  C   UNL     1       2.542  -0.463  -1.955  0.00  0.00    +0.100 A 
ATOM     38  C   UNL     1       3.261  -0.838  -0.836  0.00  0.00    -0.013 A 
BRANCH  32  33
ATOM     33  O   UNL     1       0.543   0.405  -2.918  0.00  0.00    -0.483 OA
ATOM     34  H   UNL     1       0.659   1.333  -3.163  0.00  0.00    +0.392 HD
ENDBRANCH  32  33
BRANCH  35  36
ATOM     36  O   UNL     1       3.101  -0.569  -3.190  0.00  0.00    -0.304 OA
ATOM     37  C   UNL     1       4.433  -1.083  -3.257  0.00  0.00    +0.241 C 
ENDBRANCH  35  36
ENDBRANCH  28  29
BRANCH  17  18
ATOM     18  O   UNL     1       5.216  -3.002   5.924  0.00  0.00    -0.471 OA
ATOM     19  H   UNL     1       5.361  -3.947   5.774  0.00  0.00    +0.403 HD
ENDBRANCH  17  18
BRANCH  21  22
ATOM     22  O   UNL     1       8.810  -0.451   4.148  0.00  0.00    -0.486 OA
ATOM     23  H   UNL     1       9.471  -1.030   3.745  0.00  0.00    +0.405 HD
ENDBRANCH  21  22
BRANCH  14  13
ATOM     13  O   UNL     1       1.553  -2.350   2.363  0.00  0.00    -0.269 OA
BRANCH  13  12
ATOM      1  C   UNL     1       2.326  -5.791  -0.810  0.00  0.00    +0.071 C 
ATOM      2  C   UNL     1       1.723  -5.509   0.568  0.00  0.00    +0.138 C 
ATOM      3  C   UNL     1       0.240  -5.889   0.565  0.00  0.00    +0.172 C 
ATOM      6  C   UNL     1      -0.369  -5.547   1.928  0.00  0.00    +0.202 C 
ATOM      9  C   UNL     1      -0.152  -4.058   2.213  0.00  0.00    +0.148 C 
ATOM     12  C   UNL     1       1.347  -3.749   2.153  0.00  0.00    +0.296 C 
ATOM     39  O   UNL     1       1.857  -4.119   0.871  0.00  0.00    -0.381 OA
BRANCH   3   4
ATOM      4  O   UNL     1       0.107  -7.290   0.319  0.00  0.00    -0.549 OA
ATOM      5  H   UNL     1       0.477  -7.578  -0.527  0.00  0.00    +0.380 HD
ENDBRANCH   3   4
BRANCH   6   7
ATOM      7  O   UNL     1      -1.769  -5.833   1.910  0.00  0.00    -0.535 OA
ATOM      8  H   UNL     1      -2.221  -5.640   2.744  0.00  0.00    +0.380 HD
ENDBRANCH   6   7
BRANCH   9  10
ATOM     10  O   UNL     1      -0.841  -3.279   1.235  0.00  0.00    -0.533 OA
ATOM     11  H   UNL     1      -0.747  -2.324   1.355  0.00  0.00    +0.383 HD
ENDBRANCH   9  10
ENDBRANCH  13  12
ENDBRANCH  14  13
TORSDOF 10
