REMARK  Name = ZINC95486376
REMARK  19 active torsions:
REMARK  status: ('A' for Active; 'I' for Inactive)
REMARK    1  A    between atoms: C1_1  and  C2_2
REMARK    2  A    between atoms: C5_5  and  C36_45
REMARK    3  A    between atoms: C7_7  and  C13_15
REMARK    4  A    between atoms: C8_8  and  O2_14
REMARK    5  A    between atoms: C10_10  and  O1_12
REMARK    6  A    between atoms: O1_12  and  C12_13
REMARK    7  A    between atoms: C15_17  and  C25_29
REMARK    8  A    between atoms: C18_20  and  C24_28
REMARK    9  A    between atoms: C20_22  and  O4_26
REMARK   10  A    between atoms: C22_24  and  O3_25
REMARK   11  A    between atoms: O4_26  and  C23_27
REMARK   12  A    between atoms: C26_30  and  O6_44
REMARK   13  A    between atoms: C28_32  and  O5_43
REMARK   14  A    between atoms: C32_36  and  C35_42
REMARK   15  A    between atoms: C33_39  and  C34_41
REMARK   16  A    between atoms: C37_46  and  O8_60
REMARK   17  A    between atoms: C39_48  and  O7_59
REMARK   18  A    between atoms: C43_52  and  C47_58
REMARK   19  A    between atoms: C45_55  and  C46_57
REMARK                            x       y       z     vdW  Elec       q    Type
REMARK                         _______ _______ _______ _____ _____    ______ ____
ROOT
ATOM     24  C   UNL     1      -0.249  -6.966  -1.882  0.00  0.00    -0.091 A 
ATOM     25  C   UNL     1       0.939  -7.594  -2.279  0.00  0.00    +0.075 A 
ATOM     26  C   UNL     1       1.100  -8.957  -2.123  0.00  0.00    -0.082 A 
ATOM     45  C   UNL     1       0.056  -9.729  -1.556  0.00  0.00    +0.030 A 
ATOM     46  C   UNL     1       0.193 -11.114  -1.385  0.00  0.00    -0.046 A 
ATOM     47  C   UNL     1      -0.823 -11.837  -0.837  0.00  0.00    -0.017 A 
ATOM     48  C   UNL     1      -0.663 -13.325  -0.660  0.00  0.00    +0.094 C 
ATOM     49  C   UNL     1      -2.007 -11.223  -0.440  0.00  0.00    -0.099 A 
ATOM     50  C   UNL     1      -2.180  -9.865  -0.591  0.00  0.00    +0.171 A 
ATOM     53  C   UNL     1      -1.144  -9.093  -1.155  0.00  0.00    -0.107 A 
ATOM     54  C   UNL     1      -1.284  -7.702  -1.319  0.00  0.00    +0.200 A 
ENDROOT
BRANCH  26  27
ATOM     27  C   UNL     1       2.360  -9.610  -2.547  0.00  0.00    -0.054 A 
ATOM     28  C   UNL     1       2.490 -10.094  -3.853  0.00  0.00    +0.172 A 
ATOM     31  C   UNL     1       3.670 -10.702  -4.242  0.00  0.00    -0.017 A 
ATOM     32  C   UNL     1       4.713 -10.830  -3.339  0.00  0.00    +0.160 A 
ATOM     35  C   UNL     1       4.586 -10.349  -2.037  0.00  0.00    -0.166 A 
ATOM     36  C   UNL     1       5.749 -10.517  -1.094  0.00  0.00    +0.242 C 
ATOM     37  C   UNL     1       7.051 -10.227  -1.842  0.00  0.00    +0.094 C 
ATOM     38  N   UNL     1       5.634  -9.584   0.035  0.00  0.00    -0.505 N 
ATOM     39  H   UNL     1       6.364  -9.776   0.705  0.00  0.00    +0.431 HD
ATOM     40  H   UNL     1       5.717  -8.634  -0.294  0.00  0.00    +0.427 HD
ATOM     41  C   UNL     1       4.321  -9.772   0.670  0.00  0.00    +0.172 C 
ATOM     42  C   UNL     1       4.289  -9.049   2.019  0.00  0.00    +0.096 C 
ATOM     43  C   UNL     1       3.247  -9.190  -0.250  0.00  0.00    +0.135 C 
ATOM     44  C   UNL     1       3.419  -9.736  -1.644  0.00  0.00    -0.041 A 
BRANCH  28  29
ATOM     29  O   UNL     1       1.463  -9.968  -4.734  0.00  0.00    -0.480 OA
ATOM     30  H   UNL     1       1.484  -9.149  -5.247  0.00  0.00    +0.402 HD
ENDBRANCH  28  29
BRANCH  32  33
ATOM     33  O   UNL     1       5.869 -11.429  -3.725  0.00  0.00    -0.490 OA
ATOM     34  H   UNL     1       6.488 -10.837  -4.175  0.00  0.00    +0.402 HD
ENDBRANCH  32  33
ENDBRANCH  26  27
BRANCH  24  23
ATOM      1  C   UNL     1      -1.095   0.937  -1.669  0.00  0.00    +0.094 C 
ATOM      2  C   UNL     1      -0.941  -0.551  -1.482  0.00  0.00    -0.026 A 
ATOM      3  C   UNL     1      -0.830  -1.357  -2.575  0.00  0.00    -0.021 A 
ATOM      4  C   UNL     1      -0.687  -2.742  -2.414  0.00  0.00    +0.026 A 
ATOM      5  C   UNL     1      -0.569  -3.598  -3.537  0.00  0.00    -0.036 A 
ATOM     22  C   UNL     1      -0.428  -4.959  -3.350  0.00  0.00    +0.055 A 
ATOM     23  C   UNL     1      -0.400  -5.503  -2.059  0.00  0.00    -0.095 A 
ATOM     57  C   UNL     1      -0.513  -4.682  -0.944  0.00  0.00    +0.181 A 
ATOM     60  C   UNL     1      -0.657  -3.292  -1.110  0.00  0.00    -0.101 A 
ATOM     61  C   UNL     1      -0.773  -2.436   0.004  0.00  0.00    +0.158 A 
ATOM     64  C   UNL     1      -0.908  -1.080  -0.195  0.00  0.00    -0.093 A 
BRANCH   5   6
ATOM      6  C   UNL     1      -0.599  -3.035  -4.907  0.00  0.00    -0.086 A 
ATOM      7  C   UNL     1       0.593  -2.648  -5.524  0.00  0.00    +0.135 A 
ATOM     10  C   UNL     1       0.559  -2.122  -6.804  0.00  0.00    -0.039 A 
ATOM     11  C   UNL     1      -0.653  -1.982  -7.459  0.00  0.00    +0.131 A 
ATOM     14  C   UNL     1      -1.845  -2.367  -6.844  0.00  0.00    -0.101 A 
ATOM     15  C   UNL     1      -3.124  -2.176  -7.618  0.00  0.00    +0.036 C 
ATOM     16  C   UNL     1      -3.526  -0.701  -7.572  0.00  0.00    +0.035 C 
ATOM     17  C   UNL     1      -4.242  -3.039  -7.027  0.00  0.00    +0.024 C 
ATOM     18  C   UNL     1      -4.310  -2.762  -5.521  0.00  0.00    -0.017 C 
ATOM     19  C   UNL     1      -5.564  -3.412  -4.932  0.00  0.00    +0.021 C 
ATOM     20  C   UNL     1      -3.066  -3.357  -4.865  0.00  0.00    +0.082 C 
ATOM     21  C   UNL     1      -1.821  -2.900  -5.578  0.00  0.00    -0.023 A 
BRANCH   7   8
ATOM      8  O   UNL     1       1.777  -2.785  -4.873  0.00  0.00    -0.486 OA
ATOM      9  H   UNL     1       2.210  -3.638  -5.020  0.00  0.00    +0.385 HD
ENDBRANCH   7   8
BRANCH  11  12
ATOM     12  O   UNL     1      -0.682  -1.464  -8.714  0.00  0.00    -0.491 OA
ATOM     13  H   UNL     1      -0.602  -2.126  -9.415  0.00  0.00    +0.392 HD
ENDBRANCH  11  12
ENDBRANCH   5   6
BRANCH  57  58
ATOM     58  O   UNL     1      -0.485  -5.220   0.303  0.00  0.00    -0.463 OA
ATOM     59  H   UNL     1       0.401  -5.282   0.684  0.00  0.00    +0.381 HD
ENDBRANCH  57  58
BRANCH  61  62
ATOM     62  O   UNL     1      -0.748  -2.944   1.263  0.00  0.00    -0.295 OA
ATOM     63  C   UNL     1      -0.871  -2.013   2.341  0.00  0.00    +0.240 C 
ENDBRANCH  61  62
ENDBRANCH  24  23
BRANCH  50  51
ATOM     51  O   UNL     1      -3.339  -9.275  -0.200  0.00  0.00    -0.291 OA
ATOM     52  C   UNL     1      -4.341 -10.124   0.362  0.00  0.00    +0.246 C 
ENDBRANCH  50  51
BRANCH  54  55
ATOM     55  O   UNL     1      -2.428  -7.083  -0.932  0.00  0.00    -0.463 OA
ATOM     56  H   UNL     1      -3.103  -7.036  -1.623  0.00  0.00    +0.393 HD
ENDBRANCH  54  55
TORSDOF 11
