REMARK  Name = ZINC95486146
REMARK  8 active torsions:
REMARK  status: ('A' for Active; 'I' for Inactive)
REMARK    1  A    between atoms: C1_1  and  C2_2
REMARK    2  A    between atoms: C5_5  and  O6_31
REMARK    3  A    between atoms: C6_7  and  C19_29
REMARK    4  A    between atoms: C6_7  and  C20_30
REMARK    5  A    between atoms: C8_10  and  O5_28
REMARK    6  A    between atoms: C11_14  and  C12_16
REMARK    7  A    between atoms: C12_16  and  C13_17
REMARK    8  A    between atoms: C15_19  and  O3_25
REMARK                            x       y       z     vdW  Elec       q    Type
REMARK                         _______ _______ _______ _____ _____    ______ ____
ROOT
ATOM      1  C   UNL     1       0.043   1.528   0.001  0.00  0.00    +0.033 C 
ATOM      2  C   UNL     1       0.051  -0.010  -0.002  0.00  0.00    -0.032 C 
ATOM      3  C   UNL     1      -1.397  -0.497   0.050  0.00  0.00    +0.034 C 
ATOM      4  C   UNL     1      -2.032  -0.049   1.368  0.00  0.00    -0.012 C 
ATOM      5  C   UNL     1      -1.296  -0.724   2.518  0.00  0.00    +0.164 C 
ATOM      8  C   UNL     1       0.199  -0.410   2.523  0.00  0.00    -0.033 C 
ATOM      9  C   UNL     1       0.822  -1.445   3.494  0.00  0.00    +0.030 C 
ATOM     10  C   UNL     1       0.426   0.975   3.131  0.00  0.00    +0.035 C 
ATOM     11  C   UNL     1       0.676  -0.449  -1.335  0.00  0.00    +0.036 C 
ATOM     22  C   UNL     1       2.150  -0.042  -1.370  0.00  0.00    +0.025 C 
ATOM     23  C   UNL     1       2.539   1.223  -2.130  0.00  0.00    +0.184 C 
ATOM     24  O   UNL     1       2.804  -0.084  -2.644  0.00  0.00    -0.334 OA
ATOM     25  C   UNL     1       2.979  -0.442  -0.152  0.00  0.00    +0.022 C 
ATOM     26  C   UNL     1       2.274   0.016   1.134  0.00  0.00    +0.189 C 
ATOM     29  C   UNL     1       0.858  -0.561   1.165  0.00  0.00    +0.026 C 
ENDROOT
BRANCH   5   6
ATOM      6  O   UNL     1      -1.866  -0.297   3.762  0.00  0.00    -0.563 OA
ATOM      7  H   UNL     1      -2.805  -0.510   3.858  0.00  0.00    +0.374 HD
ENDBRANCH   5   6
BRANCH  26  27
ATOM     27  O   UNL     1       3.058  -0.452   2.236  0.00  0.00    -0.554 OA
ATOM     28  H   UNL     1       3.961  -0.107   2.251  0.00  0.00    +0.375 HD
ENDBRANCH  26  27
BRANCH  11  12
ATOM     12  C   UNL     1       0.552  -1.954  -1.550  0.00  0.00    +0.078 C 
BRANCH  12  13
ATOM     13  C   UNL     1       1.068  -2.310  -2.921  0.00  0.00    +0.150 C 
ATOM     14  C   UNL     1       2.024  -3.227  -3.054  0.00  0.00    -0.241 C 
ATOM     15  C   UNL     1       2.669  -3.708  -4.344  0.00  0.00    +0.200 C 
ATOM     18  C   UNL     1       3.704  -4.743  -3.854  0.00  0.00    +0.231 C 
ATOM     19  O   UNL     1       3.865  -4.460  -2.453  0.00  0.00    -0.336 OA
ATOM     20  C   UNL     1       2.692  -3.990  -1.982  0.00  0.00    +0.518 C 
ATOM     21  O   UNL     1       2.256  -4.170  -0.861  0.00  0.00    -0.443 OA
BRANCH  15  16
ATOM     16  O   UNL     1       3.313  -2.627  -5.021  0.00  0.00    -0.540 OA
ATOM     17  H   UNL     1       3.741  -2.881  -5.850  0.00  0.00    +0.382 HD
ENDBRANCH  15  16
ENDBRANCH  12  13
ENDBRANCH  11  12
TORSDOF 5
