REMARK  Name = ZINC14441500
REMARK  9 active torsions:
REMARK  status: ('A' for Active; 'I' for Inactive)
REMARK    1  A    between atoms: C1_1  and  C2_2
REMARK    2  A    between atoms: C3_3  and  O7_30
REMARK    3  A    between atoms: C5_6  and  C7_9
REMARK    4  A    between atoms: C8_10  and  O6_28
REMARK    5  A    between atoms: C12_14  and  O3_15
REMARK    6  A    between atoms: O3_15  and  C13_16
REMARK    7  A    between atoms: C16_20  and  C17_22
REMARK    8  A    between atoms: O6_28  and  C23_29
REMARK    9  A    between atoms: O7_30  and  C24_31
REMARK                            x       y       z     vdW  Elec       q    Type
REMARK                         _______ _______ _______ _____ _____    ______ ____
ROOT
ATOM      8  C   UNL     1      -2.269   5.402   0.052  0.00  0.00    -0.115 A 
ATOM      9  C   UNL     1      -1.010   6.017   0.043  0.00  0.00    +0.226 A 
ATOM     12  C   UNL     1       0.145   5.255   0.028  0.00  0.00    -0.089 A 
ATOM     13  C   UNL     1       0.067   3.870   0.022  0.00  0.00    +0.212 A 
ATOM     14  C   UNL     1      -1.192   3.244   0.031  0.00  0.00    -0.283 A 
ATOM     15  C   UNL     1      -1.246   1.772   0.018  0.00  0.00    +0.425 A 
ATOM     16  C   UNL     1      -0.013   1.076   0.008  0.00  0.00    -0.142 A 
ATOM     17  C   UNL     1       1.152   1.776   0.001  0.00  0.00    +0.203 A 
ATOM     24  O   UNL     1      -2.310   1.176   0.019  0.00  0.00    -0.452 OA
ATOM     25  O   UNL     1       1.188   3.118   0.007  0.00  0.00    -0.218 OA
ATOM     26  C   UNL     1      -2.362   4.011   0.046  0.00  0.00    +0.249 A 
ENDROOT
BRANCH   8   7
ATOM      1  C   UNL     1      -7.038   8.607  -0.017  0.00  0.00    +0.182 C 
ATOM      2  C   UNL     1      -5.789   7.767   0.059  0.00  0.00    +0.114 A 
ATOM      3  C   UNL     1      -5.293   7.435   1.271  0.00  0.00    -0.084 A 
ATOM      6  C   UNL     1      -4.114   6.643   1.338  0.00  0.00    +0.400 A 
ATOM      7  C   UNL     1      -3.500   6.229   0.068  0.00  0.00    -0.199 A 
ATOM     29  C   UNL     1      -4.088   6.629  -1.093  0.00  0.00    +0.313 A 
ATOM     30  O   UNL     1      -3.630   6.318   2.411  0.00  0.00    -0.457 OA
ATOM     31  O   UNL     1      -5.201   7.371  -1.075  0.00  0.00    -0.201 OA
BRANCH   3   4
ATOM      4  O   UNL     1      -5.912   7.851   2.410  0.00  0.00    -0.301 OA
ATOM      5  C   UNL     1      -5.496   9.106   2.952  0.00  0.00    +0.223 C 
ENDBRANCH   3   4
ENDBRANCH   8   7
BRANCH  17  18
ATOM     18  C   UNL     1       2.428   1.032  -0.016  0.00  0.00    -0.073 A 
ATOM     19  C   UNL     1       2.425  -0.365  -0.018  0.00  0.00    +0.056 A 
ATOM     20  C   UNL     1       3.620  -1.053  -0.040  0.00  0.00    +0.014 A 
ATOM     21  C   UNL     1       4.819  -0.364  -0.048  0.00  0.00    +0.037 A 
ATOM     22  C   UNL     1       4.830   1.020  -0.040  0.00  0.00    +0.009 A 
ATOM     23  C   UNL     1       3.642   1.722  -0.024  0.00  0.00    +0.054 A 
ENDBRANCH  17  18
BRANCH   9  10
ATOM     10  O   UNL     1      -0.923   7.372   0.049  0.00  0.00    -0.296 OA
ATOM     11  C   UNL     1       0.389   7.937   0.039  0.00  0.00    +0.256 C 
ENDBRANCH   9  10
BRANCH  26  27
ATOM     27  O   UNL     1      -3.577   3.407   0.054  0.00  0.00    -0.310 OA
ATOM     28  C   UNL     1      -4.170   3.124  -1.215  0.00  0.00    +0.245 C 
ENDBRANCH  26  27
TORSDOF 5
