REMARK  Name = ZINC95485889
REMARK  16 active torsions:
REMARK  status: ('A' for Active; 'I' for Inactive)
REMARK    1  A    between atoms: C1_1  and  N1_2
REMARK    2  A    between atoms: C6_7  and  O6_49
REMARK    3  A    between atoms: C7_8  and  C18_21
REMARK    4  A    between atoms: C10_11  and  C11_13
REMARK    5  A    between atoms: C11_13  and  C12_14
REMARK    6  A    between atoms: C15_17  and  O1_20
REMARK    7  A    between atoms: C18_21  and  C19_22
REMARK    8  A    between atoms: C23_26  and  O3_30
REMARK    9  A    between atoms: C24_27  and  O2_28
REMARK   10  A    between atoms: O2_28  and  C25_29
REMARK   11  A    between atoms: O3_30  and  C26_31
REMARK   12  A    between atoms: C30_36  and  O5_47
REMARK   13  A    between atoms: C31_37  and  O4_46
REMARK   14  A    between atoms: N2_44  and  C37_45
REMARK   15  A    between atoms: O5_47  and  C38_48
REMARK   16  A    between atoms: O6_49  and  C39_50
REMARK                            x       y       z     vdW  Elec       q    Type
REMARK                         _______ _______ _______ _____ _____    ______ ____
ROOT
ATOM     13  C   UNL     1       1.807  -4.539   4.409  0.00  0.00    -0.069 A 
ATOM     14  C   UNL     1       0.825  -3.992   5.234  0.00  0.00    -0.056 A 
ATOM     15  C   UNL     1      -0.008  -4.809   5.945  0.00  0.00    -0.109 A 
ATOM     16  C   UNL     1      -1.121  -4.365   6.839  0.00  0.00    +0.296 C 
ATOM     17  C   UNL     1      -2.052  -3.359   6.253  0.00  0.00    -0.098 A 
ATOM     18  C   UNL     1      -3.357  -3.638   5.913  0.00  0.00    -0.011 A 
ATOM     19  C   UNL     1      -4.160  -2.632   5.397  0.00  0.00    +0.125 A 
ATOM     22  C   UNL     1      -3.653  -1.347   5.225  0.00  0.00    +0.112 A 
ATOM     25  C   UNL     1      -2.333  -1.074   5.560  0.00  0.00    +0.057 A 
ATOM     26  C   UNL     1      -1.544  -2.079   6.058  0.00  0.00    -0.106 A 
ATOM     27  C   UNL     1      -0.091  -1.921   6.394  0.00  0.00    +0.074 C 
ATOM     28  C   UNL     1       0.184  -2.513   7.768  0.00  0.00    +0.261 C 
ATOM     29  N   UNL     1      -0.499  -3.755   8.030  0.00  0.00    -0.377 N 
ATOM     30  H   UNL     1       0.173  -4.402   8.412  0.00  0.00    +0.428 HD
ATOM     31  C   UNL     1      -1.543  -3.515   9.036  0.00  0.00    +0.320 C 
ATOM     32  C   UNL     1       0.154  -6.196   5.841  0.00  0.00    -0.048 A 
ATOM     33  C   UNL     1       1.125  -6.744   5.030  0.00  0.00    +0.121 A 
ATOM     36  C   UNL     1       0.757  -2.501   5.291  0.00  0.00    +0.103 C 
ATOM     37  C   UNL     1       1.959  -5.906   4.295  0.00  0.00    +0.123 A 
ENDROOT
BRANCH  19  20
ATOM     20  O   UNL     1      -5.449  -2.902   5.058  0.00  0.00    -0.294 OA
ATOM     21  C   UNL     1      -5.907  -4.240   5.260  0.00  0.00    +0.254 C 
ENDBRANCH  19  20
BRANCH  22  23
ATOM     23  O   UNL     1      -4.448  -0.361   4.729  0.00  0.00    -0.481 OA
ATOM     24  H   UNL     1      -4.930   0.133   5.406  0.00  0.00    +0.400 HD
ENDBRANCH  22  23
BRANCH  33  34
ATOM     34  O   UNL     1       1.263  -8.094   4.944  0.00  0.00    -0.295 OA
ATOM     35  C   UNL     1       0.366  -8.889   5.723  0.00  0.00    +0.251 C 
ENDBRANCH  33  34
BRANCH  37  38
ATOM     38  O   UNL     1       2.915  -6.428   3.480  0.00  0.00    -0.300 OA
ATOM     39  C   UNL     1       4.201  -6.665   4.056  0.00  0.00    +0.236 C 
ENDBRANCH  37  38
BRANCH  13  12
ATOM     12  C   UNL     1       2.713  -3.623   3.625  0.00  0.00    +0.153 C 
BRANCH  12  11
ATOM      1  C   UNL     1      -1.734   0.113  -0.912  0.00  0.00    +0.326 C 
ATOM      2  N   UNL     1      -0.964  -1.111  -0.656  0.00  0.00    -0.384 N 
ATOM      3  H   UNL     1      -1.595  -1.890  -0.538  0.00  0.00    +0.422 HD
ATOM      4  C   UNL     1      -0.064  -1.373  -1.790  0.00  0.00    +0.272 C 
ATOM      5  C   UNL     1       0.494  -2.790  -1.653  0.00  0.00    +0.119 C 
ATOM      6  C   UNL     1       1.062  -2.983  -0.270  0.00  0.00    -0.036 A 
ATOM      7  C   UNL     1       1.913  -4.053  -0.045  0.00  0.00    -0.059 A 
ATOM      8  C   UNL     1       2.451  -4.265   1.214  0.00  0.00    +0.177 A 
ATOM     11  C   UNL     1       2.134  -3.400   2.252  0.00  0.00    -0.104 A 
ATOM     40  C   UNL     1       1.288  -2.335   2.023  0.00  0.00    +0.077 A 
ATOM     41  C   UNL     1       0.750  -2.122   0.762  0.00  0.00    -0.163 A 
ATOM     42  C   UNL     1      -0.163  -0.942   0.559  0.00  0.00    +0.237 C 
BRANCH   8   9
ATOM      9  O   UNL     1       3.285  -5.315   1.432  0.00  0.00    -0.277 OA
ATOM     10  C   UNL     1       3.565  -6.163   0.316  0.00  0.00    +0.249 C 
ENDBRANCH   8   9
BRANCH  42  43
ATOM     43  C   UNL     1      -1.096  -0.813   1.765  0.00  0.00    +0.117 C 
BRANCH  43  44
ATOM     44  C   UNL     1      -2.010  -2.010   1.822  0.00  0.00    -0.131 A 
ATOM     45  C   UNL     1      -3.250  -1.962   1.211  0.00  0.00    +0.011 A 
ATOM     46  C   UNL     1      -4.090  -3.057   1.263  0.00  0.00    +0.004 A 
ATOM     47  C   UNL     1      -3.688  -4.207   1.928  0.00  0.00    +0.128 A 
ATOM     50  C   UNL     1      -2.444  -4.253   2.540  0.00  0.00    -0.011 A 
ATOM     51  C   UNL     1      -1.606  -3.156   2.481  0.00  0.00    +0.055 A 
BRANCH  47  48
ATOM     48  O   UNL     1      -4.513  -5.286   1.980  0.00  0.00    -0.498 OA
ATOM     49  H   UNL     1      -4.396  -5.906   1.248  0.00  0.00    +0.400 HD
ENDBRANCH  47  48
ENDBRANCH  43  44
ENDBRANCH  42  43
ENDBRANCH  12  11
ENDBRANCH  13  12
TORSDOF 10
