REMARK  Name = ZINC95486299
REMARK  10 active torsions:
REMARK  status: ('A' for Active; 'I' for Inactive)
REMARK    1  A    between atoms: C1_1  and  C2_2
REMARK    2  A    between atoms: C2_2  and  C3_3
REMARK    3  A    between atoms: C2_2  and  C4_4
REMARK    4  A    between atoms: C10_12  and  O4_27
REMARK    5  A    between atoms: C11_14  and  O3_26
REMARK    6  A    between atoms: C13_18  and  C20_25
REMARK    7  A    between atoms: C17_22  and  C18_23
REMARK    8  A    between atoms: C17_22  and  C19_24
REMARK    9  A    between atoms: O4_27  and  C21_28
REMARK   10  A    between atoms: C21_28  and  C22_30
REMARK                            x       y       z     vdW  Elec       q    Type
REMARK                         _______ _______ _______ _____ _____    ______ ____
ROOT
ATOM      3  C   UNL     1       0.707  -0.670  -1.255  0.00  0.00    -0.431 C 
ATOM      4  C   UNL     1       1.813  -1.435  -1.189  0.00  0.00    +0.243 C 
ATOM      5  O   UNL     1       2.306  -1.823   0.010  0.00  0.00    -0.643 OA
ATOM      6  C   UNL     1       2.493  -1.852  -2.442  0.00  0.00    +0.383 C 
ATOM      7  C   UNL     1       1.956  -1.447  -3.756  0.00  0.00    -0.104 C 
ATOM      8  C   UNL     1       0.855  -0.681  -3.818  0.00  0.00    -0.104 C 
ATOM      9  C   UNL     1       0.272  -0.215  -5.116  0.00  0.00    +0.213 C 
ATOM     14  C   UNL     1       0.660  -1.000  -6.349  0.00  0.00    +0.171 C 
ATOM     17  C   UNL     1       1.625  -2.152  -6.129  0.00  0.00    +0.041 C 
ATOM     18  C   UNL     1       0.895  -3.479  -5.977  0.00  0.00    -0.051 C 
ATOM     19  C   UNL     1       0.208  -3.820  -7.317  0.00  0.00    +0.017 C 
ATOM     20  C   UNL     1      -0.186  -3.420  -4.899  0.00  0.00    +0.026 C 
ATOM     21  C   UNL     1       1.853  -4.631  -5.671  0.00  0.00    +0.016 C 
ATOM     22  C   UNL     1       2.745  -4.295  -4.477  0.00  0.00    +0.010 C 
ATOM     23  C   UNL     1       3.564  -3.053  -4.830  0.00  0.00    +0.040 C 
ATOM     24  C   UNL     1       2.629  -1.865  -5.028  0.00  0.00    -0.010 C 
ATOM     25  C   UNL     1       3.514  -0.691  -5.485  0.00  0.00    +0.038 C 
ATOM     26  O   UNL     1       3.496  -2.527  -2.342  0.00  0.00    -0.417 OA
ATOM     27  C   UNL     1       0.189  -0.253  -2.560  0.00  0.00    +0.421 C 
ATOM     28  O   UNL     1      -0.794   0.460  -2.604  0.00  0.00    -0.498 OA
ENDROOT
BRANCH   3   2
ATOM      1  C   UNL     1      -0.013   1.288   0.085  0.00  0.00    -0.011 C 
ATOM      2  C   UNL     1       0.003  -0.239   0.006  0.00  0.00    +0.076 C 
ATOM     29  C   UNL     1      -1.435  -0.764  -0.007  0.00  0.00    -0.009 C 
ENDBRANCH   3   2
BRANCH  14  15
ATOM     15  O   UNL     1       1.210  -0.092  -7.326  0.00  0.00    -0.566 OA
ATOM     16  H   UNL     1       0.599   0.603  -7.605  0.00  0.00    +0.381 HD
ENDBRANCH  14  15
BRANCH   9  10
ATOM     10  O   UNL     1      -1.162  -0.216  -5.011  0.00  0.00    -0.321 OA
BRANCH  10  11
ATOM     11  C   UNL     1      -1.825   0.720  -5.707  0.00  0.00    +0.465 C 
ATOM     12  C   UNL     1      -3.329   0.781  -5.645  0.00  0.00    +0.152 C 
ATOM     13  O   UNL     1      -1.216   1.515  -6.384  0.00  0.00    -0.528 OA
ENDBRANCH  10  11
ENDBRANCH   9  10
TORSDOF 4
