REMARK  Name = ZINC95485987
REMARK  10 active torsions:
REMARK  status: ('A' for Active; 'I' for Inactive)
REMARK    1  A    between atoms: C1_1  and  C2_2
REMARK    2  A    between atoms: C2_2  and  C21_27
REMARK    3  A    between atoms: C3_3  and  C4_4
REMARK    4  A    between atoms: C4_4  and  C5_5
REMARK    5  A    between atoms: C5_5  and  C6_6
REMARK    6  A    between atoms: C7_7  and  O6_26
REMARK    7  A    between atoms: C11_11  and  O1_12
REMARK    8  A    between atoms: C14_16  and  C15_18
REMARK    9  A    between atoms: C18_21  and  O5_25
REMARK   10  A    between atoms: C20_23  and  O4_24
REMARK                            x       y       z     vdW  Elec       q    Type
REMARK                         _______ _______ _______ _____ _____    ______ ____
ROOT
ATOM      7  C   UNL     1       1.332   0.393   4.548  0.00  0.00    -0.167 A 
ATOM      8  C   UNL     1       2.505  -0.088   5.118  0.00  0.00    +0.191 A 
ATOM     11  C   UNL     1       3.118   0.595   6.158  0.00  0.00    -0.024 A 
ATOM     12  C   UNL     1       2.561   1.769   6.639  0.00  0.00    +0.176 A 
ATOM     13  C   UNL     1       1.375   2.258   6.066  0.00  0.00    -0.262 A 
ATOM     14  C   UNL     1       0.801   3.508   6.593  0.00  0.00    +0.423 A 
ATOM     15  C   UNL     1       1.487   4.142   7.654  0.00  0.00    -0.154 A 
ATOM     16  C   UNL     1       2.631   3.586   8.141  0.00  0.00    +0.215 A 
ATOM     27  O   UNL     1      -0.227   3.977   6.133  0.00  0.00    -0.456 OA
ATOM     28  O   UNL     1       3.144   2.446   7.651  0.00  0.00    -0.206 OA
ATOM     29  C   UNL     1       0.765   1.566   5.012  0.00  0.00    +0.218 A 
ENDROOT
BRANCH  16  17
ATOM     17  C   UNL     1       3.332   4.262   9.246  0.00  0.00    -0.115 A 
ATOM     18  C   UNL     1       2.897   5.514   9.693  0.00  0.00    +0.100 A 
ATOM     19  C   UNL     1       3.555   6.141  10.726  0.00  0.00    -0.011 A 
ATOM     20  C   UNL     1       4.652   5.535  11.329  0.00  0.00    +0.154 A 
ATOM     23  C   UNL     1       5.092   4.293  10.894  0.00  0.00    -0.035 A 
ATOM     24  C   UNL     1       4.436   3.650   9.859  0.00  0.00    +0.169 A 
BRANCH  20  21
ATOM     21  O   UNL     1       5.296   6.161  12.347  0.00  0.00    -0.495 OA
ATOM     22  H   UNL     1       4.946   5.949  13.223  0.00  0.00    +0.401 HD
ENDBRANCH  20  21
BRANCH  24  25
ATOM     25  O   UNL     1       4.862   2.432   9.435  0.00  0.00    -0.481 OA
ATOM     26  H   UNL     1       5.524   2.470   8.732  0.00  0.00    +0.399 HD
ENDBRANCH  24  25
ENDBRANCH  16  17
BRANCH   8   9
ATOM      9  O   UNL     1       3.057  -1.238   4.652  0.00  0.00    -0.484 OA
ATOM     10  H   UNL     1       3.690  -1.107   3.933  0.00  0.00    +0.401 HD
ENDBRANCH   8   9
BRANCH  29  30
ATOM     30  O   UNL     1      -0.378   2.040   4.453  0.00  0.00    -0.469 OA
ATOM     31  H   UNL     1      -1.186   1.717   4.875  0.00  0.00    +0.400 HD
ENDBRANCH  29  30
BRANCH   7   6
ATOM      6  C   UNL     1       0.680  -0.362   3.419  0.00  0.00    +0.096 C 
BRANCH   6   5
ATOM      5  C   UNL     1       1.237   0.135   2.084  0.00  0.00    +0.056 C 
BRANCH   5   4
ATOM      1  C   UNL     1      -0.060   1.539   0.015  0.00  0.00    +0.073 C 
ATOM      2  C   UNL     1      -0.018   0.033  -0.007  0.00  0.00    -0.126 C 
ATOM      3  C   UNL     1      -0.670  -0.723  -1.137  0.00  0.00    +0.072 C 
ATOM      4  C   UNL     1       0.585  -0.620   0.955  0.00  0.00    -0.062 C 
ENDBRANCH   5   4
ENDBRANCH   6   5
ENDBRANCH   7   6
TORSDOF 8
