REMARK  Name = ZINC14815320
REMARK  5 active torsions:
REMARK  status: ('A' for Active; 'I' for Inactive)
REMARK    1  A    between atoms: C1_1  and  C2_2
REMARK    2  A    between atoms: C4_4  and  O5_20
REMARK    3  A    between atoms: C10_11  and  O4_19
REMARK    4  A    between atoms: C12_13  and  O3_17
REMARK    5  A    between atoms: O3_17  and  C15_18
REMARK                            x       y       z     vdW  Elec       q    Type
REMARK                         _______ _______ _______ _____ _____    ______ ____
ROOT
ATOM      1  C   UNL     1      -4.917   5.508   0.079  0.00  0.00    +0.120 C 
ATOM      2  C   UNL     1      -3.557   6.158   0.069  0.00  0.00    +0.028 A 
ATOM      3  C   UNL     1      -3.450   7.520   0.041  0.00  0.00    -0.039 A 
ATOM      4  C   UNL     1      -2.195   8.123   0.034  0.00  0.00    +0.184 A 
ATOM      7  C   UNL     1      -1.043   7.355   0.053  0.00  0.00    -0.033 A 
ATOM      8  C   UNL     1      -1.134   5.969   0.081  0.00  0.00    +0.185 A 
ATOM      9  O   UNL     1      -0.013   5.220   0.102  0.00  0.00    -0.225 OA
ATOM     10  C   UNL     1      -0.019   3.871   0.129  0.00  0.00    +0.221 A 
ATOM     11  C   UNL     1       1.181   3.175   0.148  0.00  0.00    -0.041 A 
ATOM     12  C   UNL     1       1.183   1.789   0.177  0.00  0.00    +0.215 A 
ATOM     15  C   UNL     1      -0.012   1.077   0.188  0.00  0.00    -0.123 A 
ATOM     16  C   UNL     1      -1.219   1.752   0.164  0.00  0.00    +0.246 A 
ATOM     19  C   UNL     1      -1.227   3.153   0.140  0.00  0.00    -0.298 A 
ATOM     20  C   UNL     1      -2.498   3.898   0.120  0.00  0.00    +0.442 A 
ATOM     21  O   UNL     1      -3.573   3.326   0.128  0.00  0.00    -0.436 OA
ATOM     22  C   UNL     1      -2.405   5.371   0.089  0.00  0.00    -0.242 A 
ENDROOT
BRANCH   4   5
ATOM      5  O   UNL     1      -2.100   9.477   0.006  0.00  0.00    -0.490 OA
ATOM      6  H   UNL     1      -2.076   9.887   0.881  0.00  0.00    +0.402 HD
ENDBRANCH   4   5
BRANCH  12  13
ATOM     13  O   UNL     1       2.363   1.119   0.195  0.00  0.00    -0.303 OA
ATOM     14  C   UNL     1       2.299  -0.308   0.225  0.00  0.00    +0.257 C 
ENDBRANCH  12  13
BRANCH  16  17
ATOM     17  O   UNL     1      -2.387   1.061   0.169  0.00  0.00    -0.474 OA
ATOM     18  H   UNL     1      -2.732   0.880   1.054  0.00  0.00    +0.404 HD
ENDBRANCH  16  17
TORSDOF 3
