REMARK  Name = ZINC95486027
REMARK  8 active torsions:
REMARK  status: ('A' for Active; 'I' for Inactive)
REMARK    1  A    between atoms: C1_1  and  C2_2
REMARK    2  A    between atoms: C2_2  and  C18_20
REMARK    3  A    between atoms: C3_3  and  C4_4
REMARK    4  A    between atoms: C4_4  and  C5_5
REMARK    5  A    between atoms: C12_14  and  C13_15
REMARK    6  A    between atoms: C13_15  and  C14_16
REMARK    7  A    between atoms: C13_15  and  C15_17
REMARK    8  A    between atoms: C13_15  and  C16_18
REMARK                            x       y       z     vdW  Elec       q    Type
REMARK                         _______ _______ _______ _____ _____    ______ ____
ROOT
ATOM      6  C   UNL     1      -0.864  -0.562   3.381  0.00  0.00    -0.052 A 
ATOM      7  C   UNL     1      -2.182  -0.127   3.394  0.00  0.00    -0.020 A 
ATOM      8  C   UNL     1      -3.092  -0.695   4.240  0.00  0.00    +0.051 A 
ATOM      9  C   UNL     1      -2.693  -1.722   5.099  0.00  0.00    -0.099 A 
ATOM     10  C   UNL     1      -1.359  -2.167   5.089  0.00  0.00    +0.099 A 
ATOM     11  N   UNL     1      -1.258  -3.172   6.024  0.00  0.00    -0.596 N 
ATOM     12  C   UNL     1      -2.473  -3.375   6.620  0.00  0.00    +0.218 A 
ATOM     13  H   UNL     1      -0.447  -3.662   6.231  0.00  0.00    +0.415 HD
ATOM     14  C   UNL     1      -3.382  -2.532   6.106  0.00  0.00    -0.151 A 
ATOM     20  C   UNL     1      -0.451  -1.577   4.215  0.00  0.00    -0.011 A 
ENDROOT
BRANCH  14  15
ATOM     15  C   UNL     1      -4.836  -2.436   6.493  0.00  0.00    +0.038 C 
ATOM     18  C   UNL     1      -5.132  -1.030   7.019  0.00  0.00    +0.038 C 
ATOM     19  C   UNL     1      -5.142  -3.464   7.584  0.00  0.00    +0.033 C 
BRANCH  15  16
ATOM     16  C   UNL     1      -5.696  -2.713   5.286  0.00  0.00    -0.027 C 
ATOM     17  C   UNL     1      -6.539  -3.715   5.299  0.00  0.00    -0.004 C 
ENDBRANCH  15  16
ENDBRANCH  14  15
BRANCH   6   5
ATOM      5  C   UNL     1       0.123   0.078   2.439  0.00  0.00    +0.107 C 
BRANCH   5   4
ATOM      1  C   UNL     1      -0.199   1.488   0.018  0.00  0.00    +0.073 C 
ATOM      2  C   UNL     1      -0.087  -0.015   0.008  0.00  0.00    -0.131 C 
ATOM      3  C   UNL     1      -0.212  -0.772  -1.289  0.00  0.00    +0.072 C 
ATOM      4  C   UNL     1       0.121  -0.664   1.128  0.00  0.00    -0.052 C 
ENDBRANCH   5   4
ENDBRANCH   6   5
TORSDOF 4
