REMARK  Name = ZINC95485930
REMARK  14 active torsions:
REMARK  status: ('A' for Active; 'I' for Inactive)
REMARK    1  A    between atoms: C1_1  and  O1_2
REMARK    2  A    between atoms: O1_2  and  C2_3
REMARK    3  A    between atoms: C3_4  and  C22_37
REMARK    4  A    between atoms: C12_15  and  O9_32
REMARK    5  A    between atoms: C13_16  and  O4_18
REMARK    6  A    between atoms: O4_18  and  C15_19
REMARK    7  A    between atoms: C16_21  and  O8_31
REMARK    8  A    between atoms: C17_23  and  O7_30
REMARK    9  A    between atoms: C18_25  and  O6_29
REMARK   10  A    between atoms: O9_32  and  C20_33
REMARK   11  A    between atoms: C22_37  and  C23_39
REMARK   12  A    between atoms: C25_41  and  O15_47
REMARK   13  A    between atoms: C26_42  and  O14_46
REMARK   14  A    between atoms: C27_43  and  O13_45
REMARK                            x       y       z     vdW  Elec       q    Type
REMARK                         _______ _______ _______ _____ _____    ______ ____
ROOT
ATOM      3  C   UNL     1      -0.903  -0.375   0.031  0.00  0.00    +0.172 A 
ATOM      4  C   UNL     1      -1.656  -0.824   1.131  0.00  0.00    -0.146 A 
ATOM     19  C   UNL     1      -2.882  -1.475   0.958  0.00  0.00    +0.169 A 
ATOM     20  C   UNL     1      -3.360  -1.682  -0.325  0.00  0.00    -0.138 A 
ATOM     21  C   UNL     1      -2.597  -1.222  -1.423  0.00  0.00    -0.041 A 
ATOM     22  C   UNL     1      -3.137  -1.454  -2.768  0.00  0.00    -0.109 A 
ATOM     23  C   UNL     1      -4.435  -1.934  -2.929  0.00  0.00    +0.156 A 
ATOM     24  O   UNL     1      -5.212  -2.147  -1.837  0.00  0.00    -0.259 OA
ATOM     25  C   UNL     1      -4.897  -2.146  -4.224  0.00  0.00    +0.106 A 
ATOM     28  C   UNL     1      -4.077  -1.860  -5.316  0.00  0.00    +0.151 A 
ATOM     42  C   UNL     1      -2.799  -1.349  -5.151  0.00  0.00    +0.053 A 
ATOM     43  C   UNL     1      -2.309  -1.149  -3.868  0.00  0.00    -0.093 A 
ATOM     44  C   UNL     1      -0.956  -0.654  -3.562  0.00  0.00    +0.538 A 
ATOM     45  O   UNL     1      -0.063  -0.751  -4.381  0.00  0.00    -0.409 OA
ATOM     46  O   UNL     1      -0.724  -0.090  -2.352  0.00  0.00    -0.260 OA
ATOM     47  C   UNL     1      -4.622  -2.373  -0.637  0.00  0.00    +0.539 A 
ATOM     48  O   UNL     1      -5.127  -3.133   0.166  0.00  0.00    -0.404 OA
ATOM     49  C   UNL     1      -1.383  -0.559  -1.262  0.00  0.00    +0.108 A 
ENDROOT
BRANCH   3   2
ATOM      1  C   UNL     1       0.264   1.662   0.387  0.00  0.00    +0.255 C 
ATOM      2  O   UNL     1       0.288   0.242   0.231  0.00  0.00    -0.318 OA
ENDBRANCH   3   2
BRANCH   4   5
ATOM      5  C   UNL     1      -1.142  -0.605   2.496  0.00  0.00    +0.458 C 
ATOM     18  O   UNL     1      -1.623   0.267   3.194  0.00  0.00    -0.417 OA
BRANCH   5   6
ATOM      6  C   UNL     1      -0.043  -1.442   3.014  0.00  0.00    -0.140 A 
ATOM      7  C   UNL     1       0.438  -2.514   2.255  0.00  0.00    +0.063 A 
ATOM      8  C   UNL     1       1.467  -3.297   2.743  0.00  0.00    +0.088 A 
ATOM     11  C   UNL     1       2.024  -3.020   3.989  0.00  0.00    +0.096 A 
ATOM     14  C   UNL     1       1.546  -1.953   4.747  0.00  0.00    +0.087 A 
ATOM     17  C   UNL     1       0.522  -1.163   4.262  0.00  0.00    +0.077 A 
BRANCH   8   9
ATOM      9  O   UNL     1       1.936  -4.339   2.006  0.00  0.00    -0.479 OA
ATOM     10  H   UNL     1       2.661  -4.105   1.410  0.00  0.00    +0.393 HD
ENDBRANCH   8   9
BRANCH  11  12
ATOM     12  O   UNL     1       3.035  -3.792   4.467  0.00  0.00    -0.473 OA
ATOM     13  H   UNL     1       3.917  -3.480   4.223  0.00  0.00    +0.392 HD
ENDBRANCH  11  12
BRANCH  14  15
ATOM     15  O   UNL     1       2.093  -1.686   5.964  0.00  0.00    -0.479 OA
ATOM     16  H   UNL     1       2.840  -1.073   5.933  0.00  0.00    +0.393 HD
ENDBRANCH  14  15
ENDBRANCH   5   6
ENDBRANCH   4   5
BRANCH  25  26
ATOM     26  O   UNL     1      -6.150  -2.632  -4.426  0.00  0.00    -0.307 OA
ATOM     27  C   UNL     1      -7.204  -1.676  -4.554  0.00  0.00    +0.245 C 
ENDBRANCH  25  26
BRANCH  28  29
ATOM     29  O   UNL     1      -4.550  -2.068  -6.573  0.00  0.00    -0.271 OA
BRANCH  29  30
ATOM     30  C   UNL     1      -3.671  -1.760  -7.657  0.00  0.00    +0.306 C 
ATOM     31  C   UNL     1      -4.326  -2.172  -8.978  0.00  0.00    +0.195 C 
ATOM     34  C   UNL     1      -3.404  -1.783 -10.138  0.00  0.00    +0.201 C 
ATOM     37  C   UNL     1      -3.125  -0.279 -10.072  0.00  0.00    +0.122 C 
ATOM     40  C   UNL     1      -2.517   0.060  -8.709  0.00  0.00    +0.227 C 
ATOM     41  O   UNL     1      -3.410  -0.355  -7.674  0.00  0.00    -0.387 OA
BRANCH  31  32
ATOM     32  O   UNL     1      -4.536  -3.585  -8.986  0.00  0.00    -0.538 OA
ATOM     33  H   UNL     1      -5.109  -3.902  -8.274  0.00  0.00    +0.393 HD
ENDBRANCH  31  32
BRANCH  34  35
ATOM     35  O   UNL     1      -4.039  -2.100 -11.379  0.00  0.00    -0.544 OA
ATOM     36  H   UNL     1      -3.510  -1.880 -12.158  0.00  0.00    +0.392 HD
ENDBRANCH  34  35
BRANCH  37  38
ATOM     38  O   UNL     1      -2.209   0.083 -11.108  0.00  0.00    -0.554 OA
ATOM     39  H   UNL     1      -1.987   1.024 -11.126  0.00  0.00    +0.392 HD
ENDBRANCH  37  38
ENDBRANCH  29  30
ENDBRANCH  28  29
TORSDOF 12
