REMARK  Name = ZINC00035525
REMARK  6 active torsions:
REMARK  status: ('A' for Active; 'I' for Inactive)
REMARK    1  A    between atoms: C1_1  and  O1_2
REMARK    2  A    between atoms: O1_2  and  C2_3
REMARK    3  A    between atoms: C7_8  and  O2_9
REMARK    4  A    between atoms: O2_9  and  C8_10
REMARK    5  A    between atoms: C11_14  and  O3_15
REMARK    6  A    between atoms: O3_15  and  C12_16
REMARK                            x       y       z     vdW  Elec       q    Type
REMARK                         _______ _______ _______ _____ _____    ______ ____
ROOT
ATOM      3  C   UNL     1       0.606  -0.607  -1.056  0.00  0.00    +0.142 A 
ATOM      4  C   UNL     1       1.174   0.175  -2.065  0.00  0.00    -0.040 A 
ATOM      5  C   UNL     1       1.785  -0.403  -3.135  0.00  0.00    +0.102 A 
ATOM      6  C   UNL     1       1.849  -1.803  -3.233  0.00  0.00    -0.156 A 
ATOM      7  C   UNL     1       1.277  -2.610  -2.218  0.00  0.00    +0.207 A 
ATOM      8  N   UNL     1       1.331  -3.943  -2.298  0.00  0.00    -0.468 NA
ATOM      9  C   UNL     1       1.909  -4.558  -3.313  0.00  0.00    +0.322 A 
ATOM     10  C   UNL     1       2.499  -3.818  -4.360  0.00  0.00    -0.209 A 
ATOM     11  C   UNL     1       3.035  -4.814  -5.296  0.00  0.00    -0.028 A 
ATOM     12  C   UNL     1       2.745  -6.011  -4.772  0.00  0.00    +0.247 A 
ATOM     13  O   UNL     1       2.084  -5.864  -3.609  0.00  0.00    -0.191 OA
ATOM     14  C   UNL     1       2.475  -2.426  -4.332  0.00  0.00    +0.222 A 
ATOM     17  C   UNL     1       0.656  -1.984  -1.118  0.00  0.00    +0.062 A 
ENDROOT
BRANCH   3   2
ATOM      1  C   UNL     1      -0.017   1.425   0.010  0.00  0.00    +0.246 C 
ATOM      2  O   UNL     1       0.002  -0.004   0.002  0.00  0.00    -0.298 OA
ENDBRANCH   3   2
BRANCH  14  15
ATOM     15  O   UNL     1       3.035  -1.695  -5.327  0.00  0.00    -0.326 OA
ATOM     16  C   UNL     1       4.411  -1.339  -5.176  0.00  0.00    +0.248 C 
ENDBRANCH  14  15
BRANCH  17  18
ATOM     18  O   UNL     1       0.103  -2.734  -0.127  0.00  0.00    -0.304 OA
ATOM     19  C   UNL     1      -1.269  -3.103  -0.281  0.00  0.00    +0.222 C 
ENDBRANCH  17  18
TORSDOF 3
