REMARK  Name = ZINC95486029
REMARK  6 active torsions:
REMARK  status: ('A' for Active; 'I' for Inactive)
REMARK    1  A    between atoms: C1_1  and  O1_2
REMARK    2  A    between atoms: O1_2  and  C2_3
REMARK    3  A    between atoms: C4_5  and  O4_18
REMARK    4  A    between atoms: C9_12  and  O2_13
REMARK    5  A    between atoms: O2_13  and  C10_14
REMARK    6  A    between atoms: O4_18  and  C13_19
REMARK                            x       y       z     vdW  Elec       q    Type
REMARK                         _______ _______ _______ _____ _____    ______ ____
ROOT
ATOM      3  C   UNL     1      -1.198  -0.636   0.010  0.00  0.00    +0.230 A 
ATOM      4  C   UNL     1      -2.368   0.076   0.019  0.00  0.00    -0.107 A 
ATOM      5  C   UNL     1      -3.592  -0.595   0.028  0.00  0.00    +0.379 A 
ATOM      8  N   UNL     1      -3.655  -1.910   0.025  0.00  0.00    -0.534 NA
ATOM      9  C   UNL     1      -2.548  -2.659   0.014  0.00  0.00    +0.117 A 
ATOM     10  C   UNL     1      -2.620  -4.073   0.004  0.00  0.00    +0.193 A 
ATOM     13  C   UNL     1      -1.452  -4.777  -0.025  0.00  0.00    -0.199 A 
ATOM     14  C   UNL     1      -1.164  -6.265  -0.065  0.00  0.00    +0.103 C 
ATOM     15  C   UNL     1       0.328  -6.290  -0.473  0.00  0.00    +0.261 C 
ATOM     16  O   UNL     1       0.808  -5.016  -0.013  0.00  0.00    -0.283 OA
ATOM     17  C   UNL     1      -0.216  -4.120  -0.016  0.00  0.00    +0.338 A 
ATOM     18  N   UNL     1      -0.168  -2.797  -0.005  0.00  0.00    -0.455 NA
ATOM     19  C   UNL     1      -1.275  -2.050   0.003  0.00  0.00    +0.087 A 
ENDROOT
BRANCH   3   2
ATOM      1  C   UNL     1      -0.017   1.425   0.010  0.00  0.00    +0.257 C 
ATOM      2  O   UNL     1       0.002  -0.004   0.002  0.00  0.00    -0.278 OA
ENDBRANCH   3   2
BRANCH   5   6
ATOM      6  O   UNL     1      -4.742   0.124   0.039  0.00  0.00    -0.301 OA
ATOM      7  C   UNL     1      -5.967  -0.612   0.047  0.00  0.00    +0.263 C 
ENDBRANCH   5   6
BRANCH  10  11
ATOM     11  O   UNL     1      -3.818  -4.710   0.005  0.00  0.00    -0.314 OA
ATOM     12  C   UNL     1      -4.397  -5.005  -1.267  0.00  0.00    +0.241 C 
ENDBRANCH  10  11
TORSDOF 3
