REMARK  Name = ZINC14584515
REMARK  8 active torsions:
REMARK  status: ('A' for Active; 'I' for Inactive)
REMARK    1  A    between atoms: C1_1  and  C2_2
REMARK    2  A    between atoms: C2_2  and  C23_28
REMARK    3  A    between atoms: C6_6  and  O5_27
REMARK    4  A    between atoms: C13_14  and  O4_26
REMARK    5  A    between atoms: C16_18  and  C18_21
REMARK    6  A    between atoms: C18_21  and  C19_22
REMARK    7  A    between atoms: C18_21  and  C20_23
REMARK    8  A    between atoms: C18_21  and  C21_24
REMARK                            x       y       z     vdW  Elec       q    Type
REMARK                         _______ _______ _______ _____ _____    ______ ____
ROOT
ATOM      1  C   UNL     1      -8.153   2.721  -1.133  0.00  0.00    +0.086 C 
ATOM      2  C   UNL     1      -6.874   1.890  -1.250  0.00  0.00    +0.133 C 
ATOM      3  C   UNL     1      -6.357   1.958  -2.688  0.00  0.00    +0.037 C 
ATOM      4  C   UNL     1      -7.180   0.457  -0.901  0.00  0.00    -0.050 C 
ATOM      5  C   UNL     1      -6.228  -0.321  -0.387  0.00  0.00    +0.055 C 
ATOM      6  C   UNL     1      -4.892   0.271  -0.166  0.00  0.00    -0.193 A 
ATOM      7  C   UNL     1      -3.771  -0.528   0.037  0.00  0.00    +0.246 A 
ATOM     10  C   UNL     1      -2.526   0.082   0.242  0.00  0.00    -0.291 A 
ATOM     11  C   UNL     1      -1.319  -0.732   0.457  0.00  0.00    +0.442 A 
ATOM     12  C   UNL     1      -0.051  -0.001   0.667  0.00  0.00    -0.213 A 
ATOM     13  C   UNL     1       1.144  -0.689   0.877  0.00  0.00    +0.109 A 
ATOM     14  C   UNL     1       2.313   0.014   1.071  0.00  0.00    +0.008 A 
ATOM     15  C   UNL     1       2.303   1.400   1.059  0.00  0.00    +0.067 A 
ATOM     16  C   UNL     1       1.126   2.095   0.851  0.00  0.00    +0.086 A 
ATOM     19  C   UNL     1      -0.069   1.400   0.651  0.00  0.00    +0.132 A 
ATOM     20  O   UNL     1      -1.216   2.080   0.443  0.00  0.00    -0.202 OA
ATOM     21  O   UNL     1      -1.361  -1.949   0.460  0.00  0.00    -0.435 OA
ATOM     22  C   UNL     1      -2.410   1.484   0.247  0.00  0.00    +0.222 A 
ATOM     23  C   UNL     1      -3.541   2.266   0.042  0.00  0.00    -0.141 A 
ATOM     29  C   UNL     1      -4.771   1.672  -0.164  0.00  0.00    +0.218 A 
ATOM     30  O   UNL     1      -5.885   2.421  -0.367  0.00  0.00    -0.272 OA
ENDROOT
BRANCH  23  24
ATOM     24  C   UNL     1      -3.425   3.769   0.044  0.00  0.00    +0.021 C 
ATOM     27  C   UNL     1      -2.767   4.227   1.347  0.00  0.00    +0.045 C 
ATOM     28  C   UNL     1      -4.819   4.388  -0.069  0.00  0.00    +0.064 C 
BRANCH  24  25
ATOM     25  C   UNL     1      -2.583   4.209  -1.126  0.00  0.00    -0.019 C 
ATOM     26  C   UNL     1      -2.087   3.318  -1.947  0.00  0.00    -0.002 C 
ENDBRANCH  24  25
ENDBRANCH  23  24
BRANCH   7   8
ATOM      8  O   UNL     1      -3.882  -1.879   0.035  0.00  0.00    -0.469 OA
ATOM      9  H   UNL     1      -4.062  -2.261   0.905  0.00  0.00    +0.402 HD
ENDBRANCH   7   8
BRANCH  16  17
ATOM     17  O   UNL     1       1.132   3.454   0.840  0.00  0.00    -0.478 OA
ATOM     18  H   UNL     1       0.984   3.855   1.708  0.00  0.00    +0.391 HD
ENDBRANCH  16  17
TORSDOF 4
