REMARK  Name = ZINC15250727
REMARK  6 active torsions:
REMARK  status: ('A' for Active; 'I' for Inactive)
REMARK    1  A    between atoms: C1_1  and  C2_2
REMARK    2  A    between atoms: C6_6  and  C19_25
REMARK    3  A    between atoms: C6_6  and  C20_26
REMARK    4  A    between atoms: C10_11  and  C18_23
REMARK    5  A    between atoms: C14_16  and  C17_21
REMARK    6  A    between atoms: C16_18  and  O1_20
REMARK                            x       y       z     vdW  Elec       q    Type
REMARK                         _______ _______ _______ _____ _____    ______ ____
ROOT
ATOM      1  C   UNL     1       0.039   1.512  -0.005  0.00  0.00    +0.026 C 
ATOM      2  C   UNL     1       0.050  -0.016  -0.005  0.00  0.00    -0.040 C 
ATOM      3  C   UNL     1      -1.419  -0.451   0.159  0.00  0.00    +0.022 C 
ATOM      4  C   UNL     1      -1.960   0.137   1.467  0.00  0.00    +0.001 C 
ATOM      5  C   UNL     1      -1.195  -0.450   2.646  0.00  0.00    +0.010 C 
ATOM      6  C   UNL     1       0.317  -0.282   2.525  0.00  0.00    -0.048 C 
ATOM      7  C   UNL     1       0.730   1.111   2.997  0.00  0.00    +0.021 C 
ATOM      8  C   UNL     1       0.942  -1.292   3.525  0.00  0.00    +0.010 C 
ATOM      9  C   UNL     1       0.598  -0.569  -1.337  0.00  0.00    +0.045 C 
ATOM     10  C   UNL     1       0.289  -2.073  -1.329  0.00  0.00    +0.063 C 
ATOM     11  C   UNL     1       0.108  -2.559  -2.753  0.00  0.00    +0.066 C 
ATOM     12  C   UNL     1       1.179  -2.746  -3.503  0.00  0.00    -0.230 C 
ATOM     15  C   UNL     1       2.539  -2.430  -2.905  0.00  0.00    +0.069 C 
ATOM     16  C   UNL     1       2.649  -0.917  -2.793  0.00  0.00    +0.178 C 
ATOM     19  C   UNL     1       2.086  -0.357  -1.480  0.00  0.00    -0.099 C 
ATOM     22  C   UNL     1       2.860  -0.935  -0.311  0.00  0.00    +0.044 C 
ATOM     23  C   UNL     1       2.336  -0.340   1.007  0.00  0.00    +0.021 C 
ATOM     24  C   UNL     1       0.844  -0.620   1.144  0.00  0.00    +0.003 C 
ENDROOT
BRANCH  12  13
ATOM     13  C   UNL     1       1.065  -3.245  -4.868  0.00  0.00    +0.476 C 
ATOM     14  O   UNL     1       2.063  -3.409  -5.539  0.00  0.00    -0.459 OA
ENDBRANCH  12  13
BRANCH  16  17
ATOM     17  O   UNL     1       4.020  -0.527  -2.898  0.00  0.00    -0.565 OA
ATOM     18  H   UNL     1       4.457  -0.839  -3.702  0.00  0.00    +0.386 HD
ENDBRANCH  16  17
BRANCH  19  20
ATOM     20  C   UNL     1       2.446   1.107  -1.597  0.00  0.00    +0.447 C 
ATOM     21  O   UNL     1       3.231   1.599  -0.823  0.00  0.00    -0.444 OA
ENDBRANCH  19  20
TORSDOF 3
