REMARK  Name = ZINC95486100
REMARK  3 active torsions:
REMARK  status: ('A' for Active; 'I' for Inactive)
REMARK    1  A    between atoms: C2_2  and  C3_3
REMARK    2  A    between atoms: C4_5  and  C16_26
REMARK    3  A    between atoms: C8_11  and  O3_20
REMARK                            x       y       z     vdW  Elec       q    Type
REMARK                         _______ _______ _______ _____ _____    ______ ____
ROOT
ATOM      3  C   UNL     1       1.318  -0.736  -0.009  0.00  0.00    +0.224 C 
ATOM      4  C   UNL     1       1.479  -1.529   1.288  0.00  0.00    -0.048 C 
ATOM      7  C   UNL     1       1.382  -0.615   2.498  0.00  0.00    +0.047 C 
ATOM      8  C   UNL     1       2.454   0.476   2.469  0.00  0.00    +0.229 C 
ATOM      9  C   UNL     1       3.852  -0.143   2.264  0.00  0.00    -0.011 C 
ATOM     10  C   UNL     1       4.113  -0.764   3.622  0.00  0.00    -0.222 C 
ATOM     11  C   UNL     1       3.225  -0.010   4.537  0.00  0.00    +0.504 C 
ATOM     12  O   UNL     1       3.101  -0.221   5.727  0.00  0.00    -0.442 OA
ATOM     13  C   UNL     1       4.947  -1.757   3.922  0.00  0.00    +0.210 C 
ATOM     14  C   UNL     1       3.910  -1.149   1.145  0.00  0.00    +0.187 C 
ATOM     17  O   UNL     1       2.560   0.968   3.836  0.00  0.00    -0.336 OA
ATOM     18  C   UNL     1       2.849  -2.227   1.287  0.00  0.00    +0.090 C 
ATOM     19  C   UNL     1       2.899  -3.085   0.030  0.00  0.00    -0.203 C 
ATOM     20  C   UNL     1       2.438  -2.431  -1.219  0.00  0.00    +0.521 C 
ATOM     21  O   UNL     1       3.014  -2.600  -2.276  0.00  0.00    -0.441 OA
ATOM     22  C   UNL     1       3.330  -4.344   0.051  0.00  0.00    +0.169 C 
ATOM     23  O   UNL     1       1.342  -1.635  -1.124  0.00  0.00    -0.349 OA
ENDROOT
BRANCH   3   2
ATOM      1  C   UNL     1      -0.021   1.299  -0.172  0.00  0.00    +0.062 C 
ATOM      2  C   UNL     1       0.005   0.002   0.013  0.00  0.00    -0.032 C 
ENDBRANCH   3   2
BRANCH   4   5
ATOM      5  C   UNL     1       0.391  -2.568   1.374  0.00  0.00    -0.026 C 
ATOM      6  C   UNL     1      -0.514  -2.491   2.318  0.00  0.00    +0.031 C 
ENDBRANCH   4   5
BRANCH  14  15
ATOM     15  O   UNL     1       5.195  -1.774   1.149  0.00  0.00    -0.549 OA
ATOM     16  H   UNL     1       5.931  -1.160   1.024  0.00  0.00    +0.384 HD
ENDBRANCH  14  15
TORSDOF 3
