REMARK  Name = ZINC95486266
REMARK  6 active torsions:
REMARK  status: ('A' for Active; 'I' for Inactive)
REMARK    1  A    between atoms: C1_1  and  O1_2
REMARK    2  A    between atoms: O1_2  and  C2_3
REMARK    3  A    between atoms: C5_6  and  C8_9
REMARK    4  A    between atoms: C8_9  and  O6_22
REMARK    5  A    between atoms: C12_14  and  O5_21
REMARK    6  A    between atoms: C14_16  and  O4_20
REMARK                            x       y       z     vdW  Elec       q    Type
REMARK                         _______ _______ _______ _____ _____    ______ ____
ROOT
ATOM      7  C   UNL     1      -4.981  -2.629   0.035  0.00  0.00    +0.116 C 
ATOM     10  C   UNL     1      -4.819  -4.052   0.591  0.00  0.00    +0.260 C 
ATOM     11  O   UNL     1      -3.921  -4.784  -0.242  0.00  0.00    -0.288 OA
ATOM     12  C   UNL     1      -4.159  -4.828  -1.574  0.00  0.00    +0.208 A 
ATOM     13  C   UNL     1      -3.633  -5.857  -2.336  0.00  0.00    -0.049 A 
ATOM     14  C   UNL     1      -3.869  -5.904  -3.704  0.00  0.00    +0.201 A 
ATOM     17  C   UNL     1      -4.631  -4.922  -4.326  0.00  0.00    -0.071 A 
ATOM     18  C   UNL     1      -5.168  -3.886  -3.583  0.00  0.00    +0.224 A 
ATOM     21  C   UNL     1      -4.937  -3.837  -2.199  0.00  0.00    -0.296 A 
ATOM     22  C   UNL     1      -5.507  -2.759  -1.383  0.00  0.00    +0.380 C 
ATOM     23  O   UNL     1      -6.355  -2.008  -1.820  0.00  0.00    -0.410 OA
ENDROOT
BRANCH   7   6
ATOM      3  C   UNL     1      -1.200  -0.638   0.010  0.00  0.00    +0.140 A 
ATOM      4  C   UNL     1      -2.119  -0.371   1.014  0.00  0.00    -0.078 A 
ATOM      5  C   UNL     1      -3.341  -1.015   1.020  0.00  0.00    +0.097 A 
ATOM      6  C   UNL     1      -3.648  -1.927   0.026  0.00  0.00    -0.122 A 
ATOM     24  C   UNL     1      -2.733  -2.195  -0.975  0.00  0.00    +0.065 A 
ATOM     25  C   UNL     1      -1.512  -1.548  -0.989  0.00  0.00    -0.013 A 
BRANCH   3   2
ATOM      1  C   UNL     1       0.256   0.920   1.062  0.00  0.00    +0.243 C 
ATOM      2  O   UNL     1       0.002  -0.004   0.002  0.00  0.00    -0.315 OA
ENDBRANCH   3   2
ENDBRANCH   7   6
BRANCH   7   8
ATOM      8  O   UNL     1      -5.912  -1.896   0.834  0.00  0.00    -0.520 OA
ATOM      9  H   UNL     1      -6.791  -2.296   0.881  0.00  0.00    +0.387 HD
ENDBRANCH   7   8
BRANCH  14  15
ATOM     15  O   UNL     1      -3.349  -6.918  -4.441  0.00  0.00    -0.489 OA
ATOM     16  H   UNL     1      -3.928  -7.689  -4.512  0.00  0.00    +0.404 HD
ENDBRANCH  14  15
BRANCH  18  19
ATOM     19  O   UNL     1      -5.910  -2.925  -4.187  0.00  0.00    -0.477 OA
ATOM     20  H   UNL     1      -6.856  -3.124  -4.224  0.00  0.00    +0.404 HD
ENDBRANCH  18  19
TORSDOF 5
