REMARK  Name = ZINC95485931
REMARK  11 active torsions:
REMARK  status: ('A' for Active; 'I' for Inactive)
REMARK    1  A    between atoms: C1_1  and  C2_2
REMARK    2  A    between atoms: C2_2  and  C21_25
REMARK    3  A    between atoms: C3_3  and  C4_4
REMARK    4  A    between atoms: C4_4  and  C5_5
REMARK    5  A    between atoms: C5_5  and  C6_6
REMARK    6  A    between atoms: C7_7  and  O4_24
REMARK    7  A    between atoms: C10_10  and  C12_13
REMARK    8  A    between atoms: C11_11  and  O1_12
REMARK    9  A    between atoms: C12_13  and  C13_15
REMARK   10  A    between atoms: C14_16  and  C15_17
REMARK   11  A    between atoms: C18_20  and  O3_23
REMARK                            x       y       z     vdW  Elec       q    Type
REMARK                         _______ _______ _______ _____ _____    ______ ____
ROOT
ATOM      7  C   UNL     1      -0.876   0.170   4.707  0.00  0.00    -0.150 A 
ATOM      8  C   UNL     1      -0.008  -0.213   5.718  0.00  0.00    +0.156 A 
ATOM     11  C   UNL     1      -0.000   0.468   6.932  0.00  0.00    -0.026 A 
ATOM     12  C   UNL     1      -0.855   1.527   7.138  0.00  0.00    +0.092 A 
ATOM     13  C   UNL     1      -1.734   1.922   6.125  0.00  0.00    -0.198 A 
ATOM     26  C   UNL     1      -1.737   1.237   4.899  0.00  0.00    +0.185 A 
ENDROOT
BRANCH   8   9
ATOM      9  O   UNL     1       0.838  -1.256   5.524  0.00  0.00    -0.491 OA
ATOM     10  H   UNL     1       1.695  -1.004   5.152  0.00  0.00    +0.397 HD
ENDBRANCH   8   9
BRANCH  13  14
ATOM     14  C   UNL     1      -2.652   3.055   6.341  0.00  0.00    +0.423 C 
ATOM     25  O   UNL     1      -3.417   3.397   5.457  0.00  0.00    -0.444 OA
BRANCH  14  15
ATOM     15  C   UNL     1      -2.643   3.769   7.617  0.00  0.00    -0.103 C 
ATOM     16  C   UNL     1      -3.484   4.808   7.816  0.00  0.00    +0.126 C 
BRANCH  16  17
ATOM     17  C   UNL     1      -3.476   5.525   9.098  0.00  0.00    -0.093 A 
ATOM     18  C   UNL     1      -2.593   5.138  10.114  0.00  0.00    +0.052 A 
ATOM     19  C   UNL     1      -2.589   5.814  11.313  0.00  0.00    -0.014 A 
ATOM     20  C   UNL     1      -3.459   6.879  11.516  0.00  0.00    +0.121 A 
ATOM     23  C   UNL     1      -4.338   7.267  10.511  0.00  0.00    -0.014 A 
ATOM     24  C   UNL     1      -4.346   6.602   9.306  0.00  0.00    +0.060 A 
BRANCH  20  21
ATOM     21  O   UNL     1      -3.451   7.542  12.701  0.00  0.00    -0.499 OA
ATOM     22  H   UNL     1      -2.840   8.291  12.728  0.00  0.00    +0.395 HD
ENDBRANCH  20  21
ENDBRANCH  16  17
ENDBRANCH  14  15
ENDBRANCH  13  14
BRANCH  26  27
ATOM     27  O   UNL     1      -2.583   1.616   3.909  0.00  0.00    -0.474 OA
ATOM     28  H   UNL     1      -3.443   1.174   3.936  0.00  0.00    +0.396 HD
ENDBRANCH  26  27
BRANCH   7   6
ATOM      6  C   UNL     1      -0.879  -0.572   3.395  0.00  0.00    +0.091 C 
BRANCH   6   5
ATOM      5  C   UNL     1       0.123   0.078   2.439  0.00  0.00    +0.055 C 
BRANCH   5   4
ATOM      1  C   UNL     1      -0.201   1.487   0.018  0.00  0.00    +0.073 C 
ATOM      2  C   UNL     1      -0.087  -0.015   0.009  0.00  0.00    -0.127 C 
ATOM      3  C   UNL     1      -0.213  -0.772  -1.289  0.00  0.00    +0.072 C 
ATOM      4  C   UNL     1       0.121  -0.664   1.128  0.00  0.00    -0.063 C 
ENDBRANCH   5   4
ENDBRANCH   6   5
ENDBRANCH   7   6
TORSDOF 9
