REMARK  Name = ZINC13372804
REMARK  8 active torsions:
REMARK  status: ('A' for Active; 'I' for Inactive)
REMARK    1  A    between atoms: C1_1  and  N1_2
REMARK    2  A    between atoms: N1_2  and  C3_5
REMARK    3  A    between atoms: C4_6  and  C14_18
REMARK    4  A    between atoms: C16_20  and  O6_27
REMARK    5  A    between atoms: C17_21  and  O5_26
REMARK    6  A    between atoms: C19_23  and  O4_24
REMARK    7  A    between atoms: O4_24  and  C20_25
REMARK    8  A    between atoms: O6_27  and  C21_28
REMARK                            x       y       z     vdW  Elec       q    Type
REMARK                         _______ _______ _______ _____ _____    ______ ____
ROOT
ATOM      3  C   UNL     1      -1.543  -1.641   1.052  0.00  0.00    +0.176 A 
ATOM      4  C   UNL     1      -1.385  -0.607   0.137  0.00  0.00    -0.020 A 
ATOM     17  C   UNL     1      -2.308  -0.432  -0.905  0.00  0.00    +0.039 A 
ATOM     18  C   UNL     1      -3.367  -1.272  -1.049  0.00  0.00    +0.042 A 
ATOM     19  C   UNL     1      -3.559  -2.329  -0.141  0.00  0.00    -0.031 A 
ATOM     20  C   UNL     1      -4.651  -3.203  -0.270  0.00  0.00    +0.048 A 
ATOM     21  C   UNL     1      -4.815  -4.223   0.623  0.00  0.00    +0.047 A 
ATOM     22  O   UNL     1      -5.777  -5.189   0.710  0.00  0.00    -0.306 OA
ATOM     23  C   UNL     1      -5.222  -6.209   1.561  0.00  0.00    +0.434 C 
ATOM     24  O   UNL     1      -4.302  -5.494   2.404  0.00  0.00    -0.306 OA
ATOM     25  C   UNL     1      -3.901  -4.411   1.673  0.00  0.00    +0.047 A 
ATOM     26  C   UNL     1      -2.832  -3.576   1.824  0.00  0.00    +0.046 A 
ATOM     27  C   UNL     1      -2.638  -2.518   0.921  0.00  0.00    -0.032 A 
ENDROOT
BRANCH   4   5
ATOM      5  C   UNL     1      -0.236   0.320   0.266  0.00  0.00    -0.048 A 
ATOM      6  C   UNL     1      -0.450   1.654   0.613  0.00  0.00    +0.008 A 
ATOM      7  C   UNL     1       0.624   2.516   0.733  0.00  0.00    +0.072 A 
ATOM     10  C   UNL     1       1.919   2.055   0.506  0.00  0.00    +0.120 A 
ATOM     13  C   UNL     1       2.135   0.731   0.161  0.00  0.00    -0.054 A 
ATOM     14  C   UNL     1       1.065  -0.139   0.039  0.00  0.00    +0.127 A 
BRANCH   7   8
ATOM      8  O   UNL     1       0.416   3.818   1.071  0.00  0.00    -0.307 OA
ATOM      9  C   UNL     1      -0.937   4.223   1.289  0.00  0.00    +0.240 C 
ENDBRANCH   7   8
BRANCH  10  11
ATOM     11  O   UNL     1       2.972   2.906   0.625  0.00  0.00    -0.484 OA
ATOM     12  H   UNL     1       3.203   3.363  -0.195  0.00  0.00    +0.391 HD
ENDBRANCH  10  11
BRANCH  14  15
ATOM     15  O   UNL     1       1.278  -1.438  -0.299  0.00  0.00    -0.305 OA
ATOM     16  C   UNL     1       2.633  -1.838  -0.516  0.00  0.00    +0.237 C 
ENDBRANCH  14  15
ENDBRANCH   4   5
BRANCH   3   2
ATOM      1  C   UNL     1       0.478  -2.761   1.947  0.00  0.00    +0.300 C 
ATOM      2  N   UNL     1      -0.627  -1.809   2.091  0.00  0.00    -0.579 N 
ATOM     28  C   UNL     1      -0.759  -1.096   3.227  0.00  0.00    +0.632 C 
ATOM     29  O   UNL     1      -1.723  -0.377   3.384  0.00  0.00    -0.531 OA
ENDBRANCH   3   2
TORSDOF 5
