REMARK  Name = ZINC05849017
REMARK  10 active torsions:
REMARK  status: ('A' for Active; 'I' for Inactive)
REMARK    1  A    between atoms: C1_1  and  C2_2
REMARK    2  A    between atoms: C5_5  and  C13_15
REMARK    3  A    between atoms: C8_8  and  O2_14
REMARK    4  A    between atoms: C10_10  and  O1_12
REMARK    5  A    between atoms: O1_12  and  C12_13
REMARK    6  A    between atoms: C14_16  and  O4_30
REMARK    7  A    between atoms: C18_20  and  O3_21
REMARK    8  A    between atoms: O3_21  and  C19_22
REMARK    9  A    between atoms: C20_23  and  C24_29
REMARK   10  A    between atoms: C21_25  and  C23_28
REMARK                            x       y       z     vdW  Elec       q    Type
REMARK                         _______ _______ _______ _____ _____    ______ ____
ROOT
ATOM      6  C   UNL     1       0.013  -2.058  -3.718  0.00  0.00    -0.099 A 
ATOM      7  C   UNL     1       1.216  -1.700  -4.337  0.00  0.00    +0.156 A 
ATOM     10  C   UNL     1       1.205  -1.018  -5.547  0.00  0.00    -0.010 A 
ATOM     11  C   UNL     1       0.011  -0.688  -6.144  0.00  0.00    -0.032 A 
ATOM     12  C   UNL     1      -1.203  -1.039  -5.537  0.00  0.00    -0.143 A 
ATOM     13  C   UNL     1      -2.459  -0.670  -6.208  0.00  0.00    +0.220 C 
ATOM     14  C   UNL     1      -3.744  -1.370  -5.846  0.00  0.00    +0.139 C 
ATOM     15  N   UNL     1      -2.458   0.257  -7.110  0.00  0.00    -0.513 NA
ATOM     16  C   UNL     1      -1.244   0.974  -7.485  0.00  0.00    +0.149 C 
ATOM     17  C   UNL     1      -1.411   1.538  -8.897  0.00  0.00    +0.055 C 
ATOM     18  C   UNL     1      -0.026   0.053  -7.456  0.00  0.00    +0.074 C 
ATOM     19  C   UNL     1      -1.205  -1.730  -4.322  0.00  0.00    +0.168 A 
ENDROOT
BRANCH   6   5
ATOM      1  C   UNL     1      -0.018   1.503   0.010  0.00  0.00    +0.093 C 
ATOM      2  C   UNL     1       0.002  -0.004   0.002  0.00  0.00    -0.030 A 
ATOM      3  C   UNL     1       0.005  -0.668  -1.188  0.00  0.00    -0.031 A 
ATOM      4  C   UNL     1       0.024  -2.071  -1.207  0.00  0.00    +0.024 A 
ATOM      5  C   UNL     1       0.029  -2.785  -2.429  0.00  0.00    -0.045 A 
ATOM     22  C   UNL     1       0.048  -4.169  -2.411  0.00  0.00    +0.064 A 
ATOM     23  C   UNL     1       0.063  -4.864  -1.207  0.00  0.00    -0.026 A 
ATOM     24  C   UNL     1       0.058  -4.194  -0.004  0.00  0.00    +0.150 A 
ATOM     27  C   UNL     1       0.040  -2.785   0.015  0.00  0.00    -0.102 A 
ATOM     28  C   UNL     1       0.036  -2.073   1.231  0.00  0.00    +0.161 A 
ATOM     31  C   UNL     1       0.023  -0.696   1.209  0.00  0.00    -0.098 A 
BRANCH  24  25
ATOM     25  O   UNL     1       0.072  -4.889   1.163  0.00  0.00    -0.481 OA
ATOM     26  H   UNL     1       0.959  -5.079   1.497  0.00  0.00    +0.392 HD
ENDBRANCH  24  25
BRANCH  28  29
ATOM     29  O   UNL     1       0.050  -2.739   2.414  0.00  0.00    -0.295 OA
ATOM     30  C   UNL     1       0.045  -1.948   3.604  0.00  0.00    +0.240 C 
ENDBRANCH  28  29
ENDBRANCH   6   5
BRANCH   7   8
ATOM      8  O   UNL     1       2.398  -2.022  -3.753  0.00  0.00    -0.486 OA
ATOM      9  H   UNL     1       2.745  -2.885  -4.018  0.00  0.00    +0.395 HD
ENDBRANCH   7   8
BRANCH  19  20
ATOM     20  O   UNL     1      -2.377  -2.076  -3.733  0.00  0.00    -0.322 OA
ATOM     21  C   UNL     1      -2.950  -1.133  -2.826  0.00  0.00    +0.232 C 
ENDBRANCH  19  20
TORSDOF 5
