REMARK  Name = ZINC95486273
REMARK  6 active torsions:
REMARK  status: ('A' for Active; 'I' for Inactive)
REMARK    1  A    between atoms: C1_1  and  C2_2
REMARK    2  A    between atoms: C2_2  and  C21_27
REMARK    3  A    between atoms: C8_8  and  O4_24
REMARK    4  A    between atoms: C11_12  and  C14_17
REMARK    5  A    between atoms: C17_20  and  O3_23
REMARK    6  A    between atoms: O4_24  and  C20_25
REMARK                            x       y       z     vdW  Elec       q    Type
REMARK                         _______ _______ _______ _____ _____    ______ ____
ROOT
ATOM      1  C   UNL     1      -0.019   1.526   0.010  0.00  0.00    +0.085 C 
ATOM      2  C   UNL     1       0.002  -0.004   0.002  0.00  0.00    +0.148 C 
ATOM      3  C   UNL     1       0.731  -0.492  -1.252  0.00  0.00    +0.036 C 
ATOM      4  C   UNL     1      -1.413  -0.520  -0.014  0.00  0.00    -0.069 C 
ATOM      5  C   UNL     1      -1.695  -1.705   0.524  0.00  0.00    +0.071 C 
ATOM      6  C   UNL     1      -0.590  -2.472   1.137  0.00  0.00    -0.215 A 
ATOM      7  C   UNL     1       0.605  -1.797   1.441  0.00  0.00    +0.243 A 
ATOM      8  C   UNL     1       1.666  -2.476   2.015  0.00  0.00    -0.133 A 
ATOM      9  C   UNL     1       1.555  -3.829   2.293  0.00  0.00    +0.257 A 
ATOM     12  C   UNL     1       0.366  -4.513   1.992  0.00  0.00    -0.314 A 
ATOM     13  C   UNL     1       0.237  -5.948   2.271  0.00  0.00    +0.404 C 
ATOM     14  O   UNL     1       1.198  -6.631   2.558  0.00  0.00    -0.429 OA
ATOM     15  C   UNL     1      -1.161  -6.535   2.182  0.00  0.00    +0.038 C 
ATOM     16  C   UNL     1      -1.846  -5.893   0.967  0.00  0.00    +0.238 C 
ATOM     25  O   UNL     1      -1.875  -4.476   1.135  0.00  0.00    -0.292 OA
ATOM     26  C   UNL     1      -0.720  -3.830   1.414  0.00  0.00    +0.263 A 
ATOM     27  O   UNL     1       0.694  -0.472   1.160  0.00  0.00    -0.297 OA
ENDROOT
BRANCH  16  17
ATOM     17  C   UNL     1      -3.255  -6.414   0.850  0.00  0.00    -0.101 A 
ATOM     18  C   UNL     1      -4.274  -5.818   1.569  0.00  0.00    +0.060 A 
ATOM     19  C   UNL     1      -5.566  -6.295   1.464  0.00  0.00    -0.013 A 
ATOM     20  C   UNL     1      -5.841  -7.372   0.635  0.00  0.00    +0.116 A 
ATOM     23  C   UNL     1      -4.818  -7.968  -0.087  0.00  0.00    -0.010 A 
ATOM     24  C   UNL     1      -3.528  -7.485   0.018  0.00  0.00    +0.048 A 
BRANCH  20  21
ATOM     21  O   UNL     1      -7.112  -7.843   0.530  0.00  0.00    -0.499 OA
ATOM     22  H   UNL     1      -7.630  -7.425  -0.171  0.00  0.00    +0.394 HD
ENDBRANCH  20  21
ENDBRANCH  16  17
BRANCH   9  10
ATOM     10  O   UNL     1       2.595  -4.493   2.856  0.00  0.00    -0.281 OA
ATOM     11  C   UNL     1       3.773  -3.735   3.135  0.00  0.00    +0.252 C 
ENDBRANCH   9  10
TORSDOF 3
