REMARK  Name = ZINC14517364
REMARK  3 active torsions:
REMARK  status: ('A' for Active; 'I' for Inactive)
REMARK    1  A    between atoms: C1_1  and  C2_2
REMARK    2  A    between atoms: C2_2  and  C3_4
REMARK    3  A    between atoms: C4_5  and  C5_6
REMARK                            x       y       z     vdW  Elec       q    Type
REMARK                         _______ _______ _______ _____ _____    ______ ____
ROOT
ATOM      5  C   UNL     1       0.734   5.605   0.024  0.00  0.00    -0.072 A 
ATOM      6  C   UNL     1      -0.672   5.620   0.037  0.00  0.00    +0.010 A 
ATOM      7  C   UNL     1      -1.372   4.454   0.038  0.00  0.00    +0.052 A 
ATOM      8  C   UNL     1      -0.693   3.229   0.025  0.00  0.00    -0.092 A 
ATOM      9  C   UNL     1      -1.125   1.833   0.017  0.00  0.00    -0.060 A 
ATOM     10  C   UNL     1      -0.013   1.076   0.008  0.00  0.00    +0.235 A 
ATOM     11  N   UNL     1       1.095   1.874   0.002  0.00  0.00    -0.594 N 
ATOM     12  H   UNL     1       2.011   1.557  -0.009  0.00  0.00    +0.418 HD
ATOM     13  C   UNL     1       0.717   3.200   0.012  0.00  0.00    +0.084 A 
ATOM     14  C   UNL     1       1.424   4.391   0.011  0.00  0.00    +0.035 A 
ENDROOT
BRANCH   5   4
ATOM      3  C   UNL     1       0.810   8.050   0.036  0.00  0.00    -0.122 C 
ATOM      4  C   UNL     1       1.478   6.870   0.024  0.00  0.00    +0.142 C 
BRANCH   3   2
ATOM      1  C   UNL     1       0.782  10.574   0.050  0.00  0.00    +0.060 C 
ATOM      2  C   UNL     1       1.524   9.263   0.036  0.00  0.00    +0.380 C 
ATOM     15  O   UNL     1       2.739   9.252   0.025  0.00  0.00    -0.475 OA
ENDBRANCH   3   2
ENDBRANCH   5   4
TORSDOF 2
