REMARK  Name = ZINC53194131
REMARK  2 active torsions:
REMARK  status: ('A' for Active; 'I' for Inactive)
REMARK    1  A    between atoms: C1_1  and  O1_2
REMARK    2  A    between atoms: O1_2  and  C2_3
REMARK                            x       y       z     vdW  Elec       q    Type
REMARK                         _______ _______ _______ _____ _____    ______ ____
ROOT
ATOM      3  C   UNL     1       0.673  -0.582   1.123  0.00  0.00    +0.194 C 
ATOM      4  C   UNL     1       1.333  -1.867   0.670  0.00  0.00    +0.071 C 
ATOM      5  C   UNL     1       1.716  -2.773   1.827  0.00  0.00    +0.199 C 
ATOM      6  C   UNL     1       2.842  -2.168   2.623  0.00  0.00    -0.092 A 
ATOM      7  C   UNL     1       2.541  -1.031   3.376  0.00  0.00    +0.054 A 
ATOM      8  C   UNL     1       3.556  -0.465   4.129  0.00  0.00    +0.029 A 
ATOM      9  C   UNL     1       4.845  -1.020   4.132  0.00  0.00    +0.036 A 
ATOM     10  O   UNL     1       5.635  -0.284   4.946  0.00  0.00    -0.305 OA
ATOM     11  C   UNL     1       4.933   0.962   5.140  0.00  0.00    +0.431 C 
ATOM     12  C   UNL     1       5.135  -2.144   3.379  0.00  0.00    +0.040 A 
ATOM     13  O   UNL     1       3.546   0.619   4.938  0.00  0.00    -0.305 OA
ATOM     14  C   UNL     1       4.108  -2.707   2.615  0.00  0.00    -0.062 A 
ATOM     15  C   UNL     1       4.462  -3.902   1.780  0.00  0.00    +0.053 C 
ATOM     16  C   UNL     1       3.330  -4.425   0.937  0.00  0.00    +0.233 C 
ATOM     17  C   UNL     1       0.513  -2.913   2.748  0.00  0.00    -0.109 C 
ATOM     18  C   UNL     1      -0.403  -1.792   3.017  0.00  0.00    +0.050 C 
ATOM     19  C   UNL     1       0.442  -4.161   3.179  0.00  0.00    +0.007 C 
ATOM     20  C   UNL     1       1.576  -4.955   2.556  0.00  0.00    +0.224 C 
ATOM     21  N   UNL     1       2.006  -4.136   1.399  0.00  0.00    -0.521 NA
ATOM     22  C   UNL     1      -0.310  -0.727   2.233  0.00  0.00    -0.052 C 
ENDROOT
BRANCH   3   2
ATOM      1  C   UNL     1      -0.017   1.425   0.010  0.00  0.00    +0.201 C 
ATOM      2  O   UNL     1       0.002  -0.004   0.002  0.00  0.00    -0.377 OA
ENDBRANCH   3   2
TORSDOF 1
