REMARK  Name = ZINC95485991
REMARK  12 active torsions:
REMARK  status: ('A' for Active; 'I' for Inactive)
REMARK    1  A    between atoms: C1_1  and  C2_2
REMARK    2  A    between atoms: C2_2  and  C26_33
REMARK    3  A    between atoms: C3_3  and  C4_4
REMARK    4  A    between atoms: C4_4  and  C5_5
REMARK    5  A    between atoms: C5_5  and  C6_6
REMARK    6  A    between atoms: C9_10  and  O7_32
REMARK    7  A    between atoms: C14_16  and  C15_17
REMARK    8  A    between atoms: C17_19  and  O5_25
REMARK    9  A    between atoms: C18_20  and  O4_24
REMARK   10  A    between atoms: C20_22  and  O3_23
REMARK   11  A    between atoms: C23_28  and  C24_30
REMARK   12  A    between atoms: C23_28  and  C25_31
REMARK                            x       y       z     vdW  Elec       q    Type
REMARK                         _______ _______ _______ _____ _____    ______ ____
ROOT
ATOM      7  C   UNL     1      -0.930   0.125   4.735  0.00  0.00    -0.233 A 
ATOM      8  C   UNL     1      -0.048  -0.262   5.769  0.00  0.00    +0.429 A 
ATOM      9  C   UNL     1      -0.039   0.555   6.995  0.00  0.00    -0.284 A 
ATOM     10  C   UNL     1       0.804   0.243   8.070  0.00  0.00    +0.239 A 
ATOM     13  C   UNL     1       0.791   1.027   9.211  0.00  0.00    -0.049 A 
ATOM     14  C   UNL     1      -0.054   2.123   9.293  0.00  0.00    +0.215 A 
ATOM     15  C   UNL     1      -0.901   2.445   8.222  0.00  0.00    -0.171 A 
ATOM     16  C   UNL     1      -1.784   3.623   8.353  0.00  0.00    +0.056 C 
ATOM     17  C   UNL     1      -1.511   4.508   9.310  0.00  0.00    -0.047 C 
ATOM     18  C   UNL     1      -0.323   4.298  10.212  0.00  0.00    +0.145 C 
ATOM     19  C   UNL     1      -0.596   4.952  11.568  0.00  0.00    +0.088 C 
ATOM     20  C   UNL     1       0.912   4.944   9.580  0.00  0.00    +0.039 C 
ATOM     21  O   UNL     1      -0.080   2.904  10.403  0.00  0.00    -0.293 OA
ATOM     22  C   UNL     1      -0.899   1.663   7.067  0.00  0.00    +0.210 A 
ATOM     23  O   UNL     1      -1.706   1.954   6.027  0.00  0.00    -0.211 OA
ATOM     24  O   UNL     1       0.679  -1.235   5.651  0.00  0.00    -0.446 OA
ATOM     25  C   UNL     1      -1.721   1.221   4.902  0.00  0.00    +0.184 A 
ENDROOT
BRANCH  25  26
ATOM     26  C   UNL     1      -2.630   1.613   3.812  0.00  0.00    -0.079 A 
ATOM     27  C   UNL     1      -2.425   2.814   3.124  0.00  0.00    +0.066 A 
ATOM     28  C   UNL     1      -3.280   3.176   2.103  0.00  0.00    +0.074 A 
ATOM     31  C   UNL     1      -4.348   2.348   1.756  0.00  0.00    +0.125 A 
ATOM     34  C   UNL     1      -4.556   1.157   2.434  0.00  0.00    -0.011 A 
ATOM     35  C   UNL     1      -3.701   0.780   3.455  0.00  0.00    +0.159 A 
BRANCH  28  29
ATOM     29  O   UNL     1      -3.082   4.344   1.435  0.00  0.00    -0.481 OA
ATOM     30  H   UNL     1      -2.509   4.262   0.660  0.00  0.00    +0.391 HD
ENDBRANCH  28  29
BRANCH  31  32
ATOM     32  O   UNL     1      -5.186   2.710   0.751  0.00  0.00    -0.483 OA
ATOM     33  H   UNL     1      -4.913   2.394  -0.122  0.00  0.00    +0.396 HD
ENDBRANCH  31  32
BRANCH  35  36
ATOM     36  O   UNL     1      -3.902  -0.390   4.115  0.00  0.00    -0.484 OA
ATOM     37  H   UNL     1      -4.537  -0.328   4.841  0.00  0.00    +0.399 HD
ENDBRANCH  35  36
ENDBRANCH  25  26
BRANCH  10  11
ATOM     11  O   UNL     1       1.632  -0.829   7.994  0.00  0.00    -0.470 OA
ATOM     12  H   UNL     1       2.503  -0.628   7.626  0.00  0.00    +0.404 HD
ENDBRANCH  10  11
BRANCH   7   6
ATOM      6  C   UNL     1      -0.990  -0.666   3.453  0.00  0.00    +0.117 C 
BRANCH   6   5
ATOM      5  C   UNL     1       0.104  -0.179   2.501  0.00  0.00    +0.051 C 
BRANCH   5   4
ATOM      1  C   UNL     1       0.009   1.155   0.018  0.00  0.00    +0.069 C 
ATOM      2  C   UNL     1      -0.059  -0.350   0.071  0.00  0.00    -0.138 C 
ATOM      3  C   UNL     1      -0.245  -1.140  -1.199  0.00  0.00    +0.072 C 
ATOM      4  C   UNL     1       0.043  -0.971   1.220  0.00  0.00    -0.048 C 
ENDBRANCH   5   4
ENDBRANCH   6   5
ENDBRANCH   7   6
TORSDOF 8
