REMARK  Name = ZINC95486040
REMARK  12 active torsions:
REMARK  status: ('A' for Active; 'I' for Inactive)
REMARK    1  A    between atoms: C1_1  and  C2_2
REMARK    2  A    between atoms: C4_5  and  O6_33
REMARK    3  A    between atoms: C7_11  and  C8_12
REMARK    4  A    between atoms: C7_11  and  C9_13
REMARK    5  A    between atoms: C9_13  and  C10_14
REMARK    6  A    between atoms: C10_14  and  C11_15
REMARK    7  A    between atoms: C18_24  and  C19_26
REMARK    8  A    between atoms: C19_26  and  O3_27
REMARK    9  A    between atoms: O3_27  and  C20_28
REMARK   10  A    between atoms: C20_28  and  C21_30
REMARK   11  A    between atoms: O6_33  and  C23_34
REMARK   12  A    between atoms: C23_34  and  C24_36
REMARK                            x       y       z     vdW  Elec       q    Type
REMARK                         _______ _______ _______ _____ _____    ______ ____
ROOT
ATOM      1  C   UNL     1       0.312   1.554   0.190  0.00  0.00    +0.026 C 
ATOM      2  C   UNL     1       0.340   0.025   0.175  0.00  0.00    -0.003 C 
ATOM      3  C   UNL     1      -1.093  -0.513   0.185  0.00  0.00    +0.022 C 
ATOM      4  C   UNL     1      -1.810  -0.014   1.441  0.00  0.00    +0.175 C 
ATOM      9  C   UNL     1      -1.075  -0.514   2.688  0.00  0.00    +0.042 C 
ATOM     10  C   UNL     1       0.367  -0.003   2.675  0.00  0.00    +0.015 C 
ATOM     11  C   UNL     1       1.117  -0.531   3.901  0.00  0.00    +0.036 C 
ATOM     12  C   UNL     1       0.465   0.009   5.176  0.00  0.00    +0.054 C 
ATOM     13  C   UNL     1      -1.014  -0.389   5.179  0.00  0.00    +0.030 C 
ATOM     14  C   UNL     1      -1.403  -1.690   5.878  0.00  0.00    +0.178 C 
ATOM     15  O   UNL     1      -1.701  -0.405   6.428  0.00  0.00    -0.332 OA
ATOM     16  C   UNL     1      -1.801   0.012   3.931  0.00  0.00    +0.029 C 
ATOM     22  C   UNL     1       1.079  -0.484   1.414  0.00  0.00    -0.045 C 
ATOM     31  C   UNL     1       2.515   0.045   1.403  0.00  0.00    +0.032 C 
ENDROOT
BRANCH   4   5
ATOM      5  O   UNL     1      -1.828   1.415   1.442  0.00  0.00    -0.331 OA
BRANCH   5   6
ATOM      6  C   UNL     1      -2.877   2.010   0.854  0.00  0.00    +0.454 C 
ATOM      7  C   UNL     1      -2.966   3.514   0.816  0.00  0.00    +0.152 C 
ATOM      8  O   UNL     1      -3.751   1.341   0.354  0.00  0.00    -0.507 OA
ENDBRANCH   5   6
ENDBRANCH   4   5
BRANCH  16  17
ATOM     17  C   UNL     1      -1.894   1.538   3.862  0.00  0.00    +0.225 C 
BRANCH  17  18
ATOM     18  O   UNL     1      -2.465   2.036   5.073  0.00  0.00    -0.346 OA
BRANCH  18  19
ATOM     19  C   UNL     1      -2.617   3.366   5.174  0.00  0.00    +0.459 C 
ATOM     20  C   UNL     1      -3.212   3.964   6.423  0.00  0.00    +0.151 C 
ATOM     21  O   UNL     1      -2.277   4.083   4.263  0.00  0.00    -0.516 OA
ENDBRANCH  18  19
ENDBRANCH  17  18
ENDBRANCH  16  17
BRANCH  22  23
ATOM     23  C   UNL     1       1.103  -2.014   1.399  0.00  0.00    +0.034 C 
BRANCH  23  24
ATOM     24  C   UNL     1       1.821  -2.502   0.139  0.00  0.00    +0.107 C 
BRANCH  24  25
ATOM     25  C   UNL     1       1.844  -4.008   0.125  0.00  0.00    -0.082 C 
ATOM     26  C   UNL     1       0.978  -4.809  -0.492  0.00  0.00    -0.072 C 
ATOM     27  C   UNL     1       1.363  -6.204  -0.253  0.00  0.00    +0.493 C 
ATOM     28  O   UNL     1       2.468  -6.246   0.514  0.00  0.00    -0.321 OA
ATOM     29  O   UNL     1       0.774  -7.175  -0.684  0.00  0.00    -0.454 OA
ATOM     30  C   UNL     1       2.857  -4.900   0.804  0.00  0.00    +0.297 C 
ENDBRANCH  24  25
ENDBRANCH  23  24
ENDBRANCH  22  23
TORSDOF 8
