REMARK  Name = ZINC95486333
REMARK  3 active torsions:
REMARK  status: ('A' for Active; 'I' for Inactive)
REMARK    1  A    between atoms: C1_1  and  N1_2
REMARK    2  A    between atoms: C8_9  and  C17_19
REMARK    3  A    between atoms: N3_26  and  C32_36
REMARK                            x       y       z     vdW  Elec       q    Type
REMARK                         _______ _______ _______ _____ _____    ______ ____
ROOT
ATOM      1  C   UNL     1      -0.017   1.461   0.009  0.00  0.00    +0.368 C 
ATOM      2  N   UNL     1       0.002  -0.004   0.001  0.00  0.00    -0.333 N 
ATOM      3  C   UNL     1      -0.012  -0.637  -1.172  0.00  0.00    +0.142 A 
ATOM      4  C   UNL     1      -0.045   0.083  -2.382  0.00  0.00    +0.015 A 
ATOM      5  C   UNL     1      -0.059  -0.587  -3.566  0.00  0.00    +0.119 A 
ATOM      6  C   UNL     1      -0.041  -1.979  -3.606  0.00  0.00    +0.057 A 
ATOM      7  C   UNL     1      -0.010  -2.710  -2.455  0.00  0.00    +0.087 A 
ATOM      8  C   UNL     1       0.006  -2.054  -1.220  0.00  0.00    -0.045 A 
ATOM      9  C   UNL     1       0.040  -2.799   0.039  0.00  0.00    +0.100 A 
ATOM     28  C   UNL     1       0.053  -2.054   1.225  0.00  0.00    +0.124 A 
ATOM     29  N   UNL     1       0.083  -2.428   2.549  0.00  0.00    -0.593 N 
ATOM     30  H   UNL     1       0.101  -3.344   2.866  0.00  0.00    +0.438 HD
ATOM     31  C   UNL     1       0.084  -1.309   3.365  0.00  0.00    +0.195 A 
ATOM     32  C   UNL     1       0.109  -1.161   4.748  0.00  0.00    +0.007 A 
ATOM     33  C   UNL     1       0.103   0.099   5.308  0.00  0.00    +0.117 A 
ATOM     34  C   UNL     1       0.072   1.228   4.504  0.00  0.00    +0.015 A 
ATOM     35  C   UNL     1       0.047   1.101   3.131  0.00  0.00    +0.098 A 
ATOM     36  C   UNL     1       0.053  -0.166   2.554  0.00  0.00    -0.151 A 
ATOM     37  C   UNL     1       0.039  -0.642   1.154  0.00  0.00    +0.205 A 
ENDROOT
BRANCH   9  10
ATOM     10  C   UNL     1       0.059  -4.269   0.058  0.00  0.00    +0.023 A 
ATOM     11  C   UNL     1      -1.191  -5.036   0.086  0.00  0.00    -0.102 A 
ATOM     12  C   UNL     1      -2.430  -4.385   0.093  0.00  0.00    +0.058 A 
ATOM     13  C   UNL     1      -3.582  -5.118   0.118  0.00  0.00    +0.007 A 
ATOM     14  C   UNL     1      -3.534  -6.507   0.138  0.00  0.00    +0.095 A 
ATOM     15  C   UNL     1      -2.328  -7.170   0.133  0.00  0.00    -0.014 A 
ATOM     16  C   UNL     1      -1.138  -6.443   0.106  0.00  0.00    +0.191 A 
ATOM     17  N   UNL     1       0.074  -7.091   0.099  0.00  0.00    -0.438 N 
ATOM     18  C   UNL     1       0.103  -8.556   0.124  0.00  0.00    +0.329 C 
ATOM     19  C   UNL     1       1.262  -6.394   0.070  0.00  0.00    +0.132 A 
ATOM     20  C   UNL     1       2.586  -6.780   0.054  0.00  0.00    -0.266 A 
ATOM     21  C   UNL     1       3.356  -5.615   0.024  0.00  0.00    +0.212 A 
ATOM     22  C   UNL     1       4.864  -5.638  -0.002  0.00  0.00    +0.177 C 
ATOM     23  C   UNL     1       5.341  -7.021  -0.337  0.00  0.00    -0.036 C 
ATOM     24  C   UNL     1       4.625  -8.094  -0.309  0.00  0.00    -0.034 C 
ATOM     25  N   UNL     1       2.560  -4.571   0.021  0.00  0.00    -0.527 NA
ATOM     26  C   UNL     1       3.173  -8.164   0.066  0.00  0.00    +0.141 C 
ATOM     27  C   UNL     1       1.275  -4.972   0.044  0.00  0.00    +0.086 A 
ENDBRANCH   9  10
TORSDOF 1
