REMARK  Name = ZINC95486110
REMARK  9 active torsions:
REMARK  status: ('A' for Active; 'I' for Inactive)
REMARK    1  A    between atoms: C1_1  and  C2_2
REMARK    2  A    between atoms: C2_2  and  C3_4
REMARK    3  A    between atoms: C3_4  and  C31_37
REMARK    4  A    between atoms: C7_8  and  C30_36
REMARK    5  A    between atoms: C11_13  and  C29_35
REMARK    6  A    between atoms: C15_18  and  C28_34
REMARK    7  A    between atoms: C19_22  and  C27_31
REMARK    8  A    between atoms: C22_26  and  C25_29
REMARK    9  A    between atoms: C22_26  and  C26_30
REMARK                            x       y       z     vdW  Elec       q    Type
REMARK                         _______ _______ _______ _____ _____    ______ ____
ROOT
ATOM      3  C   UNL     1      -1.969  -0.343   1.121  0.00  0.00    -0.091 C 
ATOM      4  C   UNL     1      -2.819  -0.492   2.408  0.00  0.00    +0.040 C 
ATOM      5  C   UNL     1      -2.764   0.572   0.188  0.00  0.00    +0.030 C 
ATOM      6  C   UNL     1      -2.228   0.539  -1.238  0.00  0.00    +0.000 C 
ATOM      7  C   UNL     1      -2.232  -0.892  -1.769  0.00  0.00    +0.011 C 
ATOM      8  C   UNL     1      -1.281  -1.755  -0.919  0.00  0.00    -0.035 C 
ATOM      9  C   UNL     1       0.126  -1.208  -1.101  0.00  0.00    +0.027 C 
ATOM     10  C   UNL     1      -1.407  -3.207  -1.390  0.00  0.00    +0.002 C 
ATOM     11  C   UNL     1      -1.113  -3.400  -2.859  0.00  0.00    +0.004 C 
ATOM     12  C   UNL     1      -1.418  -4.810  -3.352  0.00  0.00    +0.014 C 
ATOM     13  C   UNL     1      -1.820  -5.794  -2.256  0.00  0.00    +0.014 C 
ATOM     14  C   UNL     1      -3.276  -5.506  -1.875  0.00  0.00    +0.006 C 
ATOM     15  C   UNL     1      -0.964  -5.613  -1.041  0.00  0.00    -0.115 C 
ATOM     16  C   UNL     1      -0.427  -6.601  -0.375  0.00  0.00    -0.015 C 
ATOM     17  C   UNL     1      -0.565  -8.026  -0.841  0.00  0.00    +0.048 C 
ATOM     18  C   UNL     1      -0.554  -7.979  -2.376  0.00  0.00    -0.113 C 
ATOM     22  C   UNL     1      -0.539  -9.399  -2.937  0.00  0.00    +0.016 C 
ATOM     23  C   UNL     1      -1.782 -10.151  -2.473  0.00  0.00    +0.001 C 
ATOM     24  C   UNL     1      -3.039  -9.434  -2.946  0.00  0.00    -0.065 C 
ATOM     25  C   UNL     1      -3.145  -9.483  -4.472  0.00  0.00    +0.016 C 
ATOM     26  C   UNL     1      -4.266 -10.151  -2.356  0.00  0.00    +0.006 C 
ATOM     27  C   UNL     1      -3.060  -7.981  -2.469  0.00  0.00    +0.016 C 
ATOM     28  C   UNL     1      -1.792  -7.216  -2.825  0.00  0.00    +0.020 C 
ATOM     29  C   UNL     1      -0.655  -4.208  -0.531  0.00  0.00    +0.003 C 
ATOM     30  C   UNL     1       0.873  -4.058  -0.610  0.00  0.00    +0.030 C 
ATOM     31  C   UNL     1      -1.098  -4.082   0.928  0.00  0.00    +0.009 C 
ATOM     32  C   UNL     1      -0.912  -2.633   1.403  0.00  0.00    +0.016 C 
ATOM     33  C   UNL     1      -1.765  -1.719   0.528  0.00  0.00    +0.009 C 
ENDROOT
BRANCH   3   2
ATOM      1  C   UNL     1      -0.700   1.701   2.128  0.00  0.00    +0.048 C 
ATOM      2  C   UNL     1      -0.680   0.323   1.519  0.00  0.00    +0.359 C 
ATOM     34  O   UNL     1       0.372  -0.247   1.350  0.00  0.00    -0.434 OA
ENDBRANCH   3   2
BRANCH  18  19
ATOM     19  C   UNL     1       0.703  -7.289  -2.850  0.00  0.00    +0.513 C 
ATOM     20  O   UNL     1       0.846  -7.027  -4.032  0.00  0.00    -0.705 OA
ATOM     21  O   UNL     1       1.575  -6.994  -2.051  0.00  0.00    -0.686 OA
ENDBRANCH  18  19
TORSDOF 2
