REMARK  Name = ZINC14819779
REMARK  8 active torsions:
REMARK  status: ('A' for Active; 'I' for Inactive)
REMARK    1  A    between atoms: C1_1  and  C2_2
REMARK    2  A    between atoms: C2_2  and  C19_24
REMARK    3  A    between atoms: C3_3  and  C4_4
REMARK    4  A    between atoms: C4_4  and  C5_5
REMARK    5  A    between atoms: C10_11  and  O5_23
REMARK    6  A    between atoms: C16_18  and  O4_21
REMARK    7  A    between atoms: C17_19  and  O3_20
REMARK    8  A    between atoms: O4_21  and  C18_22
REMARK                            x       y       z     vdW  Elec       q    Type
REMARK                         _______ _______ _______ _____ _____    ______ ____
ROOT
ATOM      6  C   UNL     1       2.683  -2.622  -0.037  0.00  0.00    -0.120 A 
ATOM      7  C   UNL     1       1.445  -2.042  -0.022  0.00  0.00    +0.138 A 
ATOM      8  C   UNL     1       1.329  -0.651  -0.014  0.00  0.00    -0.223 A 
ATOM      9  C   UNL     1       0.002  -0.004   0.002  0.00  0.00    +0.441 A 
ATOM     10  C   UNL     1      -0.018   1.470   0.010  0.00  0.00    -0.263 A 
ATOM     11  C   UNL     1      -1.230   2.172   0.020  0.00  0.00    +0.204 A 
ATOM     14  C   UNL     1      -1.216   3.557   0.033  0.00  0.00    -0.038 A 
ATOM     15  C   UNL     1      -0.011   4.239   0.025  0.00  0.00    +0.115 A 
ATOM     16  C   UNL     1       1.188   3.555   0.010  0.00  0.00    -0.009 A 
ATOM     17  C   UNL     1       1.202   2.165   0.002  0.00  0.00    +0.179 A 
ATOM     18  O   UNL     1       2.378   1.505  -0.013  0.00  0.00    -0.218 OA
ATOM     19  O   UNL     1      -1.026  -0.656   0.009  0.00  0.00    -0.432 OA
ATOM     20  C   UNL     1       2.476   0.159  -0.021  0.00  0.00    +0.157 A 
ATOM     21  C   UNL     1       3.729  -0.447  -0.035  0.00  0.00    +0.044 A 
ATOM     24  C   UNL     1       3.828  -1.832  -0.043  0.00  0.00    +0.163 A 
ENDROOT
BRANCH  11  12
ATOM     12  O   UNL     1      -2.409   1.500   0.022  0.00  0.00    -0.477 OA
ATOM     13  H   UNL     1      -2.746   1.301   0.906  0.00  0.00    +0.402 HD
ENDBRANCH  11  12
BRANCH  21  22
ATOM     22  O   UNL     1       4.856   0.317  -0.041  0.00  0.00    -0.310 OA
ATOM     23  C   UNL     1       5.382   0.688  -1.317  0.00  0.00    +0.226 C 
ENDBRANCH  21  22
BRANCH  24  25
ATOM     25  O   UNL     1       5.052  -2.420  -0.057  0.00  0.00    -0.472 OA
ATOM     26  H   UNL     1       5.398  -2.585  -0.945  0.00  0.00    +0.395 HD
ENDBRANCH  24  25
BRANCH   6   5
ATOM      5  C   UNL     1       2.807  -4.124  -0.045  0.00  0.00    +0.127 C 
BRANCH   5   4
ATOM      1  C   UNL     1       1.056  -6.070   0.993  0.00  0.00    +0.074 C 
ATOM      2  C   UNL     1       2.171  -5.526   1.849  0.00  0.00    -0.127 C 
ATOM      3  C   UNL     1       2.349  -6.024   3.260  0.00  0.00    +0.075 C 
ATOM      4  C   UNL     1       2.986  -4.621   1.366  0.00  0.00    -0.049 C 
ENDBRANCH   5   4
ENDBRANCH   6   5
TORSDOF 5
