REMARK  Name = ZINC32062349
REMARK  9 active torsions:
REMARK  status: ('A' for Active; 'I' for Inactive)
REMARK    1  A    between atoms: C1_1  and  C2_2
REMARK    2  A    between atoms: C2_2  and  C3_4
REMARK    3  A    between atoms: C6_8  and  C29_37
REMARK    4  A    between atoms: C12_17  and  C28_36
REMARK    5  A    between atoms: C15_20  and  O2_35
REMARK    6  A    between atoms: C16_22  and  C26_33
REMARK    7  A    between atoms: C16_22  and  C27_34
REMARK    8  A    between atoms: C20_27  and  C25_32
REMARK    9  A    between atoms: C21_28  and  C24_31
REMARK                            x       y       z     vdW  Elec       q    Type
REMARK                         _______ _______ _______ _____ _____    ______ ____
ROOT
ATOM      3  C   UNL     1      -2.427  -3.678   0.680  0.00  0.00    -0.039 C 
ATOM      4  C   UNL     1      -2.950  -4.546   1.856  0.00  0.00    +0.031 C 
ATOM      5  C   UNL     1      -2.692  -6.022   1.444  0.00  0.00    +0.023 C 
ATOM      6  C   UNL     1      -2.764  -5.936  -0.092  0.00  0.00    -0.061 C 
ATOM      7  C   UNL     1      -4.221  -5.731  -0.509  0.00  0.00    +0.029 C 
ATOM      8  C   UNL     1      -2.144  -7.095  -0.841  0.00  0.00    +0.020 C 
ATOM      9  C   UNL     1      -2.147  -6.773  -2.343  0.00  0.00    +0.016 C 
ATOM     10  C   UNL     1      -1.448  -5.454  -2.655  0.00  0.00    -0.031 C 
ATOM     11  C   UNL     1       0.041  -5.652  -2.346  0.00  0.00    +0.015 C 
ATOM     12  C   UNL     1      -1.610  -5.098  -4.144  0.00  0.00    -0.026 C 
ATOM     13  C   UNL     1      -3.113  -4.918  -4.410  0.00  0.00    +0.018 C 
ATOM     14  C   UNL     1      -1.119  -6.259  -5.009  0.00  0.00    +0.013 C 
ATOM     15  C   UNL     1      -1.164  -5.860  -6.493  0.00  0.00    +0.016 C 
ATOM     16  C   UNL     1      -0.222  -4.674  -6.683  0.00  0.00    -0.001 C 
ATOM     17  C   UNL     1       0.151  -4.436  -8.129  0.00  0.00    -0.038 C 
ATOM     18  C   UNL     1      -1.063  -4.350  -9.052  0.00  0.00    +0.034 C 
ATOM     19  C   UNL     1       1.001  -5.638  -8.612  0.00  0.00    +0.017 C 
ATOM     20  C   UNL     1       1.028  -3.196  -8.300  0.00  0.00    +0.165 C 
ATOM     23  C   UNL     1       0.487  -1.994  -7.538  0.00  0.00    -0.019 C 
ATOM     24  C   UNL     1       0.301  -2.332  -6.062  0.00  0.00    +0.017 C 
ATOM     25  C   UNL     1      -0.740  -3.461  -5.922  0.00  0.00    -0.035 C 
ATOM     26  C   UNL     1      -2.068  -2.936  -6.450  0.00  0.00    +0.026 C 
ATOM     27  C   UNL     1      -0.830  -3.827  -4.438  0.00  0.00    +0.002 C 
ATOM     28  C   UNL     1      -1.345  -2.663  -3.599  0.00  0.00    +0.011 C 
ATOM     29  C   UNL     1      -1.238  -3.010  -2.109  0.00  0.00    -0.002 C 
ATOM     30  C   UNL     1      -1.999  -4.300  -1.807  0.00  0.00    +0.016 C 
ATOM     31  C   UNL     1      -1.897  -4.677  -0.348  0.00  0.00    +0.012 C 
ENDROOT
BRANCH   3   2
ATOM      1  C   UNL     1      -1.623  -1.442   1.764  0.00  0.00    +0.055 C 
ATOM      2  C   UNL     1      -1.309  -2.792   1.173  0.00  0.00    +0.359 C 
ATOM     32  O   UNL     1      -0.164  -3.165   1.094  0.00  0.00    -0.451 OA
ENDBRANCH   3   2
BRANCH  20  21
ATOM     21  O   UNL     1       1.114  -2.875  -9.693  0.00  0.00    -0.565 OA
ATOM     22  H   UNL     1       1.694  -2.126  -9.890  0.00  0.00    +0.374 HD
ENDBRANCH  20  21
TORSDOF 2
