REMARK  Name = ZINC95486291
REMARK  8 active torsions:
REMARK  status: ('A' for Active; 'I' for Inactive)
REMARK    1  A    between atoms: C1_1  and  C2_2
REMARK    2  A    between atoms: C6_9  and  C18_29
REMARK    3  A    between atoms: C9_15  and  C16_27
REMARK    4  A    between atoms: C11_18  and  O3_20
REMARK    5  A    between atoms: O3_20  and  C12_21
REMARK    6  A    between atoms: C12_21  and  C13_23
REMARK    7  A    between atoms: C13_23  and  C15_25
REMARK    8  A    between atoms: C15_25  and  O5_26
REMARK                            x       y       z     vdW  Elec       q    Type
REMARK                         _______ _______ _______ _____ _____    ______ ____
ROOT
ATOM      1  C   UNL     1      -0.355   1.737  -0.207  0.00  0.00    +0.078 C 
ATOM      2  C   UNL     1      -0.170   0.215  -0.137  0.00  0.00    -0.029 C 
ATOM      3  C   UNL     1      -1.543  -0.472   0.060  0.00  0.00    -0.013 C 
ATOM      4  C   UNL     1      -1.596  -0.539   1.598  0.00  0.00    +0.184 C 
ATOM      5  O   UNL     1      -0.239  -0.793   1.998  0.00  0.00    -0.316 OA
ATOM      6  C   UNL     1      -2.572  -1.554   2.159  0.00  0.00    +0.108 C 
ATOM      7  C   UNL     1      -1.898  -2.861   2.494  0.00  0.00    -0.063 C 
ATOM     10  C   UNL     1      -2.709  -4.085   2.180  0.00  0.00    +0.510 C 
ATOM     11  O   UNL     1      -2.642  -4.527   0.900  0.00  0.00    -0.374 OA
ATOM     12  C   UNL     1      -3.750  -4.149   0.075  0.00  0.00    +0.235 C 
ATOM     13  C   UNL     1      -3.261  -3.609  -1.273  0.00  0.00    +0.031 C 
ATOM     16  C   UNL     1      -2.952  -2.120  -1.178  0.00  0.00    +0.065 C 
ATOM     17  O   UNL     1      -3.384  -4.638   3.020  0.00  0.00    -0.437 OA
ATOM     18  C   UNL     1      -1.554  -1.842  -0.617  0.00  0.00    +0.194 C 
ATOM     27  C   UNL     1       0.565  -0.162   1.129  0.00  0.00    +0.476 C 
ATOM     28  O   UNL     1       1.730   0.085   1.328  0.00  0.00    -0.442 OA
ENDROOT
BRANCH   7   8
ATOM      8  C   UNL     1      -1.592  -2.871   3.971  0.00  0.00    +0.468 C 
ATOM      9  O   UNL     1      -0.451  -2.977   4.351  0.00  0.00    -0.424 OA
ENDBRANCH   7   8
BRANCH  13  14
ATOM     14  C   UNL     1      -2.066  -4.397  -1.728  0.00  0.00    -0.033 C 
ATOM     15  C   UNL     1      -2.135  -5.118  -2.820  0.00  0.00    +0.015 C 
ENDBRANCH  13  14
BRANCH  18  19
ATOM     19  O   UNL     1      -0.610  -1.844  -1.695  0.00  0.00    -0.334 OA
BRANCH  19  20
ATOM     20  C   UNL     1       0.576  -2.444  -1.470  0.00  0.00    +0.501 C 
ATOM     26  O   UNL     1       0.775  -3.019  -0.418  0.00  0.00    -0.490 OA
BRANCH  20  21
ATOM     21  C   UNL     1       1.627  -2.403  -2.496  0.00  0.00    -0.187 C 
ATOM     25  C   UNL     1       2.798  -2.995  -2.273  0.00  0.00    +0.208 C 
BRANCH  21  22
ATOM     22  C   UNL     1       1.379  -1.689  -3.800  0.00  0.00    +0.252 C 
BRANCH  22  23
ATOM     23  O   UNL     1       2.542  -1.788  -4.625  0.00  0.00    -0.571 OA
ATOM     24  H   UNL     1       2.454  -1.351  -5.483  0.00  0.00    +0.389 HD
ENDBRANCH  22  23
ENDBRANCH  21  22
ENDBRANCH  20  21
ENDBRANCH  19  20
ENDBRANCH  18  19
TORSDOF 7
