REMARK  Name = ZINC95486224
REMARK  2 active torsions:
REMARK  status: ('A' for Active; 'I' for Inactive)
REMARK    1  A    between atoms: C4_4  and  C7_7
REMARK    2  A    between atoms: C7_7  and  O1_21
REMARK                            x       y       z     vdW  Elec       q    Type
REMARK                         _______ _______ _______ _____ _____    ______ ____
ROOT
ATOM      5  C   UNL     1       3.711  -0.707  -0.038  0.00  0.00    +0.397 C 
ATOM      8  C   UNL     1       4.188  -0.866  -1.465  0.00  0.00    -0.173 A 
ATOM      9  C   UNL     1       4.031   0.184  -2.351  0.00  0.00    +0.069 A 
ATOM     10  C   UNL     1       4.451   0.056  -3.661  0.00  0.00    -0.011 A 
ATOM     11  C   UNL     1       5.029  -1.123  -4.095  0.00  0.00    +0.073 A 
ATOM     12  C   UNL     1       5.193  -2.176  -3.216  0.00  0.00    -0.033 A 
ATOM     13  C   UNL     1       4.777  -2.047  -1.899  0.00  0.00    +0.216 A 
ATOM     14  N   UNL     1       4.969  -3.116  -1.002  0.00  0.00    -0.748 N 
ATOM     15  H   UNL     1       5.184  -4.012  -1.304  0.00  0.00    +0.420 HD
ATOM     16  C   UNL     1       4.824  -2.785   0.417  0.00  0.00    +0.556 C 
ATOM     17  N   UNL     1       4.670  -3.950   1.294  0.00  0.00    -0.520 N 
ATOM     18  H   UNL     1       5.562  -4.207   1.690  0.00  0.00    +0.445 HD
ATOM     19  H   UNL     1       4.283  -4.726   0.777  0.00  0.00    +0.435 HD
ATOM     20  C   UNL     1       3.717  -3.520   2.365  0.00  0.00    +0.301 C 
ATOM     21  C   UNL     1       3.291  -2.076   1.991  0.00  0.00    +0.249 C 
ATOM     22  N   UNL     1       3.539  -2.036   0.538  0.00  0.00    -0.497 NA
ENDROOT
BRANCH   5   4
ATOM      1  C   UNL     1      -0.017   1.378   0.010  0.00  0.00    +0.027 A 
ATOM      2  C   UNL     1       1.171   2.086   0.002  0.00  0.00    +0.020 A 
ATOM      3  C   UNL     1       2.377   1.411  -0.013  0.00  0.00    +0.013 A 
ATOM      4  C   UNL     1       2.396   0.029  -0.020  0.00  0.00    -0.116 A 
ATOM     23  C   UNL     1       1.208  -0.679  -0.012  0.00  0.00    +0.038 A 
ATOM     24  C   UNL     1       0.002  -0.004   0.002  0.00  0.00    +0.011 A 
ENDBRANCH   5   4
BRANCH   5   6
ATOM      6  O   UNL     1       4.681   0.022   0.717  0.00  0.00    -0.580 OA
ATOM      7  H   UNL     1       4.851   0.914   0.382  0.00  0.00    +0.406 HD
ENDBRANCH   5   6
TORSDOF 2
