REMARK  Name = ZINC95486154
REMARK  7 active torsions:
REMARK  status: ('A' for Active; 'I' for Inactive)
REMARK    1  A    between atoms: C1_1  and  C2_2
REMARK    2  A    between atoms: C6_6  and  C18_22
REMARK    3  A    between atoms: C6_6  and  C19_23
REMARK    4  A    between atoms: C12_13  and  C13_15
REMARK    5  A    between atoms: C13_15  and  C14_16
REMARK    6  A    between atoms: C15_17  and  C16_18
REMARK    7  A    between atoms: C15_17  and  C17_20
REMARK                            x       y       z     vdW  Elec       q    Type
REMARK                         _______ _______ _______ _____ _____    ______ ____
ROOT
ATOM      1  C   UNL     1       0.239   1.038  -0.393  0.00  0.00    +0.021 C 
ATOM      2  C   UNL     1       0.235  -0.498  -0.279  0.00  0.00    -0.035 C 
ATOM      3  C   UNL     1      -1.214  -0.974  -0.155  0.00  0.00    +0.018 C 
ATOM      4  C   UNL     1      -1.820  -0.478   1.156  0.00  0.00    +0.004 C 
ATOM      5  C   UNL     1      -1.018  -1.033   2.329  0.00  0.00    +0.011 C 
ATOM      6  C   UNL     1       0.447  -0.610   2.253  0.00  0.00    -0.053 C 
ATOM      7  C   UNL     1       0.583   0.879   2.584  0.00  0.00    +0.021 C 
ATOM      8  C   UNL     1       1.194  -1.352   3.385  0.00  0.00    +0.013 C 
ATOM      9  C   UNL     1       0.784  -0.980  -1.631  0.00  0.00    +0.040 C 
ATOM     17  C   UNL     1       1.092  -2.452  -1.584  0.00  0.00    -0.114 C 
ATOM     18  C   UNL     1       0.647  -3.278  -2.497  0.00  0.00    +0.005 C 
ATOM     19  C   UNL     1       1.944  -2.939  -0.435  0.00  0.00    +0.050 C 
ATOM     20  C   UNL     1       1.270  -2.491   0.866  0.00  0.00    +0.018 C 
ATOM     21  C   UNL     1       1.067  -0.972   0.902  0.00  0.00    +0.020 C 
ENDROOT
BRANCH   9  10
ATOM     10  C   UNL     1       2.039  -0.184  -1.988  0.00  0.00    +0.069 C 
BRANCH  10  11
ATOM     11  C   UNL     1       2.518  -0.589  -3.359  0.00  0.00    +0.152 C 
ATOM     12  C   UNL     1       2.681   0.348  -4.323  0.00  0.00    -0.319 C 
BRANCH  12  13
ATOM     13  C   UNL     1       2.518   1.774  -3.998  0.00  0.00    +0.470 C 
ATOM     14  O   UNL     1       2.562   2.605  -4.880  0.00  0.00    -0.432 OA
ENDBRANCH  12  13
BRANCH  12  15
ATOM     15  C   UNL     1       3.021  -0.059  -5.694  0.00  0.00    +0.476 C 
ATOM     16  O   UNL     1       3.168   0.780  -6.558  0.00  0.00    -0.435 OA
ENDBRANCH  12  15
ENDBRANCH  10  11
ENDBRANCH   9  10
TORSDOF 4
