REMARK  Name = ZINC95486221
REMARK  3 active torsions:
REMARK  status: ('A' for Active; 'I' for Inactive)
REMARK    1  A    between atoms: C1_1  and  C2_2
REMARK    2  A    between atoms: C5_7  and  C21_28
REMARK    3  A    between atoms: C20_25  and  O1_27
REMARK                            x       y       z     vdW  Elec       q    Type
REMARK                         _______ _______ _______ _____ _____    ______ ____
ROOT
ATOM      1  C   UNL     1      -0.019   1.526   0.010  0.00  0.00    +0.015 C 
ATOM      2  C   UNL     1       0.002  -0.004   0.002  0.00  0.00    +0.000 C 
ATOM      3  C   UNL     1      -1.433  -0.516  -0.067  0.00  0.00    +0.011 C 
ATOM      4  C   UNL     1      -1.805  -1.406   1.111  0.00  0.00    +0.026 C 
ATOM      5  C   UNL     1      -3.320  -1.665   1.092  0.00  0.00    -0.093 C 
ATOM      6  C   UNL     1      -3.674  -2.391  -0.209  0.00  0.00    +0.025 C 
ATOM      7  C   UNL     1      -3.716  -2.577   2.245  0.00  0.00    +0.020 C 
ATOM      8  C   UNL     1      -3.305  -1.968   3.584  0.00  0.00    -0.001 C 
ATOM      9  C   UNL     1      -1.798  -1.696   3.582  0.00  0.00    +0.042 C 
ATOM     10  C   UNL     1      -4.076  -0.348   1.124  0.00  0.00    +0.227 C 
ATOM     11  N   UNL     1      -3.466   0.613   2.028  0.00  0.00    -0.529 NA
ATOM     12  C   UNL     1      -2.357   0.482   2.609  0.00  0.00    +0.317 C 
ATOM     13  C   UNL     1      -1.465  -0.727   2.439  0.00  0.00    -0.055 C 
ATOM     14  C   UNL     1      -0.014  -0.292   2.497  0.00  0.00    +0.011 C 
ATOM     15  C   UNL     1       0.735  -0.841   3.704  0.00  0.00    +0.028 C 
ATOM     16  C   UNL     1       2.013  -1.558   3.240  0.00  0.00    +0.028 C 
ATOM     17  C   UNL     1       2.852  -0.569   2.450  0.00  0.00    -0.146 C 
ATOM     18  C   UNL     1       2.116   0.171   1.339  0.00  0.00    +0.210 C 
ATOM     21  C   UNL     1       4.123  -0.363   2.698  0.00  0.00    +0.010 C 
ATOM     22  C   UNL     1       1.581  -2.673   2.277  0.00  0.00    +0.016 C 
ATOM     23  C   UNL     1       1.058  -2.032   0.993  0.00  0.00    +0.023 C 
ATOM     24  C   UNL     1       0.753  -0.549   1.207  0.00  0.00    -0.012 C 
ENDROOT
BRANCH  18  19
ATOM     19  O   UNL     1       2.847   0.084   0.118  0.00  0.00    -0.549 OA
ATOM     20  H   UNL     1       3.710   0.519   0.144  0.00  0.00    +0.376 HD
ENDBRANCH  18  19
TORSDOF 1
