REMARK  Name = ZINC14649032
REMARK  7 active torsions:
REMARK  status: ('A' for Active; 'I' for Inactive)
REMARK    1  A    between atoms: C1_1  and  O1_2
REMARK    2  A    between atoms: O1_2  and  C2_3
REMARK    3  A    between atoms: C4_5  and  O7_22
REMARK    4  A    between atoms: C12_15  and  O6_20
REMARK    5  A    between atoms: C13_16  and  O5_19
REMARK    6  A    between atoms: C14_17  and  O4_18
REMARK    7  A    between atoms: O6_20  and  C15_21
REMARK                            x       y       z     vdW  Elec       q    Type
REMARK                         _______ _______ _______ _____ _____    ______ ____
ROOT
ATOM      3  C   UNL     1      -0.149   1.183   2.378  0.00  0.00    +0.218 A 
ATOM      4  C   UNL     1       0.993   0.391   2.409  0.00  0.00    -0.124 A 
ATOM      5  C   UNL     1       1.545   0.020   3.622  0.00  0.00    +0.248 A 
ATOM      8  C   UNL     1       0.938   0.439   4.814  0.00  0.00    -0.301 A 
ATOM      9  C   UNL     1      -0.220   1.234   4.782  0.00  0.00    +0.224 A 
ATOM     10  O   UNL     1      -0.814   1.644   5.922  0.00  0.00    -0.214 OA
ATOM     11  C   UNL     1      -0.357   1.332   7.153  0.00  0.00    +0.118 A 
ATOM     12  C   UNL     1       0.792   0.543   7.320  0.00  0.00    -0.180 A 
ATOM     13  C   UNL     1       1.255   0.226   8.599  0.00  0.00    +0.040 A 
ATOM     14  C   UNL     1       0.578   0.693   9.707  0.00  0.00    +0.093 A 
ATOM     17  C   UNL     1      -0.565   1.478   9.548  0.00  0.00    +0.119 A 
ATOM     20  C   UNL     1      -1.030   1.796   8.281  0.00  0.00    +0.097 A 
ATOM     23  C   UNL     1       1.500   0.055   6.120  0.00  0.00    +0.444 A 
ATOM     24  O   UNL     1       2.502  -0.633   6.206  0.00  0.00    -0.435 OA
ATOM     25  C   UNL     1      -0.754   1.599   3.554  0.00  0.00    -0.040 A 
ENDROOT
BRANCH   3   2
ATOM      1  C   UNL     1      -0.013   1.086   0.008  0.00  0.00    +0.257 C 
ATOM      2  O   UNL     1      -0.682   1.547   1.184  0.00  0.00    -0.302 OA
ENDBRANCH   3   2
BRANCH   5   6
ATOM      6  O   UNL     1       2.662  -0.748   3.657  0.00  0.00    -0.475 OA
ATOM      7  H   UNL     1       2.486  -1.699   3.668  0.00  0.00    +0.404 HD
ENDBRANCH   5   6
BRANCH  14  15
ATOM     15  O   UNL     1       1.024   0.387  10.955  0.00  0.00    -0.299 OA
ATOM     16  C   UNL     1       2.200  -0.420  11.044  0.00  0.00    +0.250 C 
ENDBRANCH  14  15
BRANCH  17  18
ATOM     18  O   UNL     1      -1.228   1.934  10.644  0.00  0.00    -0.464 OA
ATOM     19  H   UNL     1      -1.920   1.338  10.961  0.00  0.00    +0.395 HD
ENDBRANCH  17  18
BRANCH  20  21
ATOM     21  O   UNL     1      -2.146   2.562   8.139  0.00  0.00    -0.464 OA
ATOM     22  H   UNL     1      -2.968   2.055   8.099  0.00  0.00    +0.393 HD
ENDBRANCH  20  21
TORSDOF 5
