REMARK  Name = ZINC03645832
REMARK  11 active torsions:
REMARK  status: ('A' for Active; 'I' for Inactive)
REMARK    1  A    between atoms: C1_1  and  C2_2
REMARK    2  A    between atoms: C2_2  and  C25_32
REMARK    3  A    between atoms: C3_3  and  C4_4
REMARK    4  A    between atoms: C4_4  and  C5_5
REMARK    5  A    between atoms: C8_8  and  O3_19
REMARK    6  A    between atoms: C11_12  and  C13_15
REMARK    7  A    between atoms: C13_15  and  C14_16
REMARK    8  A    between atoms: C13_15  and  C15_17
REMARK    9  A    between atoms: C13_15  and  O2_18
REMARK   10  A    between atoms: C17_22  and  C19_25
REMARK   11  A    between atoms: C22_28  and  O6_31
REMARK                            x       y       z     vdW  Elec       q    Type
REMARK                         _______ _______ _______ _____ _____    ______ ____
ROOT
ATOM      6  C   UNL     1      -0.816  -0.575   3.314  0.00  0.00    -0.129 A 
ATOM      7  C   UNL     1      -2.123  -0.115   3.325  0.00  0.00    +0.196 A 
ATOM      8  C   UNL     1      -3.046  -0.681   4.223  0.00  0.00    -0.275 A 
ATOM      9  C   UNL     1      -4.431  -0.185   4.201  0.00  0.00    +0.433 A 
ATOM     10  C   UNL     1      -4.797   0.660   3.048  0.00  0.00    -0.238 A 
ATOM     19  C   UNL     1      -3.799   1.128   2.255  0.00  0.00    +0.326 A 
ATOM     20  O   UNL     1      -5.229  -0.456   5.083  0.00  0.00    -0.436 OA
ATOM     21  C   UNL     1      -2.642  -1.693   5.103  0.00  0.00    +0.243 A 
ATOM     24  C   UNL     1      -1.337  -2.135   5.071  0.00  0.00    -0.227 A 
ATOM     25  C   UNL     1      -0.608  -3.202   5.865  0.00  0.00    +0.111 C 
ATOM     26  C   UNL     1       0.666  -3.419   5.010  0.00  0.00    +0.198 C 
ATOM     32  O   UNL     1       0.810  -2.159   4.334  0.00  0.00    -0.272 OA
ATOM     33  O   UNL     1      -2.510   0.868   2.486  0.00  0.00    -0.209 OA
ATOM     34  C   UNL     1      -0.415  -1.586   4.183  0.00  0.00    +0.194 A 
ENDROOT
BRANCH  10  11
ATOM     11  C   UNL     1      -6.215   0.989   2.762  0.00  0.00    -0.037 A 
ATOM     12  C   UNL     1      -6.946   1.768   3.659  0.00  0.00    +0.057 A 
ATOM     13  C   UNL     1      -8.264   2.072   3.390  0.00  0.00    -0.011 A 
ATOM     14  C   UNL     1      -8.863   1.604   2.229  0.00  0.00    +0.111 A 
ATOM     17  C   UNL     1      -8.139   0.829   1.335  0.00  0.00    -0.013 A 
ATOM     18  C   UNL     1      -6.818   0.525   1.595  0.00  0.00    +0.037 A 
BRANCH  14  15
ATOM     15  O   UNL     1     -10.162   1.906   1.967  0.00  0.00    -0.499 OA
ATOM     16  H   UNL     1     -10.283   2.724   1.465  0.00  0.00    +0.392 HD
ENDBRANCH  14  15
ENDBRANCH  10  11
BRANCH  26  27
ATOM     27  C   UNL     1       1.875  -3.695   5.906  0.00  0.00    +0.132 C 
ATOM     30  C   UNL     1       3.133  -3.811   5.042  0.00  0.00    +0.025 C 
ATOM     31  C   UNL     1       1.658  -5.004   6.668  0.00  0.00    +0.032 C 
BRANCH  27  28
ATOM     28  O   UNL     1       2.034  -2.623   6.836  0.00  0.00    -0.550 OA
ATOM     29  H   UNL     1       2.784  -2.731   7.438  0.00  0.00    +0.381 HD
ENDBRANCH  27  28
ENDBRANCH  26  27
BRANCH  21  22
ATOM     22  O   UNL     1      -3.527  -2.234   5.978  0.00  0.00    -0.471 OA
ATOM     23  H   UNL     1      -4.005  -3.000   5.631  0.00  0.00    +0.398 HD
ENDBRANCH  21  22
BRANCH   6   5
ATOM      5  C   UNL     1       0.178   0.020   2.350  0.00  0.00    +0.133 C 
BRANCH   5   4
ATOM      1  C   UNL     1      -0.111   1.372  -0.108  0.00  0.00    +0.075 C 
ATOM      2  C   UNL     1      -0.045  -0.133  -0.076  0.00  0.00    -0.125 C 
ATOM      3  C   UNL     1      -0.207  -0.921  -1.351  0.00  0.00    +0.072 C 
ATOM      4  C   UNL     1       0.152  -0.756   1.059  0.00  0.00    -0.055 C 
ENDBRANCH   5   4
ENDBRANCH   6   5
TORSDOF 7
