REMARK  Name = ZINC95485962
REMARK  8 active torsions:
REMARK  status: ('A' for Active; 'I' for Inactive)
REMARK    1  A    between atoms: C1_1  and  C2_2
REMARK    2  A    between atoms: C7_10  and  C30_35
REMARK    3  A    between atoms: C11_15  and  C29_34
REMARK    4  A    between atoms: C14_18  and  C28_33
REMARK    5  A    between atoms: C15_19  and  C27_32
REMARK    6  A    between atoms: C18_22  and  C26_31
REMARK    7  A    between atoms: C21_26  and  C24_29
REMARK    8  A    between atoms: C21_26  and  C25_30
REMARK                            x       y       z     vdW  Elec       q    Type
REMARK                         _______ _______ _______ _____ _____    ______ ____
ROOT
ATOM      1  C   UNL     1      -0.764   1.010   0.391  0.00  0.00    +0.046 C 
ATOM      2  C   UNL     1      -0.650  -0.515   0.181  0.00  0.00    -0.028 C 
ATOM      3  C   UNL     1      -0.028  -0.876  -1.133  0.00  0.00    +0.369 C 
ATOM      4  C   UNL     1       0.314  -2.309  -1.429  0.00  0.00    +0.033 C 
ATOM      5  C   UNL     1       0.949  -2.939  -0.240  0.00  0.00    +0.027 C 
ATOM      6  C   UNL     1       1.256  -1.972   0.914  0.00  0.00    -0.000 C 
ATOM      7  C   UNL     1       2.588  -1.251   0.653  0.00  0.00    -0.028 C 
ATOM      8  C   UNL     1       3.682  -2.315   0.683  0.00  0.00    +0.015 C 
ATOM      9  C   UNL     1       2.585  -0.578  -0.682  0.00  0.00    +0.007 C 
ATOM     10  C   UNL     1       4.010   0.066  -0.912  0.00  0.00    +0.010 C 
ATOM     11  C   UNL     1       4.289   1.105   0.066  0.00  0.00    -0.015 C 
ATOM     12  C   UNL     1       3.293   2.264  -0.091  0.00  0.00    +0.018 C 
ATOM     13  C   UNL     1       4.125   0.576   1.516  0.00  0.00    -0.026 C 
ATOM     14  C   UNL     1       3.960   1.872   2.426  0.00  0.00    +0.003 C 
ATOM     15  C   UNL     1       5.395  -0.096   2.047  0.00  0.00    +0.004 C 
ATOM     16  C   UNL     1       6.640   0.787   1.903  0.00  0.00    +0.023 C 
ATOM     17  C   UNL     1       6.901   1.003   0.377  0.00  0.00    -0.036 C 
ATOM     18  C   UNL     1       7.066  -0.351  -0.339  0.00  0.00    +0.021 C 
ATOM     19  C   UNL     1       8.202   1.728   0.254  0.00  0.00    +0.009 C 
ATOM     20  C   UNL     1       8.134   3.112   0.602  0.00  0.00    +0.010 C 
ATOM     21  C   UNL     1       7.048   3.880  -0.210  0.00  0.00    -0.081 C 
ATOM     22  C   UNL     1       6.995   5.386   0.211  0.00  0.00    +0.022 C 
ATOM     23  C   UNL     1       7.403   3.769  -1.734  0.00  0.00    +0.012 C 
ATOM     24  C   UNL     1       5.663   3.210   0.048  0.00  0.00    +0.047 C 
ATOM     25  C   UNL     1       5.753   1.729  -0.181  0.00  0.00    -0.011 C 
ATOM     26  C   UNL     1       2.953  -0.236   1.756  0.00  0.00    -0.004 C 
ATOM     27  C   UNL     1       1.691   0.651   2.212  0.00  0.00    +0.015 C 
ATOM     28  C   UNL     1       0.477  -0.248   2.535  0.00  0.00    +0.020 C 
ATOM     29  O   UNL     1       0.172   0.048  -1.917  0.00  0.00    -0.463 OA
ATOM     30  C   UNL     1       0.065  -1.150   1.307  0.00  0.00    -0.028 C 
ATOM     31  C   UNL     1      -0.934  -2.198   1.949  0.00  0.00    +0.010 C 
ENDROOT
TORSDOF 0
