REMARK  Name = ZINC02004122
REMARK  3 active torsions:
REMARK  status: ('A' for Active; 'I' for Inactive)
REMARK    1  A    between atoms: C1_1  and  C2_2
REMARK    2  A    between atoms: C2_2  and  C20_26
REMARK    3  A    between atoms: C18_23  and  O4_25
REMARK                            x       y       z     vdW  Elec       q    Type
REMARK                         _______ _______ _______ _____ _____    ______ ____
ROOT
ATOM      1  C   UNL     1      -5.494   3.885  -4.814  0.00  0.00    +0.083 C 
ATOM      2  C   UNL     1      -4.211   3.795  -3.986  0.00  0.00    +0.147 C 
ATOM      3  C   UNL     1      -3.910   5.164  -3.372  0.00  0.00    +0.034 C 
ATOM      4  C   UNL     1      -3.070   3.391  -4.881  0.00  0.00    -0.055 C 
ATOM      5  C   UNL     1      -2.042   2.708  -4.386  0.00  0.00    +0.044 C 
ATOM      6  C   UNL     1      -2.072   2.333  -2.955  0.00  0.00    -0.159 A 
ATOM      7  C   UNL     1      -0.906   1.891  -2.319  0.00  0.00    +0.127 A 
ATOM      8  C   UNL     1      -0.996   1.581  -0.986  0.00  0.00    -0.182 A 
ATOM      9  C   UNL     1      -2.214   1.708  -0.269  0.00  0.00    +0.135 A 
ATOM     10  O   UNL     1      -2.046   1.370   1.042  0.00  0.00    -0.275 OA
ATOM     11  C   UNL     1      -0.674   1.602   1.333  0.00  0.00    +0.226 C 
ATOM     12  C   UNL     1      -0.010   0.780   2.388  0.00  0.00    -0.170 A 
ATOM     13  C   UNL     1      -0.673   0.161   3.414  0.00  0.00    +0.094 A 
ATOM     14  C   UNL     1       0.030  -0.618   4.318  0.00  0.00    -0.037 A 
ATOM     15  C   UNL     1       1.402  -0.766   4.178  0.00  0.00    +0.148 A 
ATOM     18  C   UNL     1       2.075  -0.131   3.145  0.00  0.00    -0.033 A 
ATOM     19  C   UNL     1       1.380   0.657   2.241  0.00  0.00    +0.162 A 
ATOM     20  O   UNL     1       2.032   1.299   1.243  0.00  0.00    -0.321 OA
ATOM     21  C   UNL     1       1.399   1.616  -0.003  0.00  0.00    +0.277 C 
ATOM     22  C   UNL     1      -3.373   2.129  -0.911  0.00  0.00    -0.003 A 
ATOM     23  C   UNL     1      -0.013   1.086   0.008  0.00  0.00    -0.013 C 
ATOM     24  C   UNL     1      -3.284   2.439  -2.261  0.00  0.00    +0.172 A 
ATOM     25  O   UNL     1      -4.392   2.841  -2.940  0.00  0.00    -0.303 OA
ENDROOT
BRANCH  15  16
ATOM     16  O   UNL     1       2.091  -1.538   5.058  0.00  0.00    -0.495 OA
ATOM     17  H   UNL     1       2.162  -2.466   4.796  0.00  0.00    +0.396 HD
ENDBRANCH  15  16
TORSDOF 1
