REMARK  Name = ZINC95485935
REMARK  8 active torsions:
REMARK  status: ('A' for Active; 'I' for Inactive)
REMARK    1  A    between atoms: C1_1  and  C2_2
REMARK    2  A    between atoms: C5_5  and  O5_30
REMARK    3  A    between atoms: C6_7  and  C20_28
REMARK    4  A    between atoms: C6_7  and  C21_29
REMARK    5  A    between atoms: C11_13  and  C12_15
REMARK    6  A    between atoms: C12_15  and  C13_16
REMARK    7  A    between atoms: C13_16  and  C14_17
REMARK    8  A    between atoms: C16_19  and  O3_25
REMARK                            x       y       z     vdW  Elec       q    Type
REMARK                         _______ _______ _______ _____ _____    ______ ____
ROOT
ATOM      1  C   UNL     1       0.270   1.407   0.137  0.00  0.00    +0.024 C 
ATOM      2  C   UNL     1       0.230  -0.128   0.024  0.00  0.00    -0.037 C 
ATOM      3  C   UNL     1      -1.230  -0.585   0.077  0.00  0.00    +0.028 C 
ATOM      4  C   UNL     1      -1.841  -0.207   1.424  0.00  0.00    -0.016 C 
ATOM      5  C   UNL     1      -1.077  -0.876   2.558  0.00  0.00    +0.165 C 
ATOM      8  C   UNL     1       0.418  -0.588   2.519  0.00  0.00    -0.044 C 
ATOM      9  C   UNL     1       1.088  -1.547   3.531  0.00  0.00    +0.027 C 
ATOM     10  C   UNL     1       0.690   0.821   3.064  0.00  0.00    +0.030 C 
ATOM     11  C   UNL     1       0.780  -0.429  -1.377  0.00  0.00    +0.025 C 
ATOM     23  C   UNL     1       1.027  -1.920  -1.561  0.00  0.00    +0.034 C 
ATOM     24  C   UNL     1       1.138  -2.474  -2.979  0.00  0.00    +0.174 C 
ATOM     25  O   UNL     1      -0.002  -2.713  -2.150  0.00  0.00    -0.344 OA
ATOM     26  C   UNL     1       1.886  -2.553  -0.467  0.00  0.00    +0.047 C 
ATOM     27  C   UNL     1       1.199  -2.291   0.879  0.00  0.00    +0.035 C 
ATOM     28  C   UNL     1       1.030  -0.790   1.134  0.00  0.00    +0.022 C 
ENDROOT
BRANCH   5   6
ATOM      6  O   UNL     1      -1.305  -2.288   2.528  0.00  0.00    -0.560 OA
ATOM      7  H   UNL     1      -2.233  -2.539   2.626  0.00  0.00    +0.374 HD
ENDBRANCH   5   6
BRANCH  11  12
ATOM     12  C   UNL     1       2.072   0.358  -1.602  0.00  0.00    +0.043 C 
BRANCH  12  13
ATOM     13  C   UNL     1       2.557   0.144  -3.037  0.00  0.00    +0.068 C 
BRANCH  13  14
ATOM     14  C   UNL     1       3.830   0.919  -3.259  0.00  0.00    +0.139 C 
ATOM     15  C   UNL     1       4.920   0.296  -3.698  0.00  0.00    -0.243 C 
ATOM     16  C   UNL     1       5.070  -1.179  -4.036  0.00  0.00    +0.202 C 
ATOM     19  C   UNL     1       6.537  -1.285  -4.504  0.00  0.00    +0.233 C 
ATOM     20  O   UNL     1       6.923   0.068  -4.800  0.00  0.00    -0.335 OA
ATOM     21  C   UNL     1       6.245   0.889  -3.971  0.00  0.00    +0.517 C 
ATOM     22  O   UNL     1       6.659   1.939  -3.521  0.00  0.00    -0.445 OA
BRANCH  16  17
ATOM     17  O   UNL     1       4.174  -1.551  -5.085  0.00  0.00    -0.545 OA
ATOM     18  H   UNL     1       4.229  -2.482  -5.338  0.00  0.00    +0.385 HD
ENDBRANCH  16  17
ENDBRANCH  13  14
ENDBRANCH  12  13
ENDBRANCH  11  12
TORSDOF 5
