REMARK  Name = ZINC95486321
REMARK  10 active torsions:
REMARK  status: ('A' for Active; 'I' for Inactive)
REMARK    1  A    between atoms: C1_1  and  C2_2
REMARK    2  A    between atoms: C7_8  and  C13_17
REMARK    3  A    between atoms: C8_9  and  O1_15
REMARK    4  A    between atoms: C10_11  and  C11_14
REMARK    5  A    between atoms: O1_15  and  C12_16
REMARK    6  A    between atoms: C18_22  and  O4_31
REMARK    7  A    between atoms: C20_24  and  O3_29
REMARK    8  A    between atoms: C22_26  and  O2_27
REMARK    9  A    between atoms: O2_27  and  C23_28
REMARK   10  A    between atoms: O3_29  and  C24_30
REMARK                            x       y       z     vdW  Elec       q    Type
REMARK                         _______ _______ _______ _____ _____    ______ ____
ROOT
ATOM      1  C   UNL     1       0.999   1.569  -0.237  0.00  0.00    +0.094 C 
ATOM      2  C   UNL     1       0.664   0.076  -0.267  0.00  0.00    +0.168 C 
ATOM      3  C   UNL     1      -0.852  -0.109  -0.332  0.00  0.00    +0.132 C 
ATOM      4  C   UNL     1      -1.198  -1.563  -0.134  0.00  0.00    -0.080 A 
ATOM      5  C   UNL     1      -2.465  -1.998  -0.497  0.00  0.00    +0.030 A 
ATOM      6  C   UNL     1      -2.828  -3.317  -0.331  0.00  0.00    +0.074 A 
ATOM      7  C   UNL     1      -1.915  -4.224   0.205  0.00  0.00    -0.009 A 
ATOM     24  C   UNL     1      -0.639  -3.784   0.569  0.00  0.00    +0.140 A 
ATOM     27  C   UNL     1      -0.285  -2.452   0.395  0.00  0.00    -0.149 A 
ATOM     28  C   UNL     1       1.102  -2.021   0.792  0.00  0.00    +0.228 C 
ATOM     29  C   UNL     1       2.092  -2.446  -0.295  0.00  0.00    +0.101 C 
ATOM     30  N   UNL     1       1.167  -0.567   0.956  0.00  0.00    -0.502 N 
ATOM     31  H   UNL     1       0.595  -0.293   1.741  0.00  0.00    +0.427 HD
ATOM     32  H   UNL     1       2.122  -0.286   1.118  0.00  0.00    +0.431 HD
ENDROOT
BRANCH   7   8
ATOM      8  C   UNL     1      -2.295  -5.643   0.390  0.00  0.00    -0.158 A 
ATOM      9  C   UNL     1      -2.891  -6.070   1.601  0.00  0.00    +0.056 A 
ATOM     10  C   UNL     1      -3.133  -5.166   2.646  0.00  0.00    -0.030 A 
ATOM     11  C   UNL     1      -3.708  -5.600   3.802  0.00  0.00    +0.070 A 
ATOM     12  C   UNL     1      -4.063  -6.936   3.968  0.00  0.00    -0.041 A 
ATOM     13  C   UNL     1      -3.840  -7.853   2.964  0.00  0.00    +0.169 A 
ATOM     16  C   UNL     1      -3.247  -7.430   1.758  0.00  0.00    -0.133 A 
ATOM     17  C   UNL     1      -3.005  -8.340   0.709  0.00  0.00    +0.216 A 
ATOM     20  C   UNL     1      -2.425  -7.903  -0.460  0.00  0.00    -0.172 A 
ATOM     21  C   UNL     1      -2.074  -6.564  -0.627  0.00  0.00    +0.215 A 
BRANCH  13  14
ATOM     14  O   UNL     1      -4.189  -9.154   3.136  0.00  0.00    -0.480 OA
ATOM     15  H   UNL     1      -5.091  -9.360   2.853  0.00  0.00    +0.397 HD
ENDBRANCH  13  14
BRANCH  17  18
ATOM     18  O   UNL     1      -3.344  -9.647   0.852  0.00  0.00    -0.287 OA
ATOM     19  C   UNL     1      -3.070 -10.513  -0.252  0.00  0.00    +0.250 C 
ENDBRANCH  17  18
BRANCH  21  22
ATOM     22  O   UNL     1      -1.508  -6.157  -1.792  0.00  0.00    -0.305 OA
ATOM     23  C   UNL     1      -1.307  -7.152  -2.798  0.00  0.00    +0.247 C 
ENDBRANCH  21  22
ENDBRANCH   7   8
BRANCH  24  25
ATOM     25  O   UNL     1       0.257  -4.662   1.093  0.00  0.00    -0.327 OA
ATOM     26  C   UNL     1       0.250  -4.825   2.512  0.00  0.00    +0.233 C 
ENDBRANCH  24  25
TORSDOF 5
