REMARK  Name = ZINC31761332
REMARK  6 active torsions:
REMARK  status: ('A' for Active; 'I' for Inactive)
REMARK    1  A    between atoms: C1_1  and  C2_2
REMARK    2  A    between atoms: C3_3  and  O2_31
REMARK    3  A    between atoms: C11_12  and  C28_30
REMARK    4  A    between atoms: C14_15  and  C27_29
REMARK    5  A    between atoms: C15_16  and  C26_28
REMARK    6  A    between atoms: C18_19  and  C25_27
REMARK                            x       y       z     vdW  Elec       q    Type
REMARK                         _______ _______ _______ _____ _____    ______ ____
ROOT
ATOM      1  C   UNL     1      -1.214  -1.143  -0.095  0.00  0.00    +0.105 C 
ATOM      2  C   UNL     1      -0.005  -0.245  -0.071  0.00  0.00    -0.082 C 
ATOM      3  C   UNL     1       1.232  -0.811  -0.024  0.00  0.00    +0.030 C 
ATOM      6  C   UNL     1       2.384   0.010  -0.004  0.00  0.00    +0.380 C 
ATOM      7  C   UNL     1       2.250   1.409  -0.099  0.00  0.00    -0.111 C 
ATOM      8  C   UNL     1       1.017   1.976  -0.160  0.00  0.00    +0.025 C 
ATOM      9  C   UNL     1       0.917   3.470  -0.356  0.00  0.00    +0.006 C 
ATOM     10  C   UNL     1       1.234   3.706  -1.840  0.00  0.00    +0.067 C 
ATOM     11  C   UNL     1       1.991   4.160   0.473  0.00  0.00    +0.046 C 
ATOM     12  C   UNL     1       1.745   5.648   0.678  0.00  0.00    +0.023 C 
ATOM     13  C   UNL     1       0.340   5.917   1.225  0.00  0.00    -0.030 C 
ATOM     14  C   UNL     1       0.169   5.059   2.486  0.00  0.00    +0.024 C 
ATOM     15  C   UNL     1      -0.676   5.464   0.172  0.00  0.00    -0.014 C 
ATOM     16  C   UNL     1      -0.500   6.233  -1.138  0.00  0.00    +0.044 C 
ATOM     17  C   UNL     1      -2.087   5.727   0.696  0.00  0.00    +0.026 C 
ATOM     18  C   UNL     1      -2.290   7.222   0.910  0.00  0.00    +0.020 C 
ATOM     19  C   UNL     1      -1.257   7.817   1.872  0.00  0.00    -0.043 C 
ATOM     20  C   UNL     1      -1.335   9.354   1.691  0.00  0.00    +0.014 C 
ATOM     21  C   UNL     1      -1.698   7.500   3.298  0.00  0.00    +0.022 C 
ATOM     22  C   UNL     1      -0.751   8.116   4.324  0.00  0.00    +0.050 C 
ATOM     23  C   UNL     1       0.663   7.701   3.996  0.00  0.00    -0.109 C 
ATOM     24  C   UNL     1       1.443   7.210   4.934  0.00  0.00    -0.012 C 
ATOM     25  C   UNL     1       1.168   7.871   2.587  0.00  0.00    +0.067 C 
ATOM     26  C   UNL     1       0.159   7.387   1.550  0.00  0.00    +0.013 C 
ATOM     27  C   UNL     1      -0.458   3.982  -0.055  0.00  0.00    -0.004 C 
ATOM     28  C   UNL     1      -1.509   3.160   0.062  0.00  0.00    -0.047 C 
ATOM     29  C   UNL     1      -1.395   1.765  -0.013  0.00  0.00    +0.145 C 
ATOM     30  O   UNL     1       3.494  -0.492   0.093  0.00  0.00    -0.490 OA
ATOM     31  C   UNL     1      -0.138   1.163  -0.083  0.00  0.00    -0.105 C 
ENDROOT
BRANCH   3   4
ATOM      4  O   UNL     1       1.357  -2.165  -0.001  0.00  0.00    -0.495 OA
ATOM      5  H   UNL     1       2.356  -2.624   0.037  0.00  0.00    +0.437 HD
ENDBRANCH   3   4
TORSDOF 1
