REMARK  Name = ZINC95485959
REMARK  9 active torsions:
REMARK  status: ('A' for Active; 'I' for Inactive)
REMARK    1  A    between atoms: C1_1  and  C2_2
REMARK    2  A    between atoms: C2_2  and  C3_3
REMARK    3  A    between atoms: C2_2  and  C4_4
REMARK    4  A    between atoms: C7_8  and  C30_36
REMARK    5  A    between atoms: C13_17  and  C29_35
REMARK    6  A    between atoms: C14_18  and  C17_21
REMARK    7  A    between atoms: C21_26  and  C28_34
REMARK    8  A    between atoms: C25_31  and  C26_32
REMARK    9  A    between atoms: C25_31  and  C27_33
REMARK                            x       y       z     vdW  Elec       q    Type
REMARK                         _______ _______ _______ _____ _____    ______ ____
ROOT
ATOM      3  C   UNL     1      -1.817   0.394   0.123  0.00  0.00    -0.020 C 
ATOM      4  C   UNL     1      -1.680  -0.975   0.827  0.00  0.00    +0.002 C 
ATOM      5  C   UNL     1      -2.332  -2.001  -0.124  0.00  0.00    +0.015 C 
ATOM      6  C   UNL     1      -3.388  -1.146  -0.852  0.00  0.00    -0.054 C 
ATOM      7  C   UNL     1      -4.550  -0.872   0.114  0.00  0.00    +0.014 C 
ATOM      8  C   UNL     1      -3.937  -1.855  -2.065  0.00  0.00    +0.011 C 
ATOM      9  C   UNL     1      -2.876  -1.976  -3.156  0.00  0.00    +0.019 C 
ATOM     10  C   UNL     1      -2.446  -0.569  -3.588  0.00  0.00    -0.034 C 
ATOM     11  C   UNL     1      -3.666   0.189  -4.115  0.00  0.00    +0.018 C 
ATOM     12  C   UNL     1      -1.421  -0.704  -4.734  0.00  0.00    -0.026 C 
ATOM     13  C   UNL     1      -2.230  -1.240  -5.934  0.00  0.00    +0.018 C 
ATOM     14  C   UNL     1      -0.398  -1.763  -4.336  0.00  0.00    +0.019 C 
ATOM     15  C   UNL     1       0.710  -1.904  -5.362  0.00  0.00    +0.022 C 
ATOM     16  C   UNL     1       1.404  -0.591  -5.698  0.00  0.00    +0.004 C 
ATOM     17  C   UNL     1       0.421   0.501  -6.048  0.00  0.00    -0.073 C 
ATOM     18  C   UNL     1      -0.084   0.274  -7.494  0.00  0.00    +0.045 C 
ATOM     19  C   UNL     1       1.101   1.860  -6.089  0.00  0.00    +0.392 C 
ATOM     20  C   UNL     1       2.177   2.162  -5.152  0.00  0.00    -0.097 C 
ATOM     21  C   UNL     1       2.813   1.184  -4.534  0.00  0.00    +0.062 C 
ATOM     22  O   UNL     1       0.741   2.688  -6.908  0.00  0.00    -0.458 OA
ATOM     23  C   UNL     1       2.547  -0.271  -4.768  0.00  0.00    -0.032 C 
ATOM     24  C   UNL     1       3.836  -0.844  -5.412  0.00  0.00    +0.034 C 
ATOM     25  C   UNL     1       2.416  -0.948  -3.400  0.00  0.00    +0.043 C 
ATOM     26  C   UNL     1      -0.770   0.611  -5.095  0.00  0.00    +0.024 C 
ATOM     27  C   UNL     1      -0.314   1.424  -3.883  0.00  0.00    +0.006 C 
ATOM     28  C   UNL     1      -1.441   1.559  -2.860  0.00  0.00    +0.005 C 
ATOM     29  C   UNL     1      -1.816   0.147  -2.398  0.00  0.00    +0.015 C 
ATOM     30  C   UNL     1      -2.672   0.183  -1.149  0.00  0.00    +0.014 C 
ENDROOT
BRANCH   3   2
ATOM      1  C   UNL     1       0.194   1.373   1.223  0.00  0.00    +0.009 C 
ATOM      2  C   UNL     1      -0.420   0.952  -0.114  0.00  0.00    -0.015 C 
ATOM     31  C   UNL     1       0.456  -0.123  -0.761  0.00  0.00    +0.019 C 
ENDBRANCH   3   2
TORSDOF 1
