REMARK  Name = ZINC95485897
REMARK  7 active torsions:
REMARK  status: ('A' for Active; 'I' for Inactive)
REMARK    1  A    between atoms: C1_1  and  C2_2
REMARK    2  A    between atoms: C2_2  and  C3_3
REMARK    3  A    between atoms: C2_2  and  C4_4
REMARK    4  A    between atoms: C7_7  and  C15_19
REMARK    5  A    between atoms: C8_8  and  O2_18
REMARK    6  A    between atoms: C11_12  and  C14_16
REMARK    7  A    between atoms: C11_12  and  O1_17
REMARK                            x       y       z     vdW  Elec       q    Type
REMARK                         _______ _______ _______ _____ _____    ______ ____
ROOT
ATOM      3  C   UNL     1      -1.486  -0.375   0.293  0.00  0.00    -0.072 C 
ATOM      4  C   UNL     1      -1.912  -0.774  -0.862  0.00  0.00    -0.072 C 
ATOM      5  C   UNL     1      -3.274  -1.361  -1.094  0.00  0.00    +0.060 C 
ATOM      6  C   UNL     1      -3.904  -1.791   0.228  0.00  0.00    -0.042 C 
ATOM      7  C   UNL     1      -5.384  -2.106   0.007  0.00  0.00    +0.045 C 
ATOM      8  C   UNL     1      -3.200  -3.033   0.776  0.00  0.00    +0.166 C 
ATOM     11  C   UNL     1      -3.878  -3.459   2.081  0.00  0.00    -0.010 C 
ATOM     12  C   UNL     1      -3.800  -2.320   3.099  0.00  0.00    -0.002 C 
ATOM     13  C   UNL     1      -4.486  -1.073   2.536  0.00  0.00    +0.133 C 
ATOM     16  C   UNL     1      -4.409   0.060   3.560  0.00  0.00    +0.007 C 
ATOM     17  C   UNL     1      -3.771  -0.650   1.246  0.00  0.00    +0.020 C 
ATOM     18  C   UNL     1      -2.281  -0.459   1.560  0.00  0.00    +0.088 C 
ENDROOT
BRANCH   3   2
ATOM      1  C   UNL     1      -0.175   1.644   0.887  0.00  0.00    +0.015 C 
ATOM      2  C   UNL     1      -0.098   0.207   0.369  0.00  0.00    +0.004 C 
ATOM     19  C   UNL     1       0.756  -0.633   1.320  0.00  0.00    +0.021 C 
ENDBRANCH   3   2
BRANCH   8   9
ATOM      9  O   UNL     1      -1.826  -2.732   1.026  0.00  0.00    -0.537 OA
ATOM     10  H   UNL     1      -1.317  -3.476   1.376  0.00  0.00    +0.358 HD
ENDBRANCH   8   9
BRANCH  13  14
ATOM     14  O   UNL     1      -5.855  -1.369   2.249  0.00  0.00    -0.547 OA
ATOM     15  H   UNL     1      -6.366  -1.652   3.019  0.00  0.00    +0.365 HD
ENDBRANCH  13  14
TORSDOF 3
