REMARK  Name = ZINC95486069
REMARK  7 active torsions:
REMARK  status: ('A' for Active; 'I' for Inactive)
REMARK    1  A    between atoms: C1_1  and  O1_2
REMARK    2  A    between atoms: O1_2  and  C2_3
REMARK    3  A    between atoms: C4_5  and  C10_13
REMARK    4  A    between atoms: C6_7  and  O3_11
REMARK    5  A    between atoms: C7_8  and  O2_9
REMARK    6  A    between atoms: O2_9  and  C8_10
REMARK    7  A    between atoms: O3_11  and  C9_12
REMARK                            x       y       z     vdW  Elec       q    Type
REMARK                         _______ _______ _______ _____ _____    ______ ____
ROOT
ATOM      6  C   UNL     1      -4.871   0.264   0.038  0.00  0.00    -0.000 C 
ATOM      7  C   UNL     1      -5.703  -0.088   1.280  0.00  0.00    +0.290 C 
ATOM      8  O   UNL     1      -6.036  -1.476   1.249  0.00  0.00    -0.298 OA
ATOM      9  C   UNL     1      -6.628  -1.979   0.139  0.00  0.00    +0.193 A 
ATOM     10  C   UNL     1      -7.369  -3.143   0.228  0.00  0.00    -0.009 A 
ATOM     11  C   UNL     1      -7.977  -3.674  -0.903  0.00  0.00    +0.119 A 
ATOM     12  C   UNL     1      -7.836  -3.024  -2.145  0.00  0.00    -0.172 A 
ATOM     13  C   UNL     1      -7.096  -1.853  -2.245  0.00  0.00    +0.179 A 
ATOM     14  C   UNL     1      -8.589  -3.844  -3.104  0.00  0.00    -0.029 A 
ATOM     15  C   UNL     1      -9.098  -4.865  -2.403  0.00  0.00    +0.219 A 
ATOM     16  O   UNL     1      -8.740  -4.765  -1.110  0.00  0.00    -0.189 OA
ATOM     17  C   UNL     1      -6.494  -1.328  -1.103  0.00  0.00    -0.256 A 
ATOM     18  C   UNL     1      -5.712  -0.081  -1.178  0.00  0.00    +0.415 C 
ATOM     19  O   UNL     1      -5.739   0.634  -2.158  0.00  0.00    -0.430 OA
ENDROOT
BRANCH   6   5
ATOM      3  C   UNL     1      -1.201  -0.638   0.010  0.00  0.00    +0.151 A 
ATOM      4  C   UNL     1      -2.375   0.101   0.020  0.00  0.00    -0.079 A 
ATOM      5  C   UNL     1      -3.598  -0.543   0.028  0.00  0.00    -0.010 A 
ATOM     20  C   UNL     1      -3.657  -1.924   0.027  0.00  0.00    -0.076 A 
ATOM     21  C   UNL     1      -2.488  -2.670   0.017  0.00  0.00    +0.152 A 
ATOM     24  C   UNL     1      -1.256  -2.027   0.003  0.00  0.00    +0.035 A 
BRANCH   3   2
ATOM      1  C   UNL     1      -0.017   1.425   0.010  0.00  0.00    +0.245 C 
ATOM      2  O   UNL     1       0.002  -0.004   0.002  0.00  0.00    -0.300 OA
ENDBRANCH   3   2
BRANCH  21  22
ATOM     22  O   UNL     1      -2.547  -4.028   0.017  0.00  0.00    -0.299 OA
ATOM     23  C   UNL     1      -3.847  -4.621   0.026  0.00  0.00    +0.244 C 
ENDBRANCH  21  22
BRANCH  24  25
ATOM     25  O   UNL     1      -0.107  -2.755  -0.012  0.00  0.00    -0.312 OA
ATOM     26  C   UNL     1       0.454  -3.109   1.254  0.00  0.00    +0.219 C 
ENDBRANCH  24  25
ENDBRANCH   6   5
TORSDOF 4
