REMARK  Name = ZINC95486197
REMARK  15 active torsions:
REMARK  status: ('A' for Active; 'I' for Inactive)
REMARK    1  A    between atoms: C1_1  and  C2_2
REMARK    2  A    between atoms: C2_2  and  C3_3
REMARK    3  A    between atoms: C2_2  and  C4_4
REMARK    4  A    between atoms: C4_4  and  C5_5
REMARK    5  A    between atoms: C4_4  and  C6_6
REMARK    6  A    between atoms: C4_4  and  O5_40
REMARK    7  A    between atoms: C11_13  and  C30_39
REMARK    8  A    between atoms: C12_14  and  C18_22
REMARK    9  A    between atoms: C15_17  and  C16_18
REMARK   10  A    between atoms: C15_17  and  C17_19
REMARK   11  A    between atoms: C22_27  and  C29_38
REMARK   12  A    between atoms: C24_29  and  O4_37
REMARK   13  A    between atoms: C25_31  and  O3_36
REMARK   14  A    between atoms: C26_33  and  C27_34
REMARK   15  A    between atoms: C26_33  and  C28_35
REMARK                            x       y       z     vdW  Elec       q    Type
REMARK                         _______ _______ _______ _____ _____    ______ ____
ROOT
ATOM      6  C   UNL     1      -1.891   0.849  -2.552  0.00  0.00    +0.047 C 
ATOM      7  C   UNL     1      -1.492   2.303  -2.682  0.00  0.00    -0.119 C 
ATOM      8  C   UNL     1      -0.480   2.762  -2.005  0.00  0.00    -0.017 C 
ATOM      9  C   UNL     1       0.017   4.184  -2.074  0.00  0.00    +0.064 C 
ATOM     10  C   UNL     1      -0.418   4.806  -3.405  0.00  0.00    +0.013 C 
ATOM     11  C   UNL     1      -1.923   4.644  -3.539  0.00  0.00    -0.017 C 
ATOM     12  C   UNL     1      -2.621   5.144  -2.258  0.00  0.00    +0.017 C 
ATOM     13  C   UNL     1      -2.500   5.427  -4.705  0.00  0.00    +0.013 C 
ATOM     14  C   UNL     1      -1.950   6.837  -4.829  0.00  0.00    +0.013 C 
ATOM     15  C   UNL     1      -0.433   6.933  -4.766  0.00  0.00    +0.010 C 
ATOM     16  C   UNL     1       0.239   6.660  -6.091  0.00  0.00    -0.034 C 
ATOM     17  C   UNL     1      -0.092   7.822  -7.057  0.00  0.00    +0.027 C 
ATOM     18  C   UNL     1      -0.231   5.367  -6.756  0.00  0.00    +0.031 C 
ATOM     19  C   UNL     1       1.767   6.615  -5.977  0.00  0.00    +0.139 C 
ATOM     22  C   UNL     1       2.175   5.646  -4.870  0.00  0.00    +0.138 C 
ATOM     25  C   UNL     1       1.649   6.185  -3.545  0.00  0.00    +0.044 C 
ATOM     26  C   UNL     1       0.113   6.220  -3.542  0.00  0.00    -0.023 C 
ATOM     27  C   UNL     1      -0.253   7.078  -2.309  0.00  0.00    +0.024 C 
ATOM     28  C   UNL     1      -2.256   3.154  -3.667  0.00  0.00    -0.001 C 
ATOM     29  C   UNL     1      -1.815   2.666  -5.056  0.00  0.00    +0.026 C 
ATOM     30  C   UNL     1      -3.757   2.926  -3.557  0.00  0.00    +0.041 C 
ATOM     31  C   UNL     1      -4.098   1.437  -3.593  0.00  0.00    +0.072 C 
ATOM     32  C   UNL     1      -3.411   0.706  -2.445  0.00  0.00    -0.038 C 
ATOM     36  C   UNL     1      -3.769  -0.787  -2.524  0.00  0.00    +0.108 C 
ENDROOT
BRANCH  32  33
ATOM     33  C   UNL     1      -3.882   1.241  -1.118  0.00  0.00    +0.471 C 
ATOM     34  O   UNL     1      -3.237   1.017  -0.108  0.00  0.00    -0.312 OA
ATOM     35  O   UNL     1      -4.906   1.899  -1.055  0.00  0.00    -0.488 OA
ENDBRANCH  32  33
BRANCH   6   3
ATOM      3  C   UNL     1      -1.261   0.172  -1.333  0.00  0.00    +0.142 C 
ATOM     37  C   UNL     1      -2.117  -1.026  -0.916  0.00  0.00    +0.094 C 
BRANCH   3   2
ATOM      1  C   UNL     1       0.918   0.830  -2.362  0.00  0.00    +0.023 C 
ATOM      2  C   UNL     1       0.148  -0.307  -1.688  0.00  0.00    -0.029 C 
ATOM     38  C   UNL     1       0.878  -0.731  -0.412  0.00  0.00    +0.031 C 
ENDBRANCH   3   2
BRANCH   3   4
ATOM      4  O   UNL     1      -1.190   1.106  -0.254  0.00  0.00    -0.519 OA
ATOM      5  H   UNL     1      -1.293   2.028  -0.524  0.00  0.00    +0.379 HD
ENDBRANCH   3   4
ENDBRANCH   6   3
BRANCH  19  20
ATOM     20  O   UNL     1       2.262   7.923  -5.686  0.00  0.00    -0.552 OA
ATOM     21  H   UNL     1       3.224   7.971  -5.611  0.00  0.00    +0.378 HD
ENDBRANCH  19  20
BRANCH  22  23
ATOM     23  O   UNL     1       3.603   5.563  -4.817  0.00  0.00    -0.568 OA
ATOM     24  H   UNL     1       4.008   5.227  -5.629  0.00  0.00    +0.376 HD
ENDBRANCH  22  23
TORSDOF 6
