REMARK  Name = ZINC95486157
REMARK  7 active torsions:
REMARK  status: ('A' for Active; 'I' for Inactive)
REMARK    1  A    between atoms: C1_1  and  C2_2
REMARK    2  A    between atoms: C2_2  and  C5_6
REMARK    3  A    between atoms: C3_3  and  C4_4
REMARK    4  A    between atoms: C4_4  and  O1_5
REMARK    5  A    between atoms: C8_11  and  C15_21
REMARK    6  A    between atoms: C12_16  and  C13_17
REMARK    7  A    between atoms: C12_16  and  C14_18
REMARK                            x       y       z     vdW  Elec       q    Type
REMARK                         _______ _______ _______ _____ _____    ______ ____
ROOT
ATOM      3  C   UNL     1      -0.214  -0.775  -1.293  0.00  0.00    +0.182 C 
ATOM      4  C   UNL     1      -1.576  -0.592  -1.806  0.00  0.00    +0.028 C 
ATOM      5  C   UNL     1      -1.804  -1.111  -3.245  0.00  0.00    -0.011 C 
ATOM      6  C   UNL     1      -0.733  -0.596  -4.157  0.00  0.00    +0.111 C 
ATOM      7  C   UNL     1      -0.839   0.992  -4.264  0.00  0.00    +0.053 C 
ATOM      8  O   UNL     1       0.545  -0.858  -3.593  0.00  0.00    -0.187 OA
ATOM      9  C   UNL     1      -0.769  -1.178  -5.490  0.00  0.00    +0.079 C 
ATOM     10  C   UNL     1      -1.522  -2.190  -5.856  0.00  0.00    -0.031 C 
ATOM     11  C   UNL     1      -2.358  -2.832  -4.888  0.00  0.00    +0.367 C 
ATOM     12  O   UNL     1      -3.352  -3.508  -5.180  0.00  0.00    -0.448 OA
ATOM     13  C   UNL     1      -2.103  -2.544  -3.357  0.00  0.00    -0.080 C 
ATOM     14  C   UNL     1      -3.279  -3.002  -2.529  0.00  0.00    +0.072 C 
ATOM     15  C   UNL     1      -0.822  -3.361  -3.017  0.00  0.00    +0.049 C 
ATOM     16  O   UNL     1       0.742  -0.269  -2.194  0.00  0.00    -0.175 OA
ENDROOT
BRANCH   3   2
ATOM      1  C   UNL     1      -0.207   1.487   0.019  0.00  0.00    +0.090 C 
ATOM      2  C   UNL     1      -0.090  -0.016   0.009  0.00  0.00    -0.123 C 
ATOM     17  C   UNL     1       0.121  -0.664   1.128  0.00  0.00    -0.011 C 
BRANCH  17  18
ATOM     18  C   UNL     1       0.123   0.078   2.439  0.00  0.00    +0.221 C 
BRANCH  18  19
ATOM     19  O   UNL     1      -0.631  -0.658   3.405  0.00  0.00    -0.570 OA
ATOM     20  H   UNL     1      -0.672  -0.238   4.275  0.00  0.00    +0.384 HD
ENDBRANCH  18  19
ENDBRANCH  17  18
ENDBRANCH   3   2
TORSDOF 3
