REMARK  Name = ZINC95486162
REMARK  13 active torsions:
REMARK  status: ('A' for Active; 'I' for Inactive)
REMARK    1  A    between atoms: C1_1  and  C2_2
REMARK    2  A    between atoms: C6_6  and  O1_8
REMARK    3  A    between atoms: O1_8  and  C8_9
REMARK    4  A    between atoms: C9_10  and  O4_33
REMARK    5  A    between atoms: C11_12  and  C26_32
REMARK    6  A    between atoms: C12_13  and  C13_14
REMARK    7  A    between atoms: C14_15  and  O3_30
REMARK    8  A    between atoms: C16_17  and  O2_28
REMARK    9  A    between atoms: C20_21  and  C23_27
REMARK   10  A    between atoms: C21_24  and  C22_26
REMARK   11  A    between atoms: O2_28  and  C24_29
REMARK   12  A    between atoms: O3_30  and  C25_31
REMARK   13  A    between atoms: O4_33  and  C27_34
REMARK                            x       y       z     vdW  Elec       q    Type
REMARK                         _______ _______ _______ _____ _____    ______ ____
ROOT
ATOM     16  C   UNL     1      -0.441  -2.496  -4.666  0.00  0.00    -0.078 A 
ATOM     17  C   UNL     1      -1.440  -2.285  -5.622  0.00  0.00    +0.210 A 
ATOM     20  C   UNL     1      -1.158  -1.543  -6.755  0.00  0.00    -0.147 A 
ATOM     21  C   UNL     1       0.110  -1.015  -6.937  0.00  0.00    +0.202 A 
ATOM     24  C   UNL     1       1.109  -1.224  -5.987  0.00  0.00    -0.206 A 
ATOM     25  C   UNL     1       2.471  -0.632  -6.236  0.00  0.00    +0.244 C 
ATOM     26  C   UNL     1       2.312   0.777  -6.812  0.00  0.00    +0.098 C 
ATOM     27  N   UNL     1       3.232  -0.545  -4.982  0.00  0.00    -0.505 N 
ATOM     28  H   UNL     1       4.173  -0.239  -5.180  0.00  0.00    +0.430 HD
ATOM     29  H   UNL     1       2.788   0.108  -4.354  0.00  0.00    +0.427 HD
ATOM     30  C   UNL     1       3.268  -1.878  -4.361  0.00  0.00    +0.173 C 
ATOM     31  C   UNL     1       4.299  -1.896  -3.232  0.00  0.00    +0.093 C 
ATOM     32  C   UNL     1       1.881  -2.190  -3.796  0.00  0.00    +0.137 C 
ATOM     33  C   UNL     1       0.834  -1.953  -4.854  0.00  0.00    -0.002 A 
ENDROOT
BRANCH  16  15
ATOM      1  C   UNL     1      -2.139   0.811  -1.095  0.00  0.00    +0.092 C 
ATOM      2  C   UNL     1      -1.912  -0.678  -1.118  0.00  0.00    -0.013 A 
ATOM      3  C   UNL     1      -1.440  -1.267  -2.253  0.00  0.00    -0.054 A 
ATOM      4  C   UNL     1      -1.225  -2.653  -2.285  0.00  0.00    +0.053 A 
ATOM      5  C   UNL     1      -1.501  -3.429  -1.135  0.00  0.00    -0.109 A 
ATOM      6  C   UNL     1      -1.284  -4.821  -1.167  0.00  0.00    +0.190 A 
ATOM      9  C   UNL     1      -0.806  -5.414  -2.315  0.00  0.00    -0.114 A 
ATOM     10  C   UNL     1      -0.533  -4.659  -3.448  0.00  0.00    +0.005 A 
ATOM     11  C   UNL     1      -0.011  -5.338  -4.688  0.00  0.00    +0.093 C 
ATOM     12  C   UNL     1      -1.988  -2.795   0.025  0.00  0.00    +0.181 A 
ATOM     15  C   UNL     1      -0.735  -3.289  -3.452  0.00  0.00    -0.107 A 
ATOM     34  C   UNL     1      -2.181  -1.431   0.021  0.00  0.00    -0.113 A 
BRANCH   6   7
ATOM      7  O   UNL     1      -1.544  -5.575  -0.068  0.00  0.00    -0.288 OA
ATOM      8  C   UNL     1      -1.300  -6.980  -0.173  0.00  0.00    +0.245 C 
ENDBRANCH   6   7
BRANCH  12  13
ATOM     13  O   UNL     1      -2.259  -3.521   1.140  0.00  0.00    -0.289 OA
ATOM     14  C   UNL     1      -2.750  -2.807   2.276  0.00  0.00    +0.245 C 
ENDBRANCH  12  13
ENDBRANCH  16  15
BRANCH  17  18
ATOM     18  O   UNL     1      -2.681  -2.807  -5.439  0.00  0.00    -0.291 OA
ATOM     19  C   UNL     1      -3.650  -2.550  -6.457  0.00  0.00    +0.252 C 
ENDBRANCH  17  18
BRANCH  21  22
ATOM     22  O   UNL     1       0.383  -0.287  -8.051  0.00  0.00    -0.308 OA
ATOM     23  C   UNL     1      -0.683  -0.109  -8.987  0.00  0.00    +0.253 C 
ENDBRANCH  21  22
TORSDOF 5
