REMARK  Name = ZINC95485969
REMARK  16 active torsions:
REMARK  status: ('A' for Active; 'I' for Inactive)
REMARK    1  A    between atoms: C1_1  and  C2_2
REMARK    2  A    between atoms: C2_2  and  C3_3
REMARK    3  A    between atoms: C3_3  and  C31_37
REMARK    4  A    between atoms: C4_4  and  C5_5
REMARK    5  A    between atoms: C5_5  and  C6_6
REMARK    6  A    between atoms: C6_6  and  C7_7
REMARK    7  A    between atoms: C10_10  and  O2_19
REMARK    8  A    between atoms: C13_14  and  C16_17
REMARK    9  A    between atoms: C13_14  and  C17_18
REMARK   10  A    between atoms: C21_24  and  O6_36
REMARK   11  A    between atoms: C22_25  and  C25_30
REMARK   12  A    between atoms: C23_26  and  O5_29
REMARK   13  A    between atoms: C25_30  and  C26_31
REMARK   14  A    between atoms: C26_31  and  C27_32
REMARK   15  A    between atoms: C28_33  and  C29_34
REMARK   16  A    between atoms: C28_33  and  C30_35
REMARK                            x       y       z     vdW  Elec       q    Type
REMARK                         _______ _______ _______ _____ _____    ______ ____
ROOT
ATOM      8  C   UNL     1      -4.725   0.665  -5.330  0.00  0.00    -0.144 A 
ATOM      9  C   UNL     1      -4.828  -0.399  -6.219  0.00  0.00    +0.212 A 
ATOM     10  C   UNL     1      -6.093  -0.762  -6.718  0.00  0.00    -0.283 A 
ATOM     11  C   UNL     1      -6.181  -1.905  -7.644  0.00  0.00    +0.443 A 
ATOM     12  C   UNL     1      -4.972  -2.752  -7.743  0.00  0.00    -0.198 A 
ATOM     13  C   UNL     1      -5.016  -3.996  -8.371  0.00  0.00    +0.091 A 
ATOM     14  C   UNL     1      -3.871  -4.767  -8.442  0.00  0.00    +0.096 A 
ATOM     17  C   UNL     1      -2.683  -4.302  -7.889  0.00  0.00    -0.070 A 
ATOM     24  C   UNL     1      -2.630  -3.069  -7.267  0.00  0.00    +0.106 A 
ATOM     27  C   UNL     1      -3.776  -2.275  -7.189  0.00  0.00    +0.125 A 
ATOM     28  O   UNL     1      -7.188  -2.138  -8.289  0.00  0.00    -0.427 OA
ATOM     29  C   UNL     1      -7.241  -0.057  -6.336  0.00  0.00    +0.243 A 
ATOM     32  C   UNL     1      -7.117   1.004  -5.445  0.00  0.00    -0.190 A 
ATOM     33  C   UNL     1      -8.296   1.781  -5.005  0.00  0.00    +0.057 C 
ATOM     34  C   UNL     1      -8.090   2.957  -4.420  0.00  0.00    -0.049 C 
ATOM     35  C   UNL     1      -6.686   3.475  -4.252  0.00  0.00    +0.146 C 
ATOM     36  C   UNL     1      -6.288   4.267  -5.499  0.00  0.00    +0.037 C 
ATOM     37  C   UNL     1      -6.632   4.397  -3.032  0.00  0.00    +0.088 C 
ATOM     38  O   UNL     1      -5.770   2.396  -4.067  0.00  0.00    -0.287 OA
ATOM     39  O   UNL     1      -3.717  -1.065  -6.594  0.00  0.00    -0.208 OA
ATOM     40  C   UNL     1      -5.853   1.359  -4.939  0.00  0.00    +0.217 A 
ENDROOT
BRANCH  14  15
ATOM     15  O   UNL     1      -3.906  -5.981  -9.053  0.00  0.00    -0.482 OA
ATOM     16  H   UNL     1      -3.708  -5.952  -9.998  0.00  0.00    +0.392 HD
ENDBRANCH  14  15
BRANCH  24  25
ATOM     25  O   UNL     1      -1.461  -2.628  -6.731  0.00  0.00    -0.472 OA
ATOM     26  H   UNL     1      -0.912  -2.122  -7.345  0.00  0.00    +0.392 HD
ENDBRANCH  24  25
BRANCH  29  30
ATOM     30  O   UNL     1      -8.456  -0.404  -6.827  0.00  0.00    -0.468 OA
ATOM     31  H   UNL     1      -8.924  -1.060  -6.292  0.00  0.00    +0.401 HD
ENDBRANCH  29  30
BRANCH   8   7
ATOM      7  C   UNL     1      -3.376   1.059  -4.785  0.00  0.00    +0.105 C 
BRANCH   7   6
ATOM      6  C   UNL     1      -3.098   0.280  -3.498  0.00  0.00    +0.055 C 
BRANCH   6   5
ATOM      3  C   UNL     1      -1.655   1.201  -1.758  0.00  0.00    -0.127 C 
ATOM      4  C   UNL     1      -2.871   1.286  -0.873  0.00  0.00    +0.071 C 
ATOM      5  C   UNL     1      -1.750   0.674  -2.954  0.00  0.00    -0.050 C 
BRANCH   3   2
ATOM      1  C   UNL     1      -0.238   3.224  -1.537  0.00  0.00    +0.019 C 
ATOM      2  C   UNL     1      -0.328   1.721  -1.267  0.00  0.00    +0.044 C 
ENDBRANCH   3   2
ENDBRANCH   6   5
ENDBRANCH   7   6
ENDBRANCH   8   7
BRANCH  17  18
ATOM     18  C   UNL     1      -1.440  -5.151  -7.968  0.00  0.00    +0.100 C 
BRANCH  18  19
ATOM     19  C   UNL     1      -0.677  -4.820  -9.252  0.00  0.00    +0.056 C 
BRANCH  19  20
ATOM     20  C   UNL     1       0.566  -5.669  -9.331  0.00  0.00    -0.059 C 
ATOM     21  C   UNL     1       0.738  -6.485 -10.341  0.00  0.00    -0.126 C 
ATOM     22  C   UNL     1       2.042  -7.225 -10.498  0.00  0.00    +0.073 C 
ATOM     23  C   UNL     1      -0.366  -6.683 -11.347  0.00  0.00    +0.073 C 
ENDBRANCH  19  20
ENDBRANCH  18  19
ENDBRANCH  17  18
TORSDOF 10
