REMARK  Name = ZINC95486229
REMARK  18 active torsions:
REMARK  status: ('A' for Active; 'I' for Inactive)
REMARK    1  A    between atoms: C1_1  and  C2_2
REMARK    2  A    between atoms: C2_2  and  C3_4
REMARK    3  A    between atoms: C2_2  and  C9_10
REMARK    4  A    between atoms: C3_4  and  C4_5
REMARK    5  A    between atoms: C4_5  and  C5_6
REMARK    6  A    between atoms: C6_7  and  C7_8
REMARK    7  A    between atoms: C6_7  and  C8_9
REMARK    8  A    between atoms: C12_14  and  C36_55
REMARK    9  A    between atoms: C13_15  and  C35_54
REMARK   10  A    between atoms: C23_27  and  O8_53
REMARK   11  A    between atoms: C25_30  and  C29_37
REMARK   12  A    between atoms: C26_32  and  C27_33
REMARK   13  A    between atoms: C26_32  and  C28_34
REMARK   14  A    between atoms: C30_39  and  O7_52
REMARK   15  A    between atoms: C31_41  and  O6_51
REMARK   16  A    between atoms: C32_43  and  O5_50
REMARK   17  A    between atoms: C33_45  and  C34_48
REMARK   18  A    between atoms: C34_48  and  O4_49
REMARK                            x       y       z     vdW  Elec       q    Type
REMARK                         _______ _______ _______ _____ _____    ______ ____
ROOT
ATOM      3  C   UNL     1      -0.438   0.927  -0.944  0.00  0.00    +0.002 C 
ATOM      4  C   UNL     1      -1.180   1.128  -2.294  0.00  0.00    +0.002 C 
ATOM      5  C   UNL     1      -1.443  -0.287  -2.869  0.00  0.00    +0.004 C 
ATOM      6  C   UNL     1      -1.115  -1.231  -1.707  0.00  0.00    -0.038 C 
ATOM      7  C   UNL     1      -2.305  -1.235  -0.742  0.00  0.00    +0.037 C 
ATOM      8  C   UNL     1      -0.730  -2.641  -2.092  0.00  0.00    +0.037 C 
ATOM      9  C   UNL     1      -1.825  -3.352  -2.846  0.00  0.00    -0.003 C 
ATOM     10  C   UNL     1      -2.930  -3.964  -2.021  0.00  0.00    +0.028 C 
ATOM     11  C   UNL     1      -2.495  -4.770  -0.848  0.00  0.00    +0.010 C 
ATOM     12  C   UNL     1      -1.180  -4.427  -0.203  0.00  0.00    -0.045 C 
ATOM     13  C   UNL     1      -1.067  -4.546   1.318  0.00  0.00    +0.193 C 
ATOM     16  C   UNL     1      -1.975  -5.602   1.901  0.00  0.00    -0.018 C 
ATOM     17  C   UNL     1      -3.401  -5.470   1.416  0.00  0.00    +0.079 C 
ATOM     33  C   UNL     1       0.055  -4.885  -1.011  0.00  0.00    -0.026 C 
ATOM     34  C   UNL     1      -3.518  -5.537  -0.091  0.00  0.00    -0.103 C 
ATOM     38  C   UNL     1      -3.411  -7.008  -0.510  0.00  0.00    +0.028 C 
ATOM     39  C   UNL     1      -0.265  -3.386  -0.842  0.00  0.00    -0.073 C 
ATOM     40  C   UNL     1       0.772  -2.654   0.024  0.00  0.00    +0.039 C 
ATOM     41  C   UNL     1       0.404  -1.189   0.271  0.00  0.00    +0.032 C 
ATOM     42  C   UNL     1       0.090  -0.517  -1.046  0.00  0.00    -0.044 C 
ATOM     43  C   UNL     1       1.325  -0.519  -1.957  0.00  0.00    +0.017 C 
ENDROOT
BRANCH  17  18
ATOM     18  C   UNL     1      -4.242  -6.592   2.028  0.00  0.00    +0.180 C 
ATOM     19  C   UNL     1      -4.337  -6.391   3.542  0.00  0.00    +0.162 C 
ATOM     22  C   UNL     1      -5.129  -7.550   4.155  0.00  0.00    +0.152 C 
ATOM     25  C   UNL     1      -4.447  -8.871   3.785  0.00  0.00    +0.126 C 
ATOM     28  C   UNL     1      -4.348  -8.976   2.261  0.00  0.00    +0.126 C 
ATOM     32  O   UNL     1      -3.627  -7.852   1.753  0.00  0.00    -0.334 OA
BRANCH  19  20
ATOM     20  O   UNL     1      -5.003  -5.157   3.819  0.00  0.00    -0.533 OA
ATOM     21  H   UNL     1      -5.099  -4.965   4.762  0.00  0.00    +0.377 HD
ENDBRANCH  19  20
BRANCH  22  23
ATOM     23  O   UNL     1      -5.162  -7.408   5.576  0.00  0.00    -0.561 OA
ATOM     24  H   UNL     1      -5.648  -8.110   6.030  0.00  0.00    +0.385 HD
ENDBRANCH  22  23
BRANCH  25  26
ATOM     26  O   UNL     1      -5.216  -9.964   4.292  0.00  0.00    -0.561 OA
ATOM     27  H   UNL     1      -4.842 -10.833   4.094  0.00  0.00    +0.380 HD
ENDBRANCH  25  26
BRANCH  28  29
ATOM     29  C   UNL     1      -3.614 -10.265   1.886  0.00  0.00    +0.194 C 
BRANCH  29  30
ATOM     30  O   UNL     1      -3.623 -10.422   0.465  0.00  0.00    -0.550 OA
ATOM     31  H   UNL     1      -3.175 -11.220   0.155  0.00  0.00    +0.376 HD
ENDBRANCH  29  30
ENDBRANCH  28  29
ENDBRANCH  17  18
BRANCH  34  35
ATOM     35  C   UNL     1      -4.896  -5.053  -0.464  0.00  0.00    +0.506 C 
ATOM     36  O   UNL     1      -5.370  -4.078   0.092  0.00  0.00    -0.689 OA
ATOM     37  O   UNL     1      -5.536  -5.638  -1.321  0.00  0.00    -0.703 OA
ENDBRANCH  34  35
BRANCH   3   2
ATOM      1  C   UNL     1       0.190   3.329  -0.649  0.00  0.00    +0.005 C 
ATOM      2  C   UNL     1       0.732   1.910  -0.828  0.00  0.00    -0.013 C 
BRANCH   2  44
ATOM     44  C   UNL     1       1.594   1.537   0.380  0.00  0.00    +0.022 C 
BRANCH  44  45
ATOM     45  C   UNL     1       2.769   2.511   0.488  0.00  0.00    +0.040 C 
BRANCH  45  46
ATOM     46  C   UNL     1       3.618   2.143   1.678  0.00  0.00    -0.051 C 
ATOM     47  C   UNL     1       4.893   1.889   1.519  0.00  0.00    -0.144 C 
ATOM     48  C   UNL     1       5.757   1.590   2.717  0.00  0.00    +0.067 C 
ATOM     49  C   UNL     1       5.496   1.895   0.138  0.00  0.00    +0.069 C 
ENDBRANCH  45  46
ENDBRANCH  44  45
ENDBRANCH   2  44
ENDBRANCH   3   2
BRANCH  13  14
ATOM     14  O   UNL     1      -1.403  -3.290   1.910  0.00  0.00    -0.548 OA
ATOM     15  H   UNL     1      -1.355  -3.284   2.876  0.00  0.00    +0.363 HD
ENDBRANCH  13  14
TORSDOF 12
