REMARK  Name = ZINC95486049
REMARK  10 active torsions:
REMARK  status: ('A' for Active; 'I' for Inactive)
REMARK    1  A    between atoms: C1_1  and  C2_2
REMARK    2  A    between atoms: C2_2  and  C24_29
REMARK    3  A    between atoms: C3_3  and  C4_4
REMARK    4  A    between atoms: C4_4  and  C5_5
REMARK    5  A    between atoms: C7_7  and  C15_16
REMARK    6  A    between atoms: C9_9  and  C11_12
REMARK    7  A    between atoms: C10_10  and  O1_11
REMARK    8  A    between atoms: C12_13  and  C13_14
REMARK    9  A    between atoms: C12_13  and  C14_15
REMARK   10  A    between atoms: C21_24  and  O4_28
REMARK                            x       y       z     vdW  Elec       q    Type
REMARK                         _______ _______ _______ _____ _____    ______ ____
ROOT
ATOM      6  C   UNL     1      -0.837  -0.370   4.337  0.00  0.00    -0.096 A 
ATOM      7  C   UNL     1      -0.606  -1.020   5.536  0.00  0.00    +0.042 A 
ATOM      8  C   UNL     1      -1.664  -1.517   6.276  0.00  0.00    -0.099 A 
ATOM     22  C   UNL     1      -2.959  -1.369   5.825  0.00  0.00    +0.063 A 
ATOM     23  C   UNL     1      -3.204  -0.716   4.617  0.00  0.00    -0.070 A 
ATOM     28  C   UNL     1      -2.132  -0.209   3.873  0.00  0.00    +0.130 A 
ENDROOT
BRANCH   8   9
ATOM      9  C   UNL     1      -1.400  -2.223   7.581  0.00  0.00    +0.239 C 
ATOM     10  C   UNL     1      -1.335  -3.739   7.340  0.00  0.00    +0.038 C 
ATOM     11  C   UNL     1      -1.101  -4.398   8.687  0.00  0.00    +0.403 C 
ATOM     12  C   UNL     1      -1.834  -3.835   9.830  0.00  0.00    -0.265 A 
ATOM     13  C   UNL     1      -1.886  -4.516  11.050  0.00  0.00    +0.135 A 
ATOM     14  C   UNL     1      -2.567  -3.973  12.102  0.00  0.00    -0.050 A 
ATOM     15  C   UNL     1      -3.209  -2.745  11.964  0.00  0.00    +0.181 A 
ATOM     18  C   UNL     1      -3.168  -2.059  10.759  0.00  0.00    -0.044 A 
ATOM     19  C   UNL     1      -2.485  -2.597   9.680  0.00  0.00    +0.201 A 
ATOM     20  O   UNL     1      -0.348  -5.341   8.814  0.00  0.00    -0.441 OA
ATOM     21  O   UNL     1      -2.453  -1.936   8.500  0.00  0.00    -0.299 OA
BRANCH  15  16
ATOM     16  O   UNL     1      -3.881  -2.214  13.017  0.00  0.00    -0.493 OA
ATOM     17  H   UNL     1      -3.340  -1.647  13.582  0.00  0.00    +0.402 HD
ENDBRANCH  15  16
ENDBRANCH   8   9
BRANCH  23  24
ATOM     24  C   UNL     1      -4.589  -0.555   4.128  0.00  0.00    -0.009 C 
ATOM     25  C   UNL     1      -5.463  -1.542   4.273  0.00  0.00    -0.108 C 
ATOM     26  C   UNL     1      -6.910  -1.326   3.914  0.00  0.00    +0.083 C 
ATOM     27  C   UNL     1      -5.008  -2.880   4.797  0.00  0.00    +0.075 C 
ENDBRANCH  23  24
BRANCH  28  29
ATOM     29  O   UNL     1      -2.360   0.434   2.699  0.00  0.00    -0.488 OA
ATOM     30  H   UNL     1      -2.367  -0.149   1.927  0.00  0.00    +0.389 HD
ENDBRANCH  28  29
BRANCH   6   5
ATOM      5  C   UNL     1       0.322   0.168   3.538  0.00  0.00    +0.117 C 
BRANCH   5   4
ATOM      1  C   UNL     1       0.512   1.114   0.888  0.00  0.00    +0.076 C 
ATOM      2  C   UNL     1       0.676  -0.355   1.180  0.00  0.00    -0.123 C 
ATOM      3  C   UNL     1       0.875  -1.330   0.048  0.00  0.00    +0.072 C 
ATOM      4  C   UNL     1       0.645  -0.785   2.417  0.00  0.00    -0.060 C 
ENDBRANCH   5   4
ENDBRANCH   6   5
TORSDOF 6
