REMARK  Name = ZINC95486378
REMARK  12 active torsions:
REMARK  status: ('A' for Active; 'I' for Inactive)
REMARK    1  A    between atoms: C1_1  and  C2_2
REMARK    2  A    between atoms: C6_7  and  O8_50
REMARK    3  A    between atoms: C8_9  and  C32_40
REMARK    4  A    between atoms: C11_13  and  C21_27
REMARK    5  A    between atoms: C18_22  and  O3_26
REMARK    6  A    between atoms: C24_30  and  O5_39
REMARK    7  A    between atoms: C25_31  and  C27_34
REMARK    8  A    between atoms: C26_32  and  O4_33
REMARK    9  A    between atoms: C27_34  and  C28_35
REMARK   10  A    between atoms: C29_36  and  C30_37
REMARK   11  A    between atoms: C29_36  and  C31_38
REMARK   12  A    between atoms: C37_45  and  O7_49
REMARK                            x       y       z     vdW  Elec       q    Type
REMARK                         _______ _______ _______ _____ _____    ______ ____
ROOT
ATOM      1  C   UNL     1       1.170   1.809  -2.002  0.00  0.00    +0.073 C 
ATOM      2  C   UNL     1       0.805   0.366  -1.765  0.00  0.00    -0.123 C 
ATOM      3  C   UNL     1       0.769  -0.422  -2.802  0.00  0.00    -0.016 C 
ATOM      4  C   UNL     1       0.404  -1.869  -2.683  0.00  0.00    +0.100 C 
ATOM      5  C   UNL     1       1.145  -2.771  -3.623  0.00  0.00    -0.099 A 
ATOM      6  C   UNL     1       1.876  -2.327  -4.701  0.00  0.00    +0.142 A 
ATOM      9  C   UNL     1       2.529  -3.245  -5.512  0.00  0.00    +0.016 A 
ATOM     10  C   UNL     1       2.443  -4.609  -5.233  0.00  0.00    +0.011 A 
ATOM     22  C   UNL     1       1.697  -5.055  -4.138  0.00  0.00    +0.034 A 
ATOM     23  C   UNL     1       1.051  -4.139  -3.339  0.00  0.00    +0.151 A 
ATOM     24  O   UNL     1       0.296  -4.495  -2.260  0.00  0.00    -0.295 OA
ATOM     25  C   UNL     1       0.554  -3.798  -1.043  0.00  0.00    +0.370 C 
ATOM     41  O   UNL     1      -0.417  -4.105  -0.045  0.00  0.00    -0.292 OA
ATOM     42  C   UNL     1      -0.269  -3.438   1.122  0.00  0.00    +0.132 A 
ATOM     43  C   UNL     1      -0.279  -4.072   2.347  0.00  0.00    -0.015 A 
ATOM     44  C   UNL     1      -0.113  -3.323   3.505  0.00  0.00    +0.134 A 
ATOM     47  C   UNL     1       0.061  -1.948   3.427  0.00  0.00    -0.018 A 
ATOM     48  C   UNL     1       0.068  -1.315   2.196  0.00  0.00    +0.065 A 
ATOM     49  C   UNL     1      -0.098  -2.054   1.050  0.00  0.00    -0.136 A 
ATOM     50  C   UNL     1      -0.110  -1.446  -0.323  0.00  0.00    +0.061 C 
ATOM     51  C   UNL     1       0.731  -2.321  -1.256  0.00  0.00    -0.038 C 
ATOM     52  C   UNL     1       0.518  -0.050  -0.348  0.00  0.00    +0.087 C 
ENDROOT
BRANCH  10  11
ATOM     11  C   UNL     1       3.141  -5.585  -6.097  0.00  0.00    +0.081 A 
ATOM     12  C   UNL     1       3.893  -5.269  -7.177  0.00  0.00    -0.018 A 
ATOM     13  C   UNL     1       4.383  -6.540  -7.717  0.00  0.00    -0.136 A 
ATOM     14  C   UNL     1       5.190  -6.890  -8.801  0.00  0.00    +0.083 A 
ATOM     15  C   UNL     1       5.469  -8.205  -9.043  0.00  0.00    -0.019 A 
ATOM     16  C   UNL     1       4.952  -9.198  -8.216  0.00  0.00    +0.136 A 
ATOM     19  C   UNL     1       4.149  -8.869  -7.138  0.00  0.00    +0.002 A 
ATOM     20  C   UNL     1       3.857  -7.537  -6.876  0.00  0.00    +0.075 A 
ATOM     21  O   UNL     1       3.128  -6.922  -5.923  0.00  0.00    -0.185 OA
BRANCH  16  17
ATOM     17  O   UNL     1       5.237 -10.503  -8.469  0.00  0.00    -0.492 OA
ATOM     18  H   UNL     1       6.036 -10.824  -8.028  0.00  0.00    +0.395 HD
ENDBRANCH  16  17
ENDBRANCH  10  11
BRANCH  25  26
ATOM     26  C   UNL     1       1.878  -4.299  -0.528  0.00  0.00    -0.184 A 
ATOM     27  C   UNL     1       1.918  -5.151   0.559  0.00  0.00    +0.073 A 
ATOM     28  C   UNL     1       3.131  -5.612   1.034  0.00  0.00    -0.013 A 
ATOM     29  C   UNL     1       4.312  -5.221   0.419  0.00  0.00    +0.138 A 
ATOM     32  C   UNL     1       4.275  -4.367  -0.671  0.00  0.00    -0.122 A 
ATOM     38  C   UNL     1       3.056  -3.910  -1.150  0.00  0.00    +0.140 A 
BRANCH  29  30
ATOM     30  O   UNL     1       5.505  -5.675   0.887  0.00  0.00    -0.491 OA
ATOM     31  H   UNL     1       5.798  -6.501   0.480  0.00  0.00    +0.392 HD
ENDBRANCH  29  30
BRANCH  38  39
ATOM     39  O   UNL     1       3.015  -3.077  -2.223  0.00  0.00    -0.474 OA
ATOM     40  H   UNL     1       3.058  -2.138  -1.994  0.00  0.00    +0.378 HD
ENDBRANCH  38  39
BRANCH  32  33
ATOM     33  C   UNL     1       5.556  -3.940  -1.341  0.00  0.00    +0.121 C 
BRANCH  33  34
ATOM     34  C   UNL     1       5.899  -4.916  -2.437  0.00  0.00    -0.046 C 
ATOM     35  C   UNL     1       7.075  -5.492  -2.456  0.00  0.00    -0.130 C 
ATOM     36  C   UNL     1       7.371  -6.569  -3.468  0.00  0.00    +0.071 C 
ATOM     37  C   UNL     1       8.133  -5.079  -1.465  0.00  0.00    +0.074 C 
ENDBRANCH  33  34
ENDBRANCH  32  33
ENDBRANCH  25  26
BRANCH   6   7
ATOM      7  O   UNL     1       1.958  -0.997  -4.970  0.00  0.00    -0.484 OA
ATOM      8  H   UNL     1       2.700  -0.553  -4.537  0.00  0.00    +0.390 HD
ENDBRANCH   6   7
BRANCH  44  45
ATOM     45  O   UNL     1      -0.122  -3.938   4.717  0.00  0.00    -0.494 OA
ATOM     46  H   UNL     1      -0.999  -4.002   5.119  0.00  0.00    +0.395 HD
ENDBRANCH  44  45
TORSDOF 9
