REMARK  Name = ZINC95486217
REMARK  1 active torsions:
REMARK  status: ('A' for Active; 'I' for Inactive)
REMARK    1  A    between atoms: C17_20  and  C18_21
REMARK                            x       y       z     vdW  Elec       q    Type
REMARK                         _______ _______ _______ _____ _____    ______ ____
ROOT
ATOM      1  C   UNL     1      -0.017   1.362   0.009  0.00  0.00    -0.098 A 
ATOM      2  C   UNL     1       1.168   2.089   0.002  0.00  0.00    -0.020 A 
ATOM      3  C   UNL     1       2.378   1.457  -0.012  0.00  0.00    -0.008 A 
ATOM      4  C   UNL     1       2.429   0.058  -0.020  0.00  0.00    +0.048 A 
ATOM      5  C   UNL     1       1.224  -0.679  -0.013  0.00  0.00    -0.125 A 
ATOM      6  C   UNL     1       1.286  -2.145  -0.022  0.00  0.00    +0.044 A 
ATOM      7  C   UNL     1       2.543  -2.782  -0.036  0.00  0.00    -0.095 A 
ATOM      8  C   UNL     1       2.608  -4.196  -0.044  0.00  0.00    +0.060 A 
ATOM      9  C   UNL     1       3.929  -4.840  -0.058  0.00  0.00    -0.263 A 
ATOM     10  C   UNL     1       5.031  -4.078  -0.064  0.00  0.00    +0.258 A 
ATOM     11  N   UNL     1       4.961  -2.706  -0.057  0.00  0.00    -0.585 NA
ATOM     12  C   UNL     1       1.437  -4.941  -0.040  0.00  0.00    -0.099 A 
ATOM     13  C   UNL     1       0.200  -4.304  -0.027  0.00  0.00    +0.070 A 
ATOM     14  O   UNL     1      -1.067  -4.815  -0.022  0.00  0.00    -0.326 OA
ATOM     15  C   UNL     1      -1.923  -3.729  -0.421  0.00  0.00    +0.387 C 
ATOM     16  O   UNL     1      -1.199  -2.556  -0.006  0.00  0.00    -0.310 OA
ATOM     17  C   UNL     1       3.743  -2.038  -0.043  0.00  0.00    +0.217 A 
ATOM     18  C   UNL     1       0.118  -2.917  -0.018  0.00  0.00    -0.081 A 
ATOM     19  C   UNL     1       3.711  -0.650  -0.035  0.00  0.00    -0.118 A 
ATOM     40  C   UNL     1       0.002  -0.004   0.002  0.00  0.00    +0.044 A 
ENDROOT
BRANCH  19  20
ATOM     20  C   UNL     1       4.974   0.115  -0.042  0.00  0.00    -0.118 A 
ATOM     21  C   UNL     1       5.583   0.505  -1.315  0.00  0.00    +0.047 A 
ATOM     22  C   UNL     1       4.988   0.162  -2.535  0.00  0.00    -0.008 A 
ATOM     23  C   UNL     1       5.580   0.538  -3.706  0.00  0.00    -0.020 A 
ATOM     24  C   UNL     1       6.768   1.257  -3.705  0.00  0.00    -0.097 A 
ATOM     25  C   UNL     1       7.373   1.607  -2.531  0.00  0.00    +0.044 A 
ATOM     26  C   UNL     1       6.792   1.237  -1.317  0.00  0.00    -0.125 A 
ATOM     27  C   UNL     1       7.409   1.593  -0.034  0.00  0.00    +0.044 A 
ATOM     28  C   UNL     1       6.786   1.196   1.165  0.00  0.00    -0.095 A 
ATOM     29  C   UNL     1       7.379   1.536   2.405  0.00  0.00    +0.060 A 
ATOM     30  C   UNL     1       8.564   2.257   2.429  0.00  0.00    -0.099 A 
ATOM     31  C   UNL     1       9.173   2.646   1.240  0.00  0.00    +0.070 A 
ATOM     32  O   UNL     1      10.323   3.349   1.014  0.00  0.00    -0.326 OA
ATOM     33  C   UNL     1      10.235   3.803  -0.350  0.00  0.00    +0.387 C 
ATOM     34  O   UNL     1       9.397   2.817  -0.982  0.00  0.00    -0.310 OA
ATOM     35  C   UNL     1       6.703   1.125   3.645  0.00  0.00    -0.263 A 
ATOM     36  C   UNL     1       5.560   0.431   3.570  0.00  0.00    +0.257 A 
ATOM     37  N   UNL     1       4.992   0.100   2.364  0.00  0.00    -0.585 NA
ATOM     38  C   UNL     1       8.605   2.320   0.015  0.00  0.00    -0.081 A 
ATOM     39  C   UNL     1       5.576   0.468   1.158  0.00  0.00    +0.217 A 
ENDBRANCH  19  20
TORSDOF 1
