REMARK  Name = ZINC95486054
REMARK  9 active torsions:
REMARK  status: ('A' for Active; 'I' for Inactive)
REMARK    1  A    between atoms: C1_1  and  C2_2
REMARK    2  A    between atoms: C2_2  and  C23_30
REMARK    3  A    between atoms: C12_13  and  C14_17
REMARK    4  A    between atoms: C16_19  and  O5_27
REMARK    5  A    between atoms: C17_20  and  O4_25
REMARK    6  A    between atoms: C19_22  and  O3_23
REMARK    7  A    between atoms: O3_23  and  C20_24
REMARK    8  A    between atoms: O4_25  and  C21_26
REMARK    9  A    between atoms: O5_27  and  C22_28
REMARK                            x       y       z     vdW  Elec       q    Type
REMARK                         _______ _______ _______ _____ _____    ______ ____
ROOT
ATOM      1  C   UNL     1      -0.019   1.526   0.010  0.00  0.00    +0.033 C 
ATOM      2  C   UNL     1       0.002  -0.004   0.002  0.00  0.00    +0.110 C 
ATOM      3  C   UNL     1      -1.432  -0.539  -0.000  0.00  0.00    +0.078 C 
ATOM      4  C   UNL     1       0.743  -0.504  -1.245  0.00  0.00    +0.019 C 
ATOM      5  C   UNL     1       2.132   0.138  -1.267  0.00  0.00    +0.099 C 
ATOM      6  C   UNL     1       2.779  -0.005   0.087  0.00  0.00    -0.208 A 
ATOM      7  C   UNL     1       2.035  -0.298   1.217  0.00  0.00    +0.207 A 
ATOM      8  C   UNL     1       2.662  -0.418   2.460  0.00  0.00    -0.049 A 
ATOM      9  C   UNL     1       4.011  -0.252   2.577  0.00  0.00    +0.150 A 
ATOM     10  C   UNL     1       4.774   0.040   1.443  0.00  0.00    -0.282 A 
ATOM     11  C   UNL     1       6.229   0.227   1.543  0.00  0.00    +0.413 C 
ATOM     12  O   UNL     1       6.785   0.351   2.614  0.00  0.00    -0.438 OA
ATOM     13  C   UNL     1       6.999   0.259   0.235  0.00  0.00    +0.015 C 
ATOM     26  C   UNL     1       6.155   1.057  -0.770  0.00  0.00    +0.281 C 
ATOM     27  O   UNL     1       4.882   0.430  -0.922  0.00  0.00    -0.301 OA
ATOM     28  C   UNL     1       4.154   0.161   0.187  0.00  0.00    +0.207 A 
ATOM     29  O   UNL     1       0.692  -0.482   1.157  0.00  0.00    -0.297 OA
ENDROOT
BRANCH  13  14
ATOM     14  C   UNL     1       7.210  -1.145  -0.272  0.00  0.00    -0.114 A 
ATOM     15  C   UNL     1       6.121  -1.962  -0.515  0.00  0.00    +0.029 A 
ATOM     16  C   UNL     1       6.312  -3.252  -0.981  0.00  0.00    +0.067 A 
ATOM     19  C   UNL     1       7.601  -3.726  -1.205  0.00  0.00    +0.148 A 
ATOM     22  C   UNL     1       8.691  -2.906  -0.961  0.00  0.00    -0.118 A 
ATOM     23  C   UNL     1       8.495  -1.613  -0.500  0.00  0.00    +0.149 A 
BRANCH  16  17
ATOM     17  O   UNL     1       5.240  -4.055  -1.219  0.00  0.00    -0.303 OA
ATOM     18  C   UNL     1       3.946  -3.503  -0.967  0.00  0.00    +0.235 C 
ENDBRANCH  16  17
BRANCH  19  20
ATOM     20  O   UNL     1       7.791  -4.993  -1.662  0.00  0.00    -0.300 OA
ATOM     21  C   UNL     1       9.141  -5.412  -1.869  0.00  0.00    +0.240 C 
ENDBRANCH  19  20
BRANCH  23  24
ATOM     24  O   UNL     1       9.564  -0.806  -0.265  0.00  0.00    -0.310 OA
ATOM     25  C   UNL     1      10.858  -1.354  -0.521  0.00  0.00    +0.242 C 
ENDBRANCH  23  24
ENDBRANCH  13  14
TORSDOF 4
