REMARK  Name = ZINC38347584
REMARK  11 active torsions:
REMARK  status: ('A' for Active; 'I' for Inactive)
REMARK    1  A    between atoms: C1_1  and  C2_2
REMARK    2  A    between atoms: C4_4  and  O8_33
REMARK    3  A    between atoms: C7_7  and  C8_8
REMARK    4  A    between atoms: C9_9  and  O4_20
REMARK    5  A    between atoms: C11_11  and  O3_18
REMARK    6  A    between atoms: C12_12  and  C14_15
REMARK    7  A    between atoms: C13_13  and  O1_14
REMARK    8  A    between atoms: C14_15  and  C15_17
REMARK    9  A    between atoms: O3_18  and  C16_19
REMARK   10  A    between atoms: O4_20  and  C17_21
REMARK   11  A    between atoms: C23_28  and  O7_32
REMARK                            x       y       z     vdW  Elec       q    Type
REMARK                         _______ _______ _______ _____ _____    ______ ____
ROOT
ATOM      1  C   UNL     1      -0.018   1.503   0.010  0.00  0.00    +0.111 C 
ATOM      2  C   UNL     1       0.002  -0.004   0.002  0.00  0.00    -0.023 A 
ATOM      3  C   UNL     1       0.006  -0.681  -1.195  0.00  0.00    +0.018 A 
ATOM      4  C   UNL     1       0.025  -2.075  -1.221  0.00  0.00    +0.171 A 
ATOM      7  C   UNL     1       0.040  -2.797  -0.025  0.00  0.00    -0.157 A 
ATOM      8  C   UNL     1       0.037  -2.110   1.204  0.00  0.00    -0.093 A 
ATOM      9  C   UNL     1       0.053  -2.862   2.469  0.00  0.00    +0.434 C 
ATOM     10  C   UNL     1       0.073  -4.339   2.447  0.00  0.00    -0.105 A 
ATOM     11  C   UNL     1       0.087  -5.059   3.638  0.00  0.00    +0.067 A 
ATOM     12  C   UNL     1       0.106  -6.443   3.611  0.00  0.00    +0.060 A 
ATOM     13  C   UNL     1       0.109  -7.122   2.409  0.00  0.00    +0.018 A 
ATOM     14  C   UNL     1       0.095  -6.423   1.207  0.00  0.00    +0.161 A 
ATOM     17  C   UNL     1       0.076  -5.024   1.218  0.00  0.00    -0.149 A 
ATOM     18  O   UNL     1       0.050  -2.268   3.531  0.00  0.00    -0.417 OA
ATOM     19  C   UNL     1       0.059  -4.271  -0.048  0.00  0.00    +0.431 C 
ATOM     20  O   UNL     1       0.062  -4.863  -1.110  0.00  0.00    -0.402 OA
ATOM     21  C   UNL     1       0.023  -0.707   1.214  0.00  0.00    +0.022 A 
ENDROOT
BRANCH  21  22
ATOM     22  C   UNL     1       0.025   0.026   2.496  0.00  0.00    -0.148 A 
ATOM     23  C   UNL     1       1.241   0.397   3.092  0.00  0.00    +0.238 A 
ATOM     26  C   UNL     1       1.249   1.085   4.295  0.00  0.00    -0.175 A 
ATOM     27  C   UNL     1       0.059   1.413   4.921  0.00  0.00    +0.235 A 
ATOM     30  C   UNL     1      -1.170   1.049   4.338  0.00  0.00    -0.266 A 
ATOM     34  C   UNL     1      -1.183   0.357   3.115  0.00  0.00    +0.264 A 
BRANCH  30  31
ATOM     31  C   UNL     1      -2.427   1.396   4.998  0.00  0.00    +0.401 C 
ATOM     32  C   UNL     1      -2.409   2.144   6.306  0.00  0.00    +0.079 C 
ATOM     33  O   UNL     1      -3.485   1.081   4.494  0.00  0.00    -0.456 OA
ENDBRANCH  30  31
BRANCH  23  24
ATOM     24  O   UNL     1       2.413   0.080   2.488  0.00  0.00    -0.301 OA
ATOM     25  C   UNL     1       3.614   0.486   3.148  0.00  0.00    +0.250 C 
ENDBRANCH  23  24
BRANCH  27  28
ATOM     28  O   UNL     1       0.077   2.086   6.098  0.00  0.00    -0.296 OA
ATOM     29  C   UNL     1       1.359   2.424   6.633  0.00  0.00    +0.246 C 
ENDBRANCH  27  28
BRANCH  34  35
ATOM     35  O   UNL     1      -2.360   0.008   2.542  0.00  0.00    -0.467 OA
ATOM     36  H   UNL     1      -2.687  -0.860   2.814  0.00  0.00    +0.401 HD
ENDBRANCH  34  35
ENDBRANCH  21  22
BRANCH   4   5
ATOM      5  O   UNL     1       0.028  -2.730  -2.409  0.00  0.00    -0.475 OA
ATOM      6  H   UNL     1       0.913  -2.907  -2.757  0.00  0.00    +0.400 HD
ENDBRANCH   4   5
BRANCH  14  15
ATOM     15  O   UNL     1       0.098  -7.094   0.029  0.00  0.00    -0.476 OA
ATOM     16  H   UNL     1      -0.784  -7.300  -0.309  0.00  0.00    +0.400 HD
ENDBRANCH  14  15
TORSDOF 7
