REMARK  Name = ZINC33963863
REMARK  8 active torsions:
REMARK  status: ('A' for Active; 'I' for Inactive)
REMARK    1  A    between atoms: C1_1  and  C2_2
REMARK    2  A    between atoms: C6_6  and  C19_23
REMARK    3  A    between atoms: C6_6  and  C20_24
REMARK    4  A    between atoms: C12_13  and  C13_15
REMARK    5  A    between atoms: C13_15  and  C14_16
REMARK    6  A    between atoms: C15_17  and  C16_18
REMARK    7  A    between atoms: C15_17  and  C18_21
REMARK    8  A    between atoms: C16_18  and  C17_19
REMARK                            x       y       z     vdW  Elec       q    Type
REMARK                         _______ _______ _______ _____ _____    ______ ____
ROOT
ATOM      1  C   UNL     1      -0.262   1.049  -0.088  0.00  0.00    +0.028 C 
ATOM      2  C   UNL     1      -0.042  -0.463  -0.035  0.00  0.00    -0.034 C 
ATOM      3  C   UNL     1      -1.392  -1.180  -0.066  0.00  0.00    +0.012 C 
ATOM      4  C   UNL     1      -2.153  -0.925   1.235  0.00  0.00    +0.005 C 
ATOM      5  C   UNL     1      -1.357  -1.492   2.405  0.00  0.00    +0.012 C 
ATOM      6  C   UNL     1       0.024  -0.843   2.499  0.00  0.00    -0.050 C 
ATOM      7  C   UNL     1      -0.107   0.577   3.047  0.00  0.00    +0.023 C 
ATOM      8  C   UNL     1       0.823  -1.665   3.538  0.00  0.00    +0.012 C 
ATOM      9  C   UNL     1       0.743  -0.868  -1.301  0.00  0.00    +0.044 C 
ATOM     18  C   UNL     1       2.117  -0.240  -1.226  0.00  0.00    -0.105 C 
ATOM     19  C   UNL     1       2.582   0.465  -2.231  0.00  0.00    -0.010 C 
ATOM     20  C   UNL     1       2.943  -0.443   0.020  0.00  0.00    +0.049 C 
ATOM     21  C   UNL     1       2.090  -0.131   1.255  0.00  0.00    +0.021 C 
ATOM     22  C   UNL     1       0.769  -0.894   1.179  0.00  0.00    +0.007 C 
ENDROOT
BRANCH   9  10
ATOM     10  C   UNL     1       0.022  -0.348  -2.545  0.00  0.00    +0.063 C 
BRANCH  10  11
ATOM     11  C   UNL     1       0.670  -0.924  -3.778  0.00  0.00    +0.080 C 
ATOM     12  C   UNL     1      -0.071  -1.566  -4.684  0.00  0.00    -0.225 C 
BRANCH  12  13
ATOM     13  C   UNL     1      -1.527  -1.593  -4.550  0.00  0.00    +0.466 C 
ATOM     14  O   UNL     1      -2.194  -2.257  -5.316  0.00  0.00    -0.450 OA
ENDBRANCH  12  13
BRANCH  12  15
ATOM     15  C   UNL     1       0.592  -2.262  -5.843  0.00  0.00    +0.061 C 
BRANCH  15  16
ATOM     16  C   UNL     1       0.795  -3.717  -5.506  0.00  0.00    +0.443 C 
ATOM     17  O   UNL     1       0.359  -4.573  -6.238  0.00  0.00    -0.451 OA
ENDBRANCH  15  16
ENDBRANCH  12  15
ENDBRANCH  10  11
ENDBRANCH   9  10
TORSDOF 5
