REMARK  Name = ZINC15122269
REMARK  14 active torsions:
REMARK  status: ('A' for Active; 'I' for Inactive)
REMARK    1  A    between atoms: C1_1  and  O1_2
REMARK    2  A    between atoms: O1_2  and  C2_3
REMARK    3  A    between atoms: C3_4  and  C24_29
REMARK    4  A    between atoms: C4_5  and  O5_28
REMARK    5  A    between atoms: C5_6  and  C17_20
REMARK    6  A    between atoms: C6_7  and  O3_19
REMARK    7  A    between atoms: C7_8  and  C8_9
REMARK    8  A    between atoms: C8_9  and  C9_11
REMARK    9  A    between atoms: C9_11  and  C10_12
REMARK   10  A    between atoms: C10_12  and  C11_13
REMARK   11  A    between atoms: C17_20  and  C18_21
REMARK   12  A    between atoms: C23_26  and  O4_27
REMARK   13  A    between atoms: C24_29  and  C25_30
REMARK   14  A    between atoms: C30_35  and  O6_36
REMARK                            x       y       z     vdW  Elec       q    Type
REMARK                         _______ _______ _______ _____ _____    ______ ____
ROOT
ATOM      3  C   UNL     1       1.049  -0.455  -0.025  0.00  0.00    +0.200 A 
ATOM      4  C   UNL     1       2.338  -0.890   0.215  0.00  0.00    -0.153 A 
ATOM     14  C   UNL     1       2.573  -1.916   1.121  0.00  0.00    +0.192 A 
ATOM     17  C   UNL     1       1.516  -2.515   1.796  0.00  0.00    -0.154 A 
ATOM     27  C   UNL     1       0.220  -2.094   1.570  0.00  0.00    +0.188 A 
ATOM     30  C   UNL     1      -0.028  -1.051   0.658  0.00  0.00    -0.235 A 
ENDROOT
BRANCH   3   2
ATOM      1  C   UNL     1       0.764   1.875  -0.387  0.00  0.00    +0.227 C 
ATOM      2  O   UNL     1       0.822   0.547  -0.910  0.00  0.00    -0.295 OA
ENDBRANCH   3   2
BRANCH  14  15
ATOM     15  O   UNL     1       3.843  -2.337   1.349  0.00  0.00    -0.463 OA
ATOM     16  H   UNL     1       4.315  -1.819   2.015  0.00  0.00    +0.386 HD
ENDBRANCH  14  15
BRANCH  27  28
ATOM     28  O   UNL     1      -0.811  -2.680   2.229  0.00  0.00    -0.481 OA
ATOM     29  H   UNL     1      -0.986  -2.300   3.101  0.00  0.00    +0.394 HD
ENDBRANCH  27  28
BRANCH  30  31
ATOM     31  C   UNL     1      -1.395  -0.594   0.417  0.00  0.00    +0.396 C 
ATOM     40  O   UNL     1      -1.605   0.303  -0.375  0.00  0.00    -0.438 OA
BRANCH  31  32
ATOM     32  C   UNL     1      -2.545  -1.235   1.150  0.00  0.00    +0.058 C 
BRANCH  32  33
ATOM     33  C   UNL     1      -3.857  -0.577   0.718  0.00  0.00    +0.077 C 
BRANCH  33  34
ATOM     34  C   UNL     1      -5.006  -1.219   1.452  0.00  0.00    -0.079 A 
ATOM     35  C   UNL     1      -5.643  -2.320   0.910  0.00  0.00    +0.005 A 
ATOM     36  C   UNL     1      -6.697  -2.908   1.583  0.00  0.00    +0.004 A 
ATOM     37  C   UNL     1      -7.114  -2.396   2.798  0.00  0.00    -0.005 A 
ATOM     38  C   UNL     1      -6.477  -1.296   3.339  0.00  0.00    +0.003 A 
ATOM     39  C   UNL     1      -5.420  -0.710   2.668  0.00  0.00    +0.001 A 
ENDBRANCH  33  34
ENDBRANCH  32  33
ENDBRANCH  31  32
ENDBRANCH  30  31
BRANCH   4   5
ATOM      5  C   UNL     1       3.494  -0.249  -0.510  0.00  0.00    +0.144 C 
BRANCH   5   6
ATOM      6  C   UNL     1       3.858  -1.083  -1.712  0.00  0.00    -0.108 A 
ATOM      7  C   UNL     1       4.817  -2.071  -1.603  0.00  0.00    +0.049 A 
ATOM      8  C   UNL     1       5.152  -2.836  -2.705  0.00  0.00    -0.011 A 
ATOM      9  C   UNL     1       4.527  -2.614  -3.918  0.00  0.00    +0.017 A 
ATOM     10  C   UNL     1       3.567  -1.628  -4.032  0.00  0.00    -0.028 A 
ATOM     11  C   UNL     1       3.225  -0.863  -2.927  0.00  0.00    +0.116 A 
BRANCH  11  12
ATOM     12  O   UNL     1       2.277   0.105  -3.035  0.00  0.00    -0.476 OA
ATOM     13  H   UNL     1       2.626   0.971  -3.284  0.00  0.00    +0.381 HD
ENDBRANCH  11  12
ENDBRANCH   5   6
ENDBRANCH   4   5
BRANCH  17  18
ATOM     18  C   UNL     1       1.785  -3.627   2.776  0.00  0.00    +0.147 C 
BRANCH  18  19
ATOM     19  C   UNL     1       1.601  -4.957   2.090  0.00  0.00    -0.107 A 
ATOM     20  C   UNL     1       0.363  -5.572   2.095  0.00  0.00    +0.041 A 
ATOM     21  C   UNL     1       0.194  -6.791   1.467  0.00  0.00    -0.011 A 
ATOM     22  C   UNL     1       1.262  -7.398   0.831  0.00  0.00    +0.018 A 
ATOM     23  C   UNL     1       2.500  -6.787   0.822  0.00  0.00    -0.026 A 
ATOM     24  C   UNL     1       2.672  -5.560   1.448  0.00  0.00    +0.118 A 
BRANCH  24  25
ATOM     25  O   UNL     1       3.888  -4.954   1.436  0.00  0.00    -0.475 OA
ATOM     26  H   UNL     1       4.454  -5.195   2.181  0.00  0.00    +0.380 HD
ENDBRANCH  24  25
ENDBRANCH  18  19
ENDBRANCH  17  18
TORSDOF 13
