REMARK  Name = ZINC95485990
REMARK  9 active torsions:
REMARK  status: ('A' for Active; 'I' for Inactive)
REMARK    1  A    between atoms: C1_1  and  C2_2
REMARK    2  A    between atoms: C2_2  and  C22_28
REMARK    3  A    between atoms: C4_4  and  C6_8
REMARK    4  A    between atoms: C6_8  and  C7_9
REMARK    5  A    between atoms: C6_8  and  C8_10
REMARK    6  A    between atoms: C6_8  and  C9_11
REMARK    7  A    between atoms: C9_11  and  C10_12
REMARK    8  A    between atoms: C10_12  and  O3_13
REMARK    9  A    between atoms: O3_13  and  C11_14
REMARK                            x       y       z     vdW  Elec       q    Type
REMARK                         _______ _______ _______ _____ _____    ______ ____
ROOT
ATOM      9  O   UNL     1      -4.601  -1.666   4.946  0.00  0.00    -0.324 OA
ENDROOT
BRANCH   9  10
ATOM     10  C   UNL     1      -5.683  -2.217   5.550  0.00  0.00    +0.219 A 
ATOM     11  C   UNL     1      -6.962  -1.683   5.339  0.00  0.00    -0.193 A 
ATOM     12  C   UNL     1      -7.155  -0.525   4.466  0.00  0.00    +0.166 A 
ATOM     13  C   UNL     1      -8.418  -0.051   4.298  0.00  0.00    -0.079 A 
ATOM     14  C   UNL     1      -9.494  -0.675   4.959  0.00  0.00    +0.511 A 
ATOM     15  O   UNL     1      -9.313  -1.737   5.759  0.00  0.00    -0.267 OA
ATOM     16  O   UNL     1     -10.621  -0.239   4.799  0.00  0.00    -0.455 OA
ATOM     17  C   UNL     1      -8.084  -2.261   5.970  0.00  0.00    +0.185 A 
ATOM     18  C   UNL     1      -7.924  -3.356   6.799  0.00  0.00    +0.024 A 
ATOM     19  C   UNL     1      -6.661  -3.893   7.015  0.00  0.00    +0.123 A 
ATOM     20  O   UNL     1      -6.218  -4.930   7.754  0.00  0.00    -0.185 OA
ATOM     21  C   UNL     1      -4.886  -5.074   7.632  0.00  0.00    +0.231 A 
ATOM     22  C   UNL     1      -4.391  -4.131   6.821  0.00  0.00    -0.025 A 
ATOM     23  C   UNL     1      -5.539  -3.324   6.384  0.00  0.00    -0.172 A 
ENDBRANCH   9  10
BRANCH   9   8
ATOM      8  C   UNL     1      -4.247  -2.176   3.658  0.00  0.00    +0.196 C 
BRANCH   8   7
ATOM      7  C   UNL     1      -3.011  -1.438   3.140  0.00  0.00    +0.057 C 
BRANCH   7   6
ATOM      6  C   UNL     1      -2.633  -1.984   1.762  0.00  0.00    +0.008 C 
ATOM     24  C   UNL     1      -2.326  -3.479   1.871  0.00  0.00    +0.051 C 
ATOM     25  C   UNL     1      -3.797  -1.772   0.792  0.00  0.00    +0.061 C 
BRANCH   6   5
ATOM      1  C   UNL     1      -0.019   1.526   0.010  0.00  0.00    +0.084 C 
ATOM      2  C   UNL     1       0.002  -0.004   0.002  0.00  0.00    -0.103 C 
ATOM      3  C   UNL     1       0.676  -0.527  -1.268  0.00  0.00    +0.084 C 
ATOM      4  C   UNL     1      -1.402  -0.560   0.136  0.00  0.00    -0.058 C 
ATOM      5  C   UNL     1      -1.415  -1.257   1.251  0.00  0.00    +0.070 C 
ATOM     26  O   UNL     1      -0.231  -1.256   1.890  0.00  0.00    -0.280 OA
ATOM     27  C   UNL     1       0.699  -0.538   1.239  0.00  0.00    +0.492 C 
ATOM     28  O   UNL     1       1.848  -0.357   1.569  0.00  0.00    -0.423 OA
ENDBRANCH   6   5
ENDBRANCH   7   6
ENDBRANCH   8   7
ENDBRANCH   9   8
TORSDOF 5
