REMARK  Name = ZINC05705861
REMARK  9 active torsions:
REMARK  status: ('A' for Active; 'I' for Inactive)
REMARK    1  A    between atoms: C1_1  and  C2_2
REMARK    2  A    between atoms: C5_5  and  C30_35
REMARK    3  A    between atoms: C10_11  and  C22_26
REMARK    4  A    between atoms: C14_16  and  C21_25
REMARK    5  A    between atoms: C17_19  and  O1_24
REMARK    6  A    between atoms: C18_21  and  C19_22
REMARK    7  A    between atoms: C18_21  and  C20_23
REMARK    8  A    between atoms: C25_30  and  C28_33
REMARK    9  A    between atoms: C25_30  and  C29_34
REMARK                            x       y       z     vdW  Elec       q    Type
REMARK                         _______ _______ _______ _____ _____    ______ ____
ROOT
ATOM      1  C   UNL     1       1.201   1.760  -1.647  0.00  0.00    +0.023 C 
ATOM      2  C   UNL     1       1.123   0.235  -1.598  0.00  0.00    -0.044 C 
ATOM      3  C   UNL     1       2.128  -0.357  -2.589  0.00  0.00    +0.008 C 
ATOM      4  C   UNL     1       3.540   0.148  -2.286  0.00  0.00    +0.022 C 
ATOM      5  C   UNL     1       3.968  -0.180  -0.862  0.00  0.00    +0.000 C 
ATOM      6  C   UNL     1       4.162  -1.702  -0.785  0.00  0.00    +0.017 C 
ATOM      7  C   UNL     1       2.886   0.150   0.132  0.00  0.00    -0.089 C 
ATOM      8  C   UNL     1       3.109   0.740   1.269  0.00  0.00    -0.067 C 
ATOM      9  C   UNL     1       4.473   1.159   1.746  0.00  0.00    +0.058 C 
ATOM     10  C   UNL     1       5.541   0.369   0.990  0.00  0.00    +0.005 C 
ATOM     11  C   UNL     1       6.943   0.755   1.457  0.00  0.00    -0.034 C 
ATOM     12  C   UNL     1       7.131   2.270   1.450  0.00  0.00    +0.027 C 
ATOM     13  C   UNL     1       7.111   0.273   2.910  0.00  0.00    +0.018 C 
ATOM     14  C   UNL     1       8.533   0.560   3.385  0.00  0.00    -0.018 C 
ATOM     15  C   UNL     1       9.535  -0.218   2.541  0.00  0.00    +0.165 C 
ATOM     18  C   UNL     1       9.403   0.107   1.052  0.00  0.00    -0.038 C 
ATOM     19  C   UNL     1      10.069   1.447   0.746  0.00  0.00    +0.034 C 
ATOM     20  C   UNL     1      10.208  -0.981   0.299  0.00  0.00    +0.018 C 
ATOM     21  C   UNL     1       7.967   0.038   0.587  0.00  0.00    -0.001 C 
ATOM     22  C   UNL     1       7.785   0.456  -0.871  0.00  0.00    +0.017 C 
ATOM     23  C   UNL     1       6.430  -0.115  -1.326  0.00  0.00    +0.014 C 
ATOM     24  C   UNL     1       5.296   0.497  -0.508  0.00  0.00    -0.024 C 
ATOM     25  C   UNL     1       5.170   1.979  -0.896  0.00  0.00    +0.017 C 
ATOM     26  C   UNL     1      -0.290  -0.215  -1.968  0.00  0.00    +0.011 C 
ATOM     27  C   UNL     1      -1.304   0.287  -0.948  0.00  0.00    +0.013 C 
ATOM     28  C   UNL     1      -0.949  -0.143   0.471  0.00  0.00    -0.060 C 
ATOM     29  C   UNL     1      -1.129  -1.655   0.620  0.00  0.00    +0.019 C 
ATOM     30  C   UNL     1      -1.909   0.555   1.448  0.00  0.00    +0.015 C 
ATOM     31  C   UNL     1       0.482   0.253   0.829  0.00  0.00    +0.026 C 
ATOM     32  C   UNL     1       1.468  -0.276  -0.201  0.00  0.00    +0.037 C 
ENDROOT
BRANCH  15  16
ATOM     16  O   UNL     1      10.865   0.090   2.974  0.00  0.00    -0.564 OA
ATOM     17  H   UNL     1      11.038  -0.131   3.899  0.00  0.00    +0.375 HD
ENDBRANCH  15  16
TORSDOF 1
