REMARK  Name = ZINC28373262
REMARK  3 active torsions:
REMARK  status: ('A' for Active; 'I' for Inactive)
REMARK    1  A    between atoms: C1_1  and  O1_2
REMARK    2  A    between atoms: O1_2  and  C2_3
REMARK    3  A    between atoms: C10_12  and  O4_18
REMARK                            x       y       z     vdW  Elec       q    Type
REMARK                         _______ _______ _______ _____ _____    ______ ____
ROOT
ATOM      3  C   UNL     1      -1.261   3.132   0.031  0.00  0.00    +0.108 A 
ATOM      4  C   UNL     1      -1.224   1.750   0.017  0.00  0.00    -0.002 A 
ATOM      5  C   UNL     1      -0.013   1.076   0.008  0.00  0.00    +0.032 A 
ATOM      6  C   UNL     1       1.173   1.779   0.000  0.00  0.00    +0.080 A 
ATOM      7  C   UNL     1       1.150   3.174   0.008  0.00  0.00    -0.191 A 
ATOM      8  C   UNL     1       2.407   3.951  -0.000  0.00  0.00    +0.444 A 
ATOM      9  O   UNL     1       3.495   3.405  -0.014  0.00  0.00    -0.451 OA
ATOM     10  C   UNL     1       2.279   5.420   0.008  0.00  0.00    -0.279 A 
ATOM     11  C   UNL     1       3.411   6.237   0.001  0.00  0.00    +0.162 A 
ATOM     12  C   UNL     1       3.269   7.595   0.009  0.00  0.00    -0.105 A 
ATOM     13  C   UNL     1       1.999   8.168   0.024  0.00  0.00    +0.231 A 
ATOM     16  C   UNL     1       0.867   7.371   0.031  0.00  0.00    -0.051 A 
ATOM     17  C   UNL     1       0.993   5.987   0.024  0.00  0.00    +0.214 A 
ATOM     18  O   UNL     1      -0.109   5.211   0.031  0.00  0.00    -0.218 OA
ATOM     19  C   UNL     1      -0.071   3.863   0.024  0.00  0.00    +0.134 A 
ENDROOT
BRANCH   3   2
ATOM      1  C   UNL     1      -3.633   2.970   0.053  0.00  0.00    +0.248 C 
ATOM      2  O   UNL     1      -2.456   3.780   0.046  0.00  0.00    -0.304 OA
ENDBRANCH   3   2
BRANCH  13  14
ATOM     14  O   UNL     1       1.871   9.519   0.032  0.00  0.00    -0.498 OA
ATOM     15  H   UNL     1       2.767  10.157   0.026  0.00  0.00    +0.446 HD
ENDBRANCH  13  14
TORSDOF 2
