REMARK  Name = ZINC05842416
REMARK  5 active torsions:
REMARK  status: ('A' for Active; 'I' for Inactive)
REMARK    1  A    between atoms: C3_3  and  O6_21
REMARK    2  A    between atoms: C6_6  and  C7_7
REMARK    3  A    between atoms: C13_15  and  O5_20
REMARK    4  A    between atoms: C14_16  and  O4_19
REMARK    5  A    between atoms: C15_17  and  O3_18
REMARK                            x       y       z     vdW  Elec       q    Type
REMARK                         _______ _______ _______ _____ _____    ______ ____
ROOT
ATOM      9  C   UNL     1      -1.186   6.199   0.047  0.00  0.00    +0.214 A 
ATOM     10  C   UNL     1      -2.409   5.602   0.055  0.00  0.00    -0.158 A 
ATOM     11  C   UNL     1      -2.497   4.190   0.049  0.00  0.00    +0.427 A 
ATOM     12  C   UNL     1      -1.234   3.433   0.032  0.00  0.00    -0.271 A 
ATOM     13  C   UNL     1      -0.023   4.147   0.025  0.00  0.00    +0.196 A 
ATOM     14  C   UNL     1       1.178   3.455   0.009  0.00  0.00    -0.041 A 
ATOM     15  C   UNL     1       1.181   2.070   0.002  0.00  0.00    +0.235 A 
ATOM     18  C   UNL     1      -0.016   1.357   0.009  0.00  0.00    -0.067 A 
ATOM     21  C   UNL     1      -1.226   2.033   0.019  0.00  0.00    +0.196 A 
ATOM     24  O   UNL     1      -3.577   3.622   0.055  0.00  0.00    -0.460 OA
ATOM     25  O   UNL     1      -0.042   5.498   0.032  0.00  0.00    -0.216 OA
ENDROOT
BRANCH   9   8
ATOM      1  C   UNL     1      -2.291   8.430   0.065  0.00  0.00    +0.108 A 
ATOM      2  C   UNL     1      -2.220   9.805   0.077  0.00  0.00    -0.026 A 
ATOM      3  C   UNL     1      -0.984  10.440   0.069  0.00  0.00    +0.187 A 
ATOM      6  C   UNL     1       0.187   9.690   0.053  0.00  0.00    -0.084 A 
ATOM      7  C   UNL     1       0.125   8.314   0.046  0.00  0.00    +0.103 A 
ATOM      8  C   UNL     1      -1.116   7.672   0.055  0.00  0.00    -0.121 A 
BRANCH   3   4
ATOM      4  O   UNL     1      -0.919  11.796   0.075  0.00  0.00    -0.504 OA
ATOM      5  H   UNL     1       0.059  12.300   0.069  0.00  0.00    +0.440 HD
ENDBRANCH   3   4
ENDBRANCH   9   8
BRANCH  15  16
ATOM     16  O   UNL     1       2.363   1.399  -0.013  0.00  0.00    -0.491 OA
ATOM     17  H   UNL     1       2.371   0.299  -0.019  0.00  0.00    +0.451 HD
ENDBRANCH  15  16
BRANCH  18  19
ATOM     19  O   UNL     1       0.002  -0.004   0.002  0.00  0.00    -0.504 OA
ATOM     20  H   UNL     1      -0.943  -0.567   0.008  0.00  0.00    +0.425 HD
ENDBRANCH  18  19
BRANCH  21  22
ATOM     22  O   UNL     1      -2.396   1.342   0.020  0.00  0.00    -0.456 OA
ATOM     23  H   UNL     1      -2.385   0.242   0.010  0.00  0.00    +0.417 HD
ENDBRANCH  21  22
TORSDOF 5
