REMARK  Name = ZINC15122165
REMARK  12 active torsions:
REMARK  status: ('A' for Active; 'I' for Inactive)
REMARK    1  A    between atoms: C1_1  and  C2_2
REMARK    2  A    between atoms: C2_2  and  C26_34
REMARK    3  A    between atoms: C3_3  and  C4_4
REMARK    4  A    between atoms: C4_4  and  C5_5
REMARK    5  A    between atoms: C5_5  and  C6_6
REMARK    6  A    between atoms: C6_6  and  C25_33
REMARK    7  A    between atoms: C12_12  and  O6_31
REMARK    8  A    between atoms: C16_17  and  C18_21
REMARK    9  A    between atoms: C21_24  and  O5_29
REMARK   10  A    between atoms: C22_25  and  O4_28
REMARK   11  A    between atoms: C23_26  and  O3_27
REMARK   12  A    between atoms: O5_29  and  C24_30
REMARK                            x       y       z     vdW  Elec       q    Type
REMARK                         _______ _______ _______ _____ _____    ______ ____
ROOT
ATOM      7  C   UNL     1       7.472  -0.976  -1.313  0.00  0.00    +0.152 C 
ATOM      8  C   UNL     1       8.133  -2.352  -1.420  0.00  0.00    +0.085 C 
ATOM      9  C   UNL     1       6.371  -1.034  -0.286  0.00  0.00    -0.060 C 
ATOM     10  C   UNL     1       5.317  -0.229  -0.392  0.00  0.00    +0.065 C 
ATOM     11  C   UNL     1       5.245   0.684  -1.551  0.00  0.00    -0.192 A 
ATOM     12  C   UNL     1       6.112   0.460  -2.634  0.00  0.00    +0.226 A 
ATOM     13  C   UNL     1       6.094   1.305  -3.731  0.00  0.00    -0.071 A 
ATOM     14  C   UNL     1       5.211   2.372  -3.771  0.00  0.00    +0.248 A 
ATOM     17  C   UNL     1       4.327   2.594  -2.701  0.00  0.00    -0.315 A 
ATOM     18  C   UNL     1       3.395   3.721  -2.723  0.00  0.00    +0.414 C 
ATOM     19  O   UNL     1       3.468   4.567  -3.590  0.00  0.00    -0.432 OA
ATOM     20  C   UNL     1       2.342   3.811  -1.649  0.00  0.00    +0.011 C 
ATOM     33  C   UNL     1       2.844   3.180  -0.359  0.00  0.00    +0.285 C 
ATOM     34  O   UNL     1       3.480   1.935  -0.563  0.00  0.00    -0.296 OA
ATOM     35  C   UNL     1       4.334   1.737  -1.585  0.00  0.00    +0.246 A 
ATOM     36  O   UNL     1       6.954  -0.603  -2.589  0.00  0.00    -0.292 OA
ENDROOT
BRANCH  20  21
ATOM     21  C   UNL     1       1.100   3.090  -2.107  0.00  0.00    -0.137 A 
ATOM     22  C   UNL     1       1.153   1.738  -2.391  0.00  0.00    +0.079 A 
ATOM     23  C   UNL     1       0.017   1.072  -2.812  0.00  0.00    -0.060 A 
ATOM     24  C   UNL     1      -1.179   1.759  -2.955  0.00  0.00    +0.128 A 
ATOM     27  C   UNL     1      -1.237   3.116  -2.665  0.00  0.00    +0.049 A 
ATOM     30  C   UNL     1      -0.093   3.783  -2.243  0.00  0.00    +0.139 A 
BRANCH  24  25
ATOM     25  O   UNL     1      -2.295   1.103  -3.374  0.00  0.00    -0.303 OA
ATOM     26  C   UNL     1      -2.162  -0.293  -3.649  0.00  0.00    +0.245 C 
ENDBRANCH  24  25
BRANCH  27  28
ATOM     28  O   UNL     1      -2.410   3.793  -2.799  0.00  0.00    -0.472 OA
ATOM     29  H   UNL     1      -2.547   4.173  -3.678  0.00  0.00    +0.385 HD
ENDBRANCH  27  28
BRANCH  30  31
ATOM     31  O   UNL     1      -0.144   5.112  -1.962  0.00  0.00    -0.480 OA
ATOM     32  H   UNL     1       0.044   5.682  -2.721  0.00  0.00    +0.395 HD
ENDBRANCH  30  31
ENDBRANCH  20  21
BRANCH  14  15
ATOM     15  O   UNL     1       5.199   3.201  -4.843  0.00  0.00    -0.475 OA
ATOM     16  H   UNL     1       5.798   3.956  -4.763  0.00  0.00    +0.405 HD
ENDBRANCH  14  15
BRANCH   7   6
ATOM      6  C   UNL     1       8.517   0.051  -0.873  0.00  0.00    +0.018 C 
BRANCH   6   5
ATOM      5  C   UNL     1       9.654   0.092  -1.897  0.00  0.00    +0.061 C 
BRANCH   5   4
ATOM      1  C   UNL     1      12.294  -0.728  -1.337  0.00  0.00    +0.073 C 
ATOM      2  C   UNL     1      11.924   0.731  -1.264  0.00  0.00    -0.130 C 
ATOM      3  C   UNL     1      12.980   1.763  -0.961  0.00  0.00    +0.072 C 
ATOM      4  C   UNL     1      10.684   1.103  -1.464  0.00  0.00    -0.063 C 
ENDBRANCH   5   4
ENDBRANCH   6   5
ENDBRANCH   7   6
TORSDOF 8
