REMARK  Name = ZINC03871358
REMARK  5 active torsions:
REMARK  status: ('A' for Active; 'I' for Inactive)
REMARK    1  A    between atoms: C1_1  and  O1_2
REMARK    2  A    between atoms: O1_2  and  C2_3
REMARK    3  A    between atoms: C5_6  and  C8_9
REMARK    4  A    between atoms: C12_14  and  O5_21
REMARK    5  A    between atoms: C14_16  and  O4_20
REMARK                            x       y       z     vdW  Elec       q    Type
REMARK                         _______ _______ _______ _____ _____    ______ ____
ROOT
ATOM      7  C   UNL     1      -4.956  -2.616   0.035  0.00  0.00    +0.216 A 
ATOM      8  C   UNL     1      -4.979  -3.976   0.039  0.00  0.00    -0.156 A 
ATOM      9  C   UNL     1      -6.221  -4.652   0.049  0.00  0.00    +0.423 A 
ATOM     10  C   UNL     1      -7.442  -3.828   0.054  0.00  0.00    -0.265 A 
ATOM     11  C   UNL     1      -8.714  -4.414   0.064  0.00  0.00    +0.219 A 
ATOM     14  C   UNL     1      -9.835  -3.605   0.069  0.00  0.00    -0.056 A 
ATOM     15  C   UNL     1      -9.699  -2.221   0.064  0.00  0.00    +0.191 A 
ATOM     18  C   UNL     1      -8.442  -1.635   0.054  0.00  0.00    -0.031 A 
ATOM     19  C   UNL     1      -7.306  -2.430   0.049  0.00  0.00    +0.183 A 
ATOM     20  O   UNL     1      -6.279  -5.872   0.052  0.00  0.00    -0.456 OA
ATOM     21  O   UNL     1      -6.075  -1.875   0.045  0.00  0.00    -0.219 OA
ENDROOT
BRANCH   7   6
ATOM      3  C   UNL     1      -1.199  -0.637   0.010  0.00  0.00    +0.158 A 
ATOM      4  C   UNL     1      -2.373   0.106   0.020  0.00  0.00    -0.076 A 
ATOM      5  C   UNL     1      -3.594  -0.532   0.028  0.00  0.00    +0.104 A 
ATOM      6  C   UNL     1      -3.651  -1.928   0.026  0.00  0.00    -0.117 A 
ATOM     22  C   UNL     1      -2.467  -2.672   0.016  0.00  0.00    +0.107 A 
ATOM     23  C   UNL     1      -1.251  -2.026   0.003  0.00  0.00    -0.010 A 
BRANCH   3   2
ATOM      1  C   UNL     1      -0.017   1.425   0.010  0.00  0.00    +0.248 C 
ATOM      2  O   UNL     1       0.002  -0.004   0.002  0.00  0.00    -0.311 OA
ENDBRANCH   3   2
ENDBRANCH   7   6
BRANCH  11  12
ATOM     12  O   UNL     1      -8.845  -5.764   0.068  0.00  0.00    -0.472 OA
ATOM     13  H   UNL     1      -8.878  -6.154   0.952  0.00  0.00    +0.403 HD
ENDBRANCH  11  12
BRANCH  15  16
ATOM     16  O   UNL     1     -10.806  -1.436   0.069  0.00  0.00    -0.487 OA
ATOM     17  H   UNL     1     -11.121  -1.206   0.954  0.00  0.00    +0.403 HD
ENDBRANCH  15  16
TORSDOF 4
