REMARK  Name = ZINC95485999
REMARK  10 active torsions:
REMARK  status: ('A' for Active; 'I' for Inactive)
REMARK    1  A    between atoms: C1_1  and  C2_2
REMARK    2  A    between atoms: C6_6  and  C22_30
REMARK    3  A    between atoms: C6_6  and  O5_31
REMARK    4  A    between atoms: C8_8  and  O4_29
REMARK    5  A    between atoms: C10_12  and  O2_24
REMARK    6  A    between atoms: C11_14  and  O1_16
REMARK    7  A    between atoms: O1_16  and  C12_17
REMARK    8  A    between atoms: C12_17  and  C13_18
REMARK    9  A    between atoms: C19_25  and  C20_27
REMARK   10  A    between atoms: C19_25  and  C21_28
REMARK                            x       y       z     vdW  Elec       q    Type
REMARK                         _______ _______ _______ _____ _____    ______ ____
ROOT
ATOM      1  C   UNL     1       0.716   0.762   0.678  0.00  0.00    +0.041 C 
ATOM      2  C   UNL     1       0.571  -0.721   1.033  0.00  0.00    -0.065 C 
ATOM      3  C   UNL     1       1.385  -1.553   0.032  0.00  0.00    +0.047 C 
ATOM      4  C   UNL     1       2.873  -1.256   0.201  0.00  0.00    +0.007 C 
ATOM      5  C   UNL     1       3.325  -1.665   1.599  0.00  0.00    -0.004 C 
ATOM      6  C   UNL     1       2.525  -0.934   2.679  0.00  0.00    +0.156 C 
ATOM      9  C   UNL     1       2.996   0.511   2.791  0.00  0.00    +0.019 C 
ATOM     10  C   UNL     1      -0.908  -1.101   0.882  0.00  0.00    +0.130 C 
ATOM     19  C   UNL     1      -1.759  -0.747   2.084  0.00  0.00    +0.163 C 
ATOM     22  C   UNL     1      -1.108  -1.020   3.438  0.00  0.00    -0.033 C 
ATOM     23  C   UNL     1      -0.532  -2.446   3.522  0.00  0.00    +0.131 C 
ATOM     24  C   UNL     1      -0.134  -2.771   4.972  0.00  0.00    +0.019 C 
ATOM     25  C   UNL     1      -1.523  -3.512   3.065  0.00  0.00    +0.053 C 
ATOM     26  O   UNL     1       0.641  -2.425   2.699  0.00  0.00    -0.329 OA
ATOM     27  C   UNL     1       0.221  -0.188   3.434  0.00  0.00    +0.153 C 
ATOM     30  C   UNL     1       1.036  -1.051   2.450  0.00  0.00    +0.162 C 
ENDROOT
BRANCH   6   7
ATOM      7  O   UNL     1       2.829  -1.587   3.931  0.00  0.00    -0.538 OA
ATOM      8  H   UNL     1       3.766  -1.564   4.169  0.00  0.00    +0.364 HD
ENDBRANCH   6   7
BRANCH  19  20
ATOM     20  O   UNL     1      -3.044  -1.368   1.992  0.00  0.00    -0.546 OA
ATOM     21  H   UNL     1      -3.531  -1.146   1.187  0.00  0.00    +0.373 HD
ENDBRANCH  19  20
BRANCH  27  28
ATOM     28  O   UNL     1       0.795  -0.110   4.738  0.00  0.00    -0.522 OA
ATOM     29  H   UNL     1       0.288   0.430   5.359  0.00  0.00    +0.373 HD
ENDBRANCH  27  28
BRANCH  10  11
ATOM     11  O   UNL     1      -1.044  -2.465   0.504  0.00  0.00    -0.331 OA
BRANCH  11  12
ATOM     12  C   UNL     1      -1.656  -2.656  -0.772  0.00  0.00    +0.206 C 
BRANCH  12  13
ATOM     13  C   UNL     1      -1.820  -4.131  -1.035  0.00  0.00    -0.088 A 
ATOM     14  C   UNL     1      -0.812  -4.838  -1.664  0.00  0.00    +0.024 A 
ATOM     15  C   UNL     1      -0.963  -6.191  -1.905  0.00  0.00    -0.001 A 
ATOM     16  C   UNL     1      -2.121  -6.837  -1.516  0.00  0.00    +0.009 A 
ATOM     17  C   UNL     1      -3.129  -6.131  -0.886  0.00  0.00    -0.001 A 
ATOM     18  C   UNL     1      -2.976  -4.779  -0.642  0.00  0.00    +0.026 A 
ENDBRANCH  12  13
ENDBRANCH  11  12
ENDBRANCH  10  11
TORSDOF 6
