REMARK  Name = ZINC13382495
REMARK  10 active torsions:
REMARK  status: ('A' for Active; 'I' for Inactive)
REMARK    1  A    between atoms: C1_1  and  C2_2
REMARK    2  A    between atoms: C2_2  and  C24_30
REMARK    3  A    between atoms: C3_3  and  C4_4
REMARK    4  A    between atoms: C4_4  and  C5_5
REMARK    5  A    between atoms: C9_9  and  O2_13
REMARK    6  A    between atoms: C10_10  and  O1_11
REMARK    7  A    between atoms: O1_11  and  C11_12
REMARK    8  A    between atoms: C16_19  and  O5_23
REMARK    9  A    between atoms: C21_26  and  C22_28
REMARK   10  A    between atoms: C21_26  and  C23_29
REMARK                            x       y       z     vdW  Elec       q    Type
REMARK                         _______ _______ _______ _____ _____    ______ ____
ROOT
ATOM      6  C   UNL     1      -0.800   2.152   0.924  0.00  0.00    +0.018 A 
ATOM      7  C   UNL     1      -0.345   3.452   1.160  0.00  0.00    -0.224 A 
ATOM      8  C   UNL     1      -0.958   4.254   2.135  0.00  0.00    +0.179 A 
ATOM      9  O   UNL     1      -0.530   5.512   2.370  0.00  0.00    -0.223 OA
ATOM     10  C   UNL     1       0.502   6.083   1.714  0.00  0.00    +0.219 A 
ATOM     11  C   UNL     1       0.881   7.383   2.030  0.00  0.00    -0.030 A 
ATOM     12  C   UNL     1       1.927   7.986   1.360  0.00  0.00    +0.219 A 
ATOM     13  C   UNL     1       2.618   7.293   0.349  0.00  0.00    -0.195 A 
ATOM     14  C   UNL     1       3.728   7.980  -0.344  0.00  0.00    +0.058 C 
ATOM     15  C   UNL     1       4.244   9.068   0.226  0.00  0.00    -0.049 C 
ATOM     16  C   UNL     1       3.702   9.556   1.543  0.00  0.00    +0.146 C 
ATOM     17  C   UNL     1       4.462   8.875   2.683  0.00  0.00    +0.039 C 
ATOM     18  C   UNL     1       3.899  11.070   1.640  0.00  0.00    +0.089 C 
ATOM     19  C   UNL     1       2.253   5.992   0.020  0.00  0.00    +0.251 A 
ATOM     22  O   UNL     1       2.311   9.254   1.658  0.00  0.00    -0.294 OA
ATOM     23  C   UNL     1       1.192   5.385   0.707  0.00  0.00    -0.287 A 
ATOM     24  C   UNL     1      -2.017   3.736   2.871  0.00  0.00    -0.013 A 
ATOM     25  C   UNL     1      -2.461   2.448   2.637  0.00  0.00    +0.164 A 
ATOM     28  C   UNL     1       0.782   4.008   0.387  0.00  0.00    +0.442 A 
ATOM     29  O   UNL     1       1.346   3.358  -0.475  0.00  0.00    -0.424 OA
ATOM     30  C   UNL     1      -1.852   1.653   1.663  0.00  0.00    +0.039 A 
ENDROOT
BRANCH  19  20
ATOM     20  O   UNL     1       2.915   5.318  -0.953  0.00  0.00    -0.468 OA
ATOM     21  H   UNL     1       2.540   5.434  -1.837  0.00  0.00    +0.403 HD
ENDBRANCH  19  20
BRANCH  25  26
ATOM     26  O   UNL     1      -3.497   1.951   3.361  0.00  0.00    -0.477 OA
ATOM     27  H   UNL     1      -3.229   1.502   4.175  0.00  0.00    +0.398 HD
ENDBRANCH  25  26
BRANCH  30  31
ATOM     31  O   UNL     1      -2.297   0.386   1.443  0.00  0.00    -0.312 OA
ATOM     32  C   UNL     1      -1.689  -0.657   2.209  0.00  0.00    +0.221 C 
ENDBRANCH  30  31
BRANCH   6   5
ATOM      5  C   UNL     1      -0.141   1.298  -0.128  0.00  0.00    +0.131 C 
BRANCH   5   4
ATOM      1  C   UNL     1      -1.278  -0.751  -1.693  0.00  0.00    +0.075 C 
ATOM      2  C   UNL     1      -1.224   0.659  -2.221  0.00  0.00    -0.129 C 
ATOM      3  C   UNL     1      -1.738   0.967  -3.604  0.00  0.00    +0.073 C 
ATOM      4  C   UNL     1      -0.731   1.619  -1.477  0.00  0.00    -0.037 C 
ENDBRANCH   5   4
ENDBRANCH   6   5
TORSDOF 5
