REMARK  Name = ZINC95486106
REMARK  4 active torsions:
REMARK  status: ('A' for Active; 'I' for Inactive)
REMARK    1  A    between atoms: C1_1  and  C2_2
REMARK    2  A    between atoms: C13_19  and  C20_28
REMARK    3  A    between atoms: C17_23  and  C18_24
REMARK    4  A    between atoms: C17_23  and  C19_25
REMARK                            x       y       z     vdW  Elec       q    Type
REMARK                         _______ _______ _______ _____ _____    ______ ____
ROOT
ATOM      1  C   UNL     1       1.199   0.865  -1.543  0.00  0.00    +0.014 C 
ATOM      2  C   UNL     1       0.953  -0.617  -1.247  0.00  0.00    -0.021 C 
ATOM      3  C   UNL     1       1.850  -1.567  -2.061  0.00  0.00    +0.004 C 
ATOM      4  C   UNL     1       1.974  -2.411  -0.777  0.00  0.00    -0.026 C 
ATOM      5  C   UNL     1       0.919  -3.500  -0.696  0.00  0.00    +0.011 C 
ATOM      6  C   UNL     1       1.522  -4.853  -1.079  0.00  0.00    -0.014 C 
ATOM      7  C   UNL     1       0.423  -5.919  -1.066  0.00  0.00    +0.031 C 
ATOM      8  C   UNL     1      -0.191  -6.005   0.332  0.00  0.00    +0.002 C 
ATOM      9  C   UNL     1      -0.786  -4.665   0.702  0.00  0.00    -0.039 C 
ATOM     10  C   UNL     1      -1.871  -4.293  -0.312  0.00  0.00    +0.025 C 
ATOM     11  C   UNL     1      -1.402  -4.756   2.099  0.00  0.00    -0.009 C 
ATOM     12  C   UNL     1      -2.495  -5.827   2.106  0.00  0.00    +0.008 C 
ATOM     13  C   UNL     1      -1.887  -7.178   1.727  0.00  0.00    +0.005 C 
ATOM     14  C   UNL     1      -1.290  -7.069   0.343  0.00  0.00    -0.133 C 
ATOM     18  C   UNL     1      -0.692  -8.425  -0.039  0.00  0.00    +0.008 C 
ATOM     19  C   UNL     1       0.308  -3.596   0.693  0.00  0.00    -0.003 C 
ATOM     20  C   UNL     1      -0.294  -2.239   1.062  0.00  0.00    +0.012 C 
ATOM     21  C   UNL     1       0.836  -1.229   1.240  0.00  0.00    +0.004 C 
ATOM     22  C   UNL     1       1.694  -1.129  -0.004  0.00  0.00    -0.020 C 
ENDROOT
BRANCH  14  15
ATOM     15  C   UNL     1      -2.360  -6.695  -0.650  0.00  0.00    +0.526 C 
ATOM     16  O   UNL     1      -3.522  -6.611  -0.291  0.00  0.00    -0.696 OA
ATOM     17  O   UNL     1      -2.064  -6.477  -1.813  0.00  0.00    -0.689 OA
ENDBRANCH  14  15
TORSDOF 1
