REMARK  Name = ZINC95486189
REMARK  12 active torsions:
REMARK  status: ('A' for Active; 'I' for Inactive)
REMARK    1  A    between atoms: C1_1  and  C2_2
REMARK    2  A    between atoms: C2_2  and  C25_32
REMARK    3  A    between atoms: C3_3  and  C4_4
REMARK    4  A    between atoms: C4_4  and  C5_5
REMARK    5  A    between atoms: C8_8  and  O2_17
REMARK    6  A    between atoms: C11_12  and  C14_15
REMARK    7  A    between atoms: C11_12  and  C15_16
REMARK    8  A    between atoms: C19_22  and  O7_30
REMARK    9  A    between atoms: C20_23  and  O6_28
REMARK   10  A    between atoms: C21_24  and  O5_27
REMARK   11  A    between atoms: O6_28  and  C23_29
REMARK   12  A    between atoms: O7_30  and  C24_31
REMARK                            x       y       z     vdW  Elec       q    Type
REMARK                         _______ _______ _______ _____ _____    ______ ____
ROOT
ATOM      6  C   UNL     1      -0.864  -0.562   3.381  0.00  0.00    -0.138 A 
ATOM      7  C   UNL     1      -2.185  -0.129   3.397  0.00  0.00    +0.216 A 
ATOM      8  C   UNL     1      -3.101  -0.737   4.276  0.00  0.00    -0.284 A 
ATOM      9  C   UNL     1      -4.501  -0.276   4.263  0.00  0.00    +0.444 A 
ATOM     10  C   UNL     1      -4.887   0.584   3.126  0.00  0.00    -0.174 A 
ATOM     11  C   UNL     1      -6.229   0.862   2.860  0.00  0.00    +0.035 A 
ATOM     12  C   UNL     1      -6.561   1.664   1.787  0.00  0.00    +0.102 A 
ATOM     15  C   UNL     1      -5.558   2.192   0.973  0.00  0.00    +0.103 A 
ATOM     18  C   UNL     1      -4.223   1.921   1.234  0.00  0.00    +0.108 A 
ATOM     21  C   UNL     1      -3.872   1.116   2.316  0.00  0.00    +0.110 A 
ATOM     22  O   UNL     1      -5.291  -0.586   5.137  0.00  0.00    -0.427 OA
ATOM     23  C   UNL     1      -2.691  -1.763   5.138  0.00  0.00    +0.243 A 
ATOM     26  C   UNL     1      -1.364  -2.182   5.106  0.00  0.00    -0.190 A 
ATOM     27  C   UNL     1      -0.878  -3.261   5.991  0.00  0.00    +0.057 C 
ATOM     28  C   UNL     1       0.435  -3.401   6.148  0.00  0.00    -0.049 C 
ATOM     29  C   UNL     1       1.378  -2.451   5.457  0.00  0.00    +0.145 C 
ATOM     30  C   UNL     1       2.711  -3.159   5.204  0.00  0.00    +0.088 C 
ATOM     31  C   UNL     1       1.617  -1.235   6.354  0.00  0.00    +0.038 C 
ATOM     32  O   UNL     1       0.832  -2.017   4.212  0.00  0.00    -0.288 OA
ATOM     33  O   UNL     1      -2.571   0.868   2.575  0.00  0.00    -0.205 OA
ATOM     34  C   UNL     1      -0.454  -1.580   4.219  0.00  0.00    +0.218 A 
ENDROOT
BRANCH  12  13
ATOM     13  O   UNL     1      -7.867   1.939   1.522  0.00  0.00    -0.298 OA
ATOM     14  C   UNL     1      -8.841   1.365   2.396  0.00  0.00    +0.249 C 
ENDBRANCH  12  13
BRANCH  15  16
ATOM     16  O   UNL     1      -5.892   2.978  -0.084  0.00  0.00    -0.309 OA
ATOM     17  C   UNL     1      -5.988   4.383   0.157  0.00  0.00    +0.234 C 
ENDBRANCH  15  16
BRANCH  18  19
ATOM     19  O   UNL     1      -3.255   2.442   0.432  0.00  0.00    -0.459 OA
ATOM     20  H   UNL     1      -2.931   3.307   0.717  0.00  0.00    +0.390 HD
ENDBRANCH  18  19
BRANCH  23  24
ATOM     24  O   UNL     1      -3.574  -2.339   5.990  0.00  0.00    -0.468 OA
ATOM     25  H   UNL     1      -4.033  -3.106   5.621  0.00  0.00    +0.401 HD
ENDBRANCH  23  24
BRANCH   6   5
ATOM      5  C   UNL     1       0.123   0.078   2.439  0.00  0.00    +0.138 C 
BRANCH   5   4
ATOM      1  C   UNL     1      -0.153   1.492   0.015  0.00  0.00    +0.077 C 
ATOM      2  C   UNL     1      -0.070  -0.013   0.007  0.00  0.00    -0.117 C 
ATOM      3  C   UNL     1      -0.208  -0.768  -1.290  0.00  0.00    +0.071 C 
ATOM      4  C   UNL     1       0.121  -0.664   1.128  0.00  0.00    -0.061 C 
ENDBRANCH   5   4
ENDBRANCH   6   5
TORSDOF 6
