REMARK  Name = ZINC95485915
REMARK  8 active torsions:
REMARK  status: ('A' for Active; 'I' for Inactive)
REMARK    1  A    between atoms: C1_1  and  C2_2
REMARK    2  A    between atoms: C2_2  and  C19_24
REMARK    3  A    between atoms: C3_3  and  C4_4
REMARK    4  A    between atoms: C4_4  and  C5_5
REMARK    5  A    between atoms: C6_6  and  O5_23
REMARK    6  A    between atoms: C10_10  and  O1_11
REMARK    7  A    between atoms: C14_16  and  O4_21
REMARK    8  A    between atoms: O4_21  and  C18_22
REMARK                            x       y       z     vdW  Elec       q    Type
REMARK                         _______ _______ _______ _____ _____    ______ ____
ROOT
ATOM      6  C   UNL     1      -0.864  -0.562   3.381  0.00  0.00    -0.164 A 
ATOM      7  C   UNL     1      -2.186  -0.132   3.400  0.00  0.00    +0.198 A 
ATOM     10  C   UNL     1      -3.106  -0.707   4.263  0.00  0.00    -0.032 A 
ATOM     11  C   UNL     1      -2.718  -1.727   5.120  0.00  0.00    +0.192 A 
ATOM     12  C   UNL     1      -1.383  -2.169   5.093  0.00  0.00    -0.267 A 
ATOM     13  C   UNL     1      -0.989  -3.269   5.991  0.00  0.00    +0.443 A 
ATOM     14  C   UNL     1      -2.099  -4.003   6.638  0.00  0.00    -0.182 A 
ATOM     15  C   UNL     1      -1.873  -5.213   7.291  0.00  0.00    +0.087 A 
ATOM     16  C   UNL     1      -2.933  -5.877   7.882  0.00  0.00    +0.102 A 
ATOM     19  C   UNL     1      -4.213  -5.335   7.822  0.00  0.00    +0.003 A 
ATOM     20  C   UNL     1      -4.441  -4.138   7.179  0.00  0.00    +0.050 A 
ATOM     21  C   UNL     1      -3.388  -3.453   6.581  0.00  0.00    +0.117 A 
ATOM     22  O   UNL     1       0.178  -3.556   6.187  0.00  0.00    -0.429 OA
ATOM     23  O   UNL     1      -3.615  -2.275   5.964  0.00  0.00    -0.223 OA
ATOM     24  C   UNL     1      -0.457  -1.581   4.221  0.00  0.00    +0.222 A 
ENDROOT
BRANCH   7   8
ATOM      8  O   UNL     1      -2.580   0.863   2.565  0.00  0.00    -0.484 OA
ATOM      9  H   UNL     1      -2.898   0.552   1.706  0.00  0.00    +0.401 HD
ENDBRANCH   7   8
BRANCH  16  17
ATOM     17  O   UNL     1      -2.724  -7.059   8.521  0.00  0.00    -0.311 OA
ATOM     18  C   UNL     1      -3.864  -7.689   9.109  0.00  0.00    +0.246 C 
ENDBRANCH  16  17
BRANCH  24  25
ATOM     25  O   UNL     1       0.832  -2.007   4.206  0.00  0.00    -0.472 OA
ATOM     26  H   UNL     1       1.409  -1.536   4.823  0.00  0.00    +0.403 HD
ENDBRANCH  24  25
BRANCH   6   5
ATOM      5  C   UNL     1       0.123   0.078   2.439  0.00  0.00    +0.132 C 
BRANCH   5   4
ATOM      1  C   UNL     1      -0.172   1.491   0.017  0.00  0.00    +0.076 C 
ATOM      2  C   UNL     1      -0.071  -0.013   0.007  0.00  0.00    -0.129 C 
ATOM      3  C   UNL     1      -0.190  -0.767  -1.292  0.00  0.00    +0.073 C 
ATOM      4  C   UNL     1       0.121  -0.664   1.128  0.00  0.00    -0.052 C 
ENDBRANCH   5   4
ENDBRANCH   6   5
TORSDOF 5
