REMARK  Name = ZINC95486050
REMARK  11 active torsions:
REMARK  status: ('A' for Active; 'I' for Inactive)
REMARK    1  A    between atoms: C1_1  and  C2_2
REMARK    2  A    between atoms: C2_2  and  C24_30
REMARK    3  A    between atoms: C3_3  and  C4_4
REMARK    4  A    between atoms: C4_4  and  C5_5
REMARK    5  A    between atoms: C7_7  and  C15_16
REMARK    6  A    between atoms: C9_9  and  C11_12
REMARK    7  A    between atoms: C10_10  and  O1_11
REMARK    8  A    between atoms: C12_13  and  C13_14
REMARK    9  A    between atoms: C12_13  and  C14_15
REMARK   10  A    between atoms: C19_22  and  O5_29
REMARK   11  A    between atoms: C21_24  and  O4_28
REMARK                            x       y       z     vdW  Elec       q    Type
REMARK                         _______ _______ _______ _____ _____    ______ ____
ROOT
ATOM      6  C   UNL     1      -0.837  -0.370   4.338  0.00  0.00    -0.096 A 
ATOM      7  C   UNL     1      -0.606  -1.019   5.536  0.00  0.00    +0.042 A 
ATOM      8  C   UNL     1      -1.664  -1.517   6.277  0.00  0.00    -0.099 A 
ATOM     24  C   UNL     1      -2.959  -1.369   5.825  0.00  0.00    +0.063 A 
ATOM     25  C   UNL     1      -3.204  -0.716   4.617  0.00  0.00    -0.071 A 
ATOM     30  C   UNL     1      -2.132  -0.209   3.874  0.00  0.00    +0.131 A 
ENDROOT
BRANCH   8   9
ATOM      9  C   UNL     1      -1.400  -2.224   7.581  0.00  0.00    +0.239 C 
ATOM     10  C   UNL     1      -1.335  -3.739   7.340  0.00  0.00    +0.038 C 
ATOM     11  C   UNL     1      -1.103  -4.399   8.687  0.00  0.00    +0.403 C 
ATOM     12  C   UNL     1      -1.836  -3.839   9.827  0.00  0.00    -0.294 A 
ATOM     13  C   UNL     1      -1.890  -4.525  11.051  0.00  0.00    +0.223 A 
ATOM     16  C   UNL     1      -2.578  -3.968  12.114  0.00  0.00    -0.075 A 
ATOM     17  C   UNL     1      -3.211  -2.740  11.967  0.00  0.00    +0.198 A 
ATOM     20  C   UNL     1      -3.166  -2.059  10.758  0.00  0.00    -0.052 A 
ATOM     21  C   UNL     1      -2.485  -2.599   9.681  0.00  0.00    +0.215 A 
ATOM     22  O   UNL     1      -0.349  -5.342   8.814  0.00  0.00    -0.432 OA
ATOM     23  O   UNL     1      -2.454  -1.936   8.500  0.00  0.00    -0.297 OA
BRANCH  13  14
ATOM     14  O   UNL     1      -1.273  -5.725  11.189  0.00  0.00    -0.479 OA
ATOM     15  H   UNL     1      -0.357  -5.663  11.492  0.00  0.00    +0.403 HD
ENDBRANCH  13  14
BRANCH  17  18
ATOM     18  O   UNL     1      -3.881  -2.200  13.017  0.00  0.00    -0.490 OA
ATOM     19  H   UNL     1      -3.337  -1.633  13.580  0.00  0.00    +0.403 HD
ENDBRANCH  17  18
ENDBRANCH   8   9
BRANCH  25  26
ATOM     26  C   UNL     1      -4.589  -0.555   4.128  0.00  0.00    -0.008 C 
ATOM     27  C   UNL     1      -5.463  -1.542   4.273  0.00  0.00    -0.108 C 
ATOM     28  C   UNL     1      -6.910  -1.326   3.914  0.00  0.00    +0.083 C 
ATOM     29  C   UNL     1      -5.008  -2.880   4.797  0.00  0.00    +0.075 C 
ENDBRANCH  25  26
BRANCH  30  31
ATOM     31  O   UNL     1      -2.360   0.434   2.699  0.00  0.00    -0.488 OA
ATOM     32  H   UNL     1      -2.367  -0.148   1.927  0.00  0.00    +0.389 HD
ENDBRANCH  30  31
BRANCH   6   5
ATOM      5  C   UNL     1       0.322   0.169   3.539  0.00  0.00    +0.117 C 
BRANCH   5   4
ATOM      1  C   UNL     1       0.512   1.115   0.889  0.00  0.00    +0.076 C 
ATOM      2  C   UNL     1       0.676  -0.355   1.180  0.00  0.00    -0.123 C 
ATOM      3  C   UNL     1       0.875  -1.329   0.048  0.00  0.00    +0.072 C 
ATOM      4  C   UNL     1       0.645  -0.785   2.417  0.00  0.00    -0.060 C 
ENDBRANCH   5   4
ENDBRANCH   6   5
TORSDOF 7
