REMARK  Name = ZINC14557836
REMARK  7 active torsions:
REMARK  status: ('A' for Active; 'I' for Inactive)
REMARK    1  A    between atoms: C1_1  and  C2_2
REMARK    2  A    between atoms: C2_2  and  C20_24
REMARK    3  A    between atoms: C9_9  and  C11_12
REMARK    4  A    between atoms: C10_10  and  O1_11
REMARK    5  A    between atoms: C11_12  and  C12_14
REMARK    6  A    between atoms: C13_15  and  C14_16
REMARK    7  A    between atoms: C17_19  and  O3_22
REMARK                            x       y       z     vdW  Elec       q    Type
REMARK                         _______ _______ _______ _____ _____    ______ ____
ROOT
ATOM      1  C   UNL     1      -0.019   1.526   0.010  0.00  0.00    +0.085 C 
ATOM      2  C   UNL     1       0.002  -0.004   0.002  0.00  0.00    +0.146 C 
ATOM      3  C   UNL     1       0.743  -0.505   1.243  0.00  0.00    +0.036 C 
ATOM      4  C   UNL     1       0.719  -0.484  -1.232  0.00  0.00    -0.051 C 
ATOM      5  C   UNL     1       0.408  -1.663  -1.767  0.00  0.00    +0.052 C 
ATOM      6  C   UNL     1      -0.659  -2.459  -1.122  0.00  0.00    -0.177 A 
ATOM      7  C   UNL     1      -1.519  -1.816  -0.219  0.00  0.00    +0.181 A 
ATOM      8  C   UNL     1      -2.530  -2.531   0.405  0.00  0.00    -0.023 A 
ATOM      9  C   UNL     1      -2.693  -3.873   0.142  0.00  0.00    +0.122 A 
ATOM     10  C   UNL     1      -1.844  -4.528  -0.757  0.00  0.00    -0.220 A 
ATOM     23  C   UNL     1      -0.818  -3.815  -1.395  0.00  0.00    +0.214 A 
ATOM     26  O   UNL     1      -1.339  -0.493   0.025  0.00  0.00    -0.300 OA
ENDROOT
BRANCH  10  11
ATOM     11  C   UNL     1      -2.027  -5.965  -1.033  0.00  0.00    +0.426 C 
ATOM     22  O   UNL     1      -1.288  -6.534  -1.815  0.00  0.00    -0.447 OA
BRANCH  11  12
ATOM     12  C   UNL     1      -3.097  -6.706  -0.366  0.00  0.00    -0.102 C 
ATOM     13  C   UNL     1      -3.265  -8.023  -0.619  0.00  0.00    +0.125 C 
BRANCH  13  14
ATOM     14  C   UNL     1      -4.339  -8.769   0.050  0.00  0.00    -0.092 A 
ATOM     15  C   UNL     1      -5.187  -8.118   0.955  0.00  0.00    +0.052 A 
ATOM     16  C   UNL     1      -6.196  -8.820   1.575  0.00  0.00    -0.015 A 
ATOM     17  C   UNL     1      -6.366 -10.175   1.314  0.00  0.00    +0.121 A 
ATOM     20  C   UNL     1      -5.523 -10.827   0.420  0.00  0.00    -0.014 A 
ATOM     21  C   UNL     1      -4.515 -10.133  -0.210  0.00  0.00    +0.060 A 
BRANCH  17  18
ATOM     18  O   UNL     1      -7.359 -10.864   1.932  0.00  0.00    -0.499 OA
ATOM     19  H   UNL     1      -7.096 -11.260   2.774  0.00  0.00    +0.395 HD
ENDBRANCH  17  18
ENDBRANCH  13  14
ENDBRANCH  11  12
ENDBRANCH  10  11
BRANCH  23  24
ATOM     24  O   UNL     1       0.010  -4.440  -2.269  0.00  0.00    -0.473 OA
ATOM     25  H   UNL     1      -0.299  -4.423  -3.185  0.00  0.00    +0.399 HD
ENDBRANCH  23  24
TORSDOF 5
