REMARK  Name = ZINC95485900
REMARK  9 active torsions:
REMARK  status: ('A' for Active; 'I' for Inactive)
REMARK    1  A    between atoms: C1_1  and  C2_2
REMARK    2  A    between atoms: C7_10  and  C8_11
REMARK    3  A    between atoms: C7_10  and  O1_12
REMARK    4  A    between atoms: C13_18  and  C29_42
REMARK    5  A    between atoms: C15_20  and  O5_41
REMARK    6  A    between atoms: C16_22  and  O4_40
REMARK    7  A    between atoms: C17_24  and  C27_38
REMARK    8  A    between atoms: C17_24  and  C28_39
REMARK    9  A    between atoms: C25_33  and  C26_35
REMARK                            x       y       z     vdW  Elec       q    Type
REMARK                         _______ _______ _______ _____ _____    ______ ____
ROOT
ATOM      1  C   UNL     1      -0.236   1.174   0.054  0.00  0.00    +0.025 C 
ATOM      2  C   UNL     1      -0.097  -0.348  -0.026  0.00  0.00    -0.009 C 
ATOM      3  C   UNL     1       0.620  -0.739  -1.317  0.00  0.00    +0.032 C 
ATOM      4  C   UNL     1       2.091  -0.350  -1.263  0.00  0.00    +0.026 C 
ATOM      5  C   UNL     1       2.744  -1.048  -0.067  0.00  0.00    +0.028 C 
ATOM      6  C   UNL     1       4.226  -0.799  -0.055  0.00  0.00    -0.043 C 
ATOM      7  C   UNL     1       4.895  -1.111   1.036  0.00  0.00    -0.091 C 
ATOM      8  C   UNL     1       6.388  -0.886   1.125  0.00  0.00    +0.056 C 
ATOM      9  C   UNL     1       7.005  -1.376  -0.191  0.00  0.00    +0.039 C 
ATOM     10  C   UNL     1       8.518  -1.368  -0.167  0.00  0.00    -0.030 C 
ATOM     11  C   UNL     1       8.998   0.054   0.189  0.00  0.00    +0.026 C 
ATOM     12  C   UNL     1       9.031  -2.300   0.934  0.00  0.00    +0.044 C 
ATOM     13  C   UNL     1       8.708  -3.747   0.558  0.00  0.00    +0.144 C 
ATOM     16  C   UNL     1       9.500  -4.101  -0.699  0.00  0.00    +0.146 C 
ATOM     19  C   UNL     1       9.086  -3.208  -1.871  0.00  0.00    -0.039 C 
ATOM     20  C   UNL     1      10.118  -3.458  -2.996  0.00  0.00    +0.023 C 
ATOM     21  C   UNL     1       7.725  -3.670  -2.390  0.00  0.00    +0.038 C 
ATOM     22  C   UNL     1       9.113  -1.735  -1.515  0.00  0.00    +0.004 C 
ATOM     23  C   UNL     1       8.602  -0.843  -2.632  0.00  0.00    +0.022 C 
ATOM     24  C   UNL     1       7.099  -0.660  -2.689  0.00  0.00    +0.051 C 
ATOM     25  C   UNL     1       6.459  -0.502  -1.321  0.00  0.00    -0.086 C 
ATOM     26  C   UNL     1       5.961   0.898  -0.943  0.00  0.00    +0.014 C 
ATOM     27  C   UNL     1       4.949  -0.224  -1.246  0.00  0.00    -0.068 C 
ATOM     28  C   UNL     1       4.179  -0.056  -2.551  0.00  0.00    +0.065 C 
ATOM     29  C   UNL     1       2.093  -0.555   1.220  0.00  0.00    +0.004 C 
ATOM     30  C   UNL     1       2.845  -0.804  -2.517  0.00  0.00    -0.086 C 
ATOM     34  C   UNL     1       0.600  -0.873   1.220  0.00  0.00    +0.142 C 
ATOM     37  C   UNL     1       0.386  -2.385   1.338  0.00  0.00    +0.006 C 
ENDROOT
BRANCH  30  31
ATOM     31  C   UNL     1       2.067  -0.478  -3.764  0.00  0.00    +0.503 C 
ATOM     32  O   UNL     1       1.717  -1.373  -4.515  0.00  0.00    -0.704 OA
ATOM     33  O   UNL     1       1.788   0.680  -4.024  0.00  0.00    -0.698 OA
ENDBRANCH  30  31
BRANCH  13  14
ATOM     14  O   UNL     1       9.100  -4.613   1.628  0.00  0.00    -0.567 OA
ATOM     15  H   UNL     1       8.925  -5.549   1.460  0.00  0.00    +0.373 HD
ENDBRANCH  13  14
BRANCH  16  17
ATOM     17  O   UNL     1       9.258  -5.468  -1.042  0.00  0.00    -0.558 OA
ATOM     18  H   UNL     1       9.515  -6.098  -0.355  0.00  0.00    +0.370 HD
ENDBRANCH  16  17
BRANCH  34  35
ATOM     35  O   UNL     1       0.005  -0.249   2.372  0.00  0.00    -0.565 OA
ATOM     36  H   UNL     1       0.391  -0.528   3.213  0.00  0.00    +0.366 HD
ENDBRANCH  34  35
TORSDOF 4
