REMARK  Name = ZINC15120572
REMARK  13 active torsions:
REMARK  status: ('A' for Active; 'I' for Inactive)
REMARK    1  A    between atoms: C1_1  and  C2_2
REMARK    2  A    between atoms: C2_2  and  C19_24
REMARK    3  A    between atoms: C3_3  and  C4_4
REMARK    4  A    between atoms: C4_4  and  C5_5
REMARK    5  A    between atoms: C5_5  and  C6_6
REMARK    6  A    between atoms: C6_6  and  C18_23
REMARK    7  A    between atoms: C7_7  and  C8_8
REMARK    8  A    between atoms: C8_8  and  C9_9
REMARK    9  A    between atoms: C9_9  and  C15_18
REMARK   10  A    between atoms: C11_11  and  O2_17
REMARK   11  A    between atoms: C15_18  and  C16_19
REMARK   12  A    between atoms: C16_19  and  O4_21
REMARK   13  A    between atoms: O4_21  and  C17_22
REMARK                            x       y       z     vdW  Elec       q    Type
REMARK                         _______ _______ _______ _____ _____    ______ ____
ROOT
ATOM     11  C   UNL     1      -1.006   0.658   1.520  0.00  0.00    -0.078 C 
ATOM     17  C   UNL     1      -0.899  -0.870   1.608  0.00  0.00    +0.082 C 
ATOM     18  C   UNL     1       0.139  -1.357   0.597  0.00  0.00    +0.201 C 
ATOM     21  C   UNL     1       1.440  -0.630   0.766  0.00  0.00    +0.009 C 
ATOM     22  C   UNL     1       1.539   0.556   1.353  0.00  0.00    -0.073 C 
ATOM     23  C   UNL     1       0.349   1.225   1.889  0.00  0.00    +0.381 C 
ATOM     24  O   UNL     1       0.446   2.201   2.604  0.00  0.00    -0.408 OA
ENDROOT
BRANCH  18  19
ATOM     19  O   UNL     1       0.356  -2.757   0.787  0.00  0.00    -0.554 OA
ATOM     20  H   UNL     1       0.995  -3.142   0.172  0.00  0.00    +0.383 HD
ENDBRANCH  18  19
BRANCH  11  10
ATOM     10  C   UNL     1      -2.067   1.164   2.499  0.00  0.00    +0.094 C 
BRANCH  10   9
ATOM      7  C   UNL     1      -4.001  -0.209   3.080  0.00  0.00    -0.114 C 
ATOM      8  C   UNL     1      -3.354  -0.446   4.420  0.00  0.00    +0.073 C 
ATOM      9  C   UNL     1      -3.393   0.522   2.180  0.00  0.00    -0.062 C 
BRANCH   7   6
ATOM      6  C   UNL     1      -5.348  -0.813   2.776  0.00  0.00    +0.058 C 
BRANCH   6   5
ATOM      5  C   UNL     1      -5.166  -2.259   2.313  0.00  0.00    +0.057 C 
BRANCH   5   4
ATOM      1  C   UNL     1      -5.597  -3.048  -0.361  0.00  0.00    +0.072 C 
ATOM      2  C   UNL     1      -6.674  -3.257   0.672  0.00  0.00    -0.133 C 
ATOM      3  C   UNL     1      -7.952  -3.962   0.297  0.00  0.00    +0.070 C 
ATOM      4  C   UNL     1      -6.499  -2.825   1.897  0.00  0.00    -0.060 C 
ENDBRANCH   5   4
ENDBRANCH   6   5
ENDBRANCH   7   6
ENDBRANCH  10   9
ENDBRANCH  11  10
BRANCH  11  12
ATOM     12  C   UNL     1      -1.374   1.073   0.094  0.00  0.00    +0.127 C 
BRANCH  12  13
ATOM     13  C   UNL     1      -1.393   2.577  -0.001  0.00  0.00    +0.449 C 
ATOM     16  O   UNL     1      -1.041   3.247   0.941  0.00  0.00    -0.479 OA
BRANCH  13  14
ATOM     14  O   UNL     1      -1.801   3.173  -1.133  0.00  0.00    -0.361 OA
ATOM     15  C   UNL     1      -1.903   4.621  -1.116  0.00  0.00    +0.266 C 
ENDBRANCH  13  14
ENDBRANCH  12  13
ENDBRANCH  11  12
TORSDOF 9
