REMARK  Name = ZINC95486203
REMARK  9 active torsions:
REMARK  status: ('A' for Active; 'I' for Inactive)
REMARK    1  A    between atoms: C1_1  and  C2_2
REMARK    2  A    between atoms: C7_8  and  C12_15
REMARK    3  A    between atoms: C10_11  and  C11_13
REMARK    4  A    between atoms: C10_11  and  O1_14
REMARK    5  A    between atoms: C15_18  and  O4_29
REMARK    6  A    between atoms: C19_22  and  C23_27
REMARK    7  A    between atoms: C21_24  and  O2_25
REMARK    8  A    between atoms: O2_25  and  C22_26
REMARK    9  A    between atoms: C23_27  and  O3_28
REMARK                            x       y       z     vdW  Elec       q    Type
REMARK                         _______ _______ _______ _____ _____    ______ ____
ROOT
ATOM      8  C   UNL     1      -1.530  -6.234   0.886  0.00  0.00    -0.051 A 
ATOM      9  C   UNL     1      -0.512  -7.036   0.400  0.00  0.00    +0.057 A 
ATOM     10  C   UNL     1      -0.534  -8.410   0.601  0.00  0.00    -0.021 A 
ATOM     11  C   UNL     1      -1.567  -9.008   1.290  0.00  0.00    +0.144 A 
ATOM     14  C   UNL     1      -2.619  -8.221   1.799  0.00  0.00    -0.092 A 
ATOM     15  C   UNL     1      -3.689  -8.805   2.507  0.00  0.00    +0.154 A 
ATOM     18  C   UNL     1      -4.691  -8.001   3.002  0.00  0.00    -0.079 A 
ATOM     19  C   UNL     1      -4.666  -6.625   2.797  0.00  0.00    -0.041 A 
ATOM     23  C   UNL     1      -3.646  -6.036   2.112  0.00  0.00    +0.005 A 
ATOM     24  C   UNL     1      -2.601  -6.820   1.601  0.00  0.00    +0.009 A 
ENDROOT
BRANCH   8   7
ATOM      1  C   UNL     1      -0.019   1.526   0.010  0.00  0.00    +0.041 C 
ATOM      2  C   UNL     1       0.002  -0.004   0.002  0.00  0.00    +0.135 C 
ATOM      3  C   UNL     1      -1.431  -0.537   0.023  0.00  0.00    +0.093 C 
ATOM      4  C   UNL     1      -1.422  -2.027   0.256  0.00  0.00    -0.055 A 
ATOM      5  C   UNL     1      -2.570  -2.747  -0.044  0.00  0.00    +0.004 A 
ATOM      6  C   UNL     1      -2.614  -4.110   0.156  0.00  0.00    +0.033 A 
ATOM      7  C   UNL     1      -1.495  -4.770   0.664  0.00  0.00    -0.052 A 
ATOM     25  C   UNL     1      -0.345  -4.043   0.962  0.00  0.00    +0.057 A 
ATOM     26  C   UNL     1      -0.310  -2.674   0.754  0.00  0.00    -0.068 A 
ATOM     27  C   UNL     1       0.960  -1.934   1.081  0.00  0.00    +0.341 C 
ATOM     30  C   UNL     1       1.984  -2.172  -0.031  0.00  0.00    -0.003 C 
ATOM     31  N   UNL     1       0.705  -0.496   1.198  0.00  0.00    -0.694 NA
ATOM     32  H   UNL     1       1.562   0.015   1.349  0.00  0.00    +0.345 HD
BRANCH  27  28
ATOM     28  O   UNL     1       1.486  -2.422   2.317  0.00  0.00    -0.543 OA
ATOM     29  H   UNL     1       2.306  -1.991   2.594  0.00  0.00    +0.378 HD
ENDBRANCH  27  28
ENDBRANCH   8   7
BRANCH  11  12
ATOM     12  O   UNL     1      -1.572 -10.353   1.477  0.00  0.00    -0.480 OA
ATOM     13  H   UNL     1      -1.129 -10.639   2.288  0.00  0.00    +0.392 HD
ENDBRANCH  11  12
BRANCH  15  16
ATOM     16  O   UNL     1      -3.723 -10.147   2.711  0.00  0.00    -0.294 OA
ATOM     17  C   UNL     1      -4.840 -10.664   3.437  0.00  0.00    +0.240 C 
ENDBRANCH  15  16
BRANCH  19  20
ATOM     20  C   UNL     1      -5.784  -5.773   3.341  0.00  0.00    +0.229 C 
BRANCH  20  21
ATOM     21  O   UNL     1      -6.818  -5.662   2.362  0.00  0.00    -0.565 OA
ATOM     22  H   UNL     1      -7.572  -5.126   2.645  0.00  0.00    +0.382 HD
ENDBRANCH  20  21
ENDBRANCH  19  20
TORSDOF 6
