REMARK  Name = ZINC03873071
REMARK  4 active torsions:
REMARK  status: ('A' for Active; 'I' for Inactive)
REMARK    1  A    between atoms: C1_1  and  C2_2
REMARK    2  A    between atoms: C2_2  and  C15_18
REMARK    3  A    between atoms: C3_3  and  C4_4
REMARK    4  A    between atoms: C4_4  and  C5_5
REMARK                            x       y       z     vdW  Elec       q    Type
REMARK                         _______ _______ _______ _____ _____    ______ ____
ROOT
ATOM      6  C   UNL     1      -0.864  -0.562   3.381  0.00  0.00    -0.429 C 
ATOM      7  C   UNL     1      -0.435  -1.480   4.271  0.00  0.00    +0.249 C 
ATOM      8  O   UNL     1       0.876  -1.815   4.308  0.00  0.00    -0.641 OA
ATOM      9  C   UNL     1      -1.383  -2.126   5.209  0.00  0.00    +0.390 C 
ATOM     10  C   UNL     1      -2.815  -1.760   5.168  0.00  0.00    -0.128 A 
ATOM     11  C   UNL     1      -3.727  -2.349   6.036  0.00  0.00    +0.055 A 
ATOM     12  C   UNL     1      -5.064  -1.988   5.979  0.00  0.00    +0.002 A 
ATOM     13  C   UNL     1      -5.495  -1.047   5.064  0.00  0.00    +0.017 A 
ATOM     14  C   UNL     1      -4.598  -0.451   4.192  0.00  0.00    +0.046 A 
ATOM     15  C   UNL     1      -3.255  -0.801   4.237  0.00  0.00    -0.091 A 
ATOM     16  O   UNL     1      -0.987  -2.952   6.006  0.00  0.00    -0.435 OA
ATOM     17  C   UNL     1      -2.276  -0.174   3.320  0.00  0.00    +0.425 C 
ATOM     18  O   UNL     1      -2.645   0.659   2.515  0.00  0.00    -0.511 OA
ENDROOT
BRANCH   6   5
ATOM      5  C   UNL     1       0.123   0.078   2.439  0.00  0.00    +0.130 C 
BRANCH   5   4
ATOM      1  C   UNL     1      -0.191   1.488   0.018  0.00  0.00    +0.065 C 
ATOM      2  C   UNL     1      -0.084  -0.015   0.008  0.00  0.00    -0.180 C 
ATOM      3  C   UNL     1      -0.211  -0.771  -1.289  0.00  0.00    +0.055 C 
ATOM      4  C   UNL     1       0.121  -0.664   1.128  0.00  0.00    -0.018 C 
ENDBRANCH   5   4
ENDBRANCH   6   5
TORSDOF 2
