REMARK  Name = ZINC00900117
REMARK  6 active torsions:
REMARK  status: ('A' for Active; 'I' for Inactive)
REMARK    1  A    between atoms: C2_2  and  C3_3
REMARK    2  A    between atoms: C3_3  and  C4_5
REMARK    3  A    between atoms: C3_3  and  C12_14
REMARK    4  A    between atoms: C5_6  and  C6_7
REMARK    5  A    between atoms: C9_10  and  O1_13
REMARK    6  A    between atoms: C15_17  and  O2_20
REMARK                            x       y       z     vdW  Elec       q    Type
REMARK                         _______ _______ _______ _____ _____    ______ ____
ROOT
ATOM      3  C   UNL     1      -2.451   0.944   0.019  0.00  0.00    +0.102 C 
ENDROOT
BRANCH   3   4
ATOM      4  C   UNL     1      -3.252   1.304  -1.206  0.00  0.00    -0.112 A 
ATOM      5  C   UNL     1      -3.647   2.613  -1.412  0.00  0.00    +0.058 A 
ATOM      6  C   UNL     1      -4.377   2.946  -2.537  0.00  0.00    -0.033 A 
ATOM      7  C   UNL     1      -4.722   1.965  -3.454  0.00  0.00    +0.153 A 
ATOM     10  C   UNL     1      -4.329   0.651  -3.242  0.00  0.00    -0.086 A 
ATOM     11  C   UNL     1      -3.594   0.324  -2.119  0.00  0.00    +0.049 A 
BRANCH   7   8
ATOM      8  O   UNL     1      -5.445   2.289  -4.558  0.00  0.00    -0.512 OA
ATOM      9  H   UNL     1      -5.719   1.510  -5.285  0.00  0.00    +0.433 HD
ENDBRANCH   7   8
ENDBRANCH   3   4
BRANCH   3   2
ATOM      1  C   UNL     1      -0.013   1.076   0.008  0.00  0.00    +0.011 C 
ATOM      2  C   UNL     1      -1.156   1.715   0.017  0.00  0.00    -0.031 C 
ENDBRANCH   3   2
BRANCH   3  12
ATOM     12  C   UNL     1      -3.240   1.291   1.255  0.00  0.00    -0.021 C 
ATOM     13  C   UNL     1      -3.561   0.342   2.124  0.00  0.00    +0.009 C 
BRANCH  13  14
ATOM     14  C   UNL     1      -4.335   0.682   3.336  0.00  0.00    -0.098 A 
ATOM     15  C   UNL     1      -4.724   2.002   3.571  0.00  0.00    +0.059 A 
ATOM     16  C   UNL     1      -5.450   2.314   4.700  0.00  0.00    -0.032 A 
ATOM     17  C   UNL     1      -5.785   1.320   5.609  0.00  0.00    +0.157 A 
ATOM     20  C   UNL     1      -5.395   0.006   5.382  0.00  0.00    -0.087 A 
ATOM     21  C   UNL     1      -4.674  -0.315   4.252  0.00  0.00    +0.058 A 
BRANCH  17  18
ATOM     18  O   UNL     1      -6.496   1.632   6.724  0.00  0.00    -0.511 OA
ATOM     19  H   UNL     1      -6.762   0.845   7.445  0.00  0.00    +0.434 HD
ENDBRANCH  17  18
ENDBRANCH  13  14
ENDBRANCH   3  12
TORSDOF 6
