REMARK  Name = ZINC95486185
REMARK  19 active torsions:
REMARK  status: ('A' for Active; 'I' for Inactive)
REMARK    1  A    between atoms: C1_1  and  C2_2
REMARK    2  A    between atoms: C5_5  and  C36_47
REMARK    3  A    between atoms: C7_7  and  C13_15
REMARK    4  A    between atoms: C8_8  and  O2_14
REMARK    5  A    between atoms: C10_10  and  O1_12
REMARK    6  A    between atoms: O1_12  and  C12_13
REMARK    7  A    between atoms: C15_17  and  C25_29
REMARK    8  A    between atoms: C18_20  and  C24_28
REMARK    9  A    between atoms: C20_22  and  O4_26
REMARK   10  A    between atoms: C22_24  and  O3_25
REMARK   11  A    between atoms: O4_26  and  C23_27
REMARK   12  A    between atoms: C26_30  and  O6_46
REMARK   13  A    between atoms: C28_32  and  O5_45
REMARK   14  A    between atoms: C32_38  and  C35_44
REMARK   15  A    between atoms: C33_41  and  C34_43
REMARK   16  A    between atoms: C40_51  and  O8_54
REMARK   17  A    between atoms: C41_52  and  O7_53
REMARK   18  A    between atoms: C42_55  and  C46_62
REMARK   19  A    between atoms: C43_58  and  C45_61
REMARK                            x       y       z     vdW  Elec       q    Type
REMARK                         _______ _______ _______ _____ _____    ______ ____
ROOT
ATOM      1  C   UNL     1      -0.018   1.503   0.010  0.00  0.00    +0.096 C 
ATOM      2  C   UNL     1       0.002  -0.004   0.002  0.00  0.00    -0.008 A 
ATOM      3  C   UNL     1       0.005  -0.668  -1.188  0.00  0.00    -0.063 A 
ATOM      4  C   UNL     1       0.024  -2.070  -1.208  0.00  0.00    +0.028 A 
ATOM      5  C   UNL     1       0.029  -2.781  -2.434  0.00  0.00    -0.088 A 
ATOM     24  C   UNL     1       0.048  -4.162  -2.425  0.00  0.00    +0.082 A 
ATOM     25  C   UNL     1       0.063  -4.868  -1.216  0.00  0.00    -0.097 A 
ATOM     59  C   UNL     1       0.059  -4.192  -0.002  0.00  0.00    +0.204 A 
ATOM     62  C   UNL     1       0.040  -2.785   0.014  0.00  0.00    -0.109 A 
ATOM     63  C   UNL     1       0.036  -2.073   1.230  0.00  0.00    +0.177 A 
ATOM     66  C   UNL     1       0.023  -0.695   1.209  0.00  0.00    -0.099 A 
ENDROOT
BRANCH   5   6
ATOM      6  C   UNL     1       0.012  -2.046  -3.720  0.00  0.00    -0.027 A 
ATOM      7  C   UNL     1       1.216  -1.687  -4.335  0.00  0.00    -0.069 A 
ATOM      8  C   UNL     1       1.201  -1.006  -5.531  0.00  0.00    -0.124 A 
ATOM      9  C   UNL     1       2.473  -0.608  -6.231  0.00  0.00    +0.228 C 
ATOM     10  C   UNL     1       2.317   0.805  -6.798  0.00  0.00    +0.098 C 
ATOM     11  N   UNL     1       3.605  -0.632  -5.301  0.00  0.00    -0.504 N 
ATOM     12  H   UNL     1       3.480   0.082  -4.598  0.00  0.00    +0.433 HD
ATOM     13  H   UNL     1       4.462  -0.464  -5.806  0.00  0.00    +0.433 HD
ATOM     14  C   UNL     1       3.666  -1.952  -4.655  0.00  0.00    +0.178 C 
ATOM     15  C   UNL     1       3.539  -3.049  -5.715  0.00  0.00    +0.083 C 
ATOM     16  C   UNL     1      -0.011  -0.673  -6.122  0.00  0.00    +0.039 A 
ATOM     17  C   UNL     1      -1.209  -1.022  -5.523  0.00  0.00    +0.102 A 
ATOM     20  C   UNL     1       2.511  -2.061  -3.659  0.00  0.00    +0.130 C 
ATOM     21  C   UNL     1      -1.204  -1.717  -4.319  0.00  0.00    +0.128 A 
BRANCH  17  18
ATOM     18  O   UNL     1      -2.388  -0.690  -6.113  0.00  0.00    -0.483 OA
ATOM     19  H   UNL     1      -2.725  -1.361  -6.723  0.00  0.00    +0.404 HD
ENDBRANCH  17  18
BRANCH  21  22
ATOM     22  O   UNL     1      -2.377  -2.070  -3.728  0.00  0.00    -0.479 OA
ATOM     23  H   UNL     1      -2.725  -1.405  -3.118  0.00  0.00    +0.406 HD
ENDBRANCH  21  22
ENDBRANCH   5   6
BRANCH  25  26
ATOM     26  C   UNL     1       0.082  -6.350  -1.231  0.00  0.00    -0.106 A 
ATOM     27  C   UNL     1       1.196  -7.016  -1.753  0.00  0.00    +0.047 A 
ATOM     28  C   UNL     1       1.240  -8.403  -1.778  0.00  0.00    -0.034 A 
ATOM     47  C   UNL     1       0.102  -9.159  -1.251  0.00  0.00    +0.026 A 
ATOM     48  C   UNL     1       0.099 -10.559  -1.253  0.00  0.00    -0.032 A 
ATOM     49  C   UNL     1      -0.974 -11.238  -0.755  0.00  0.00    -0.020 A 
ATOM     50  C   UNL     1      -0.968 -12.745  -0.763  0.00  0.00    +0.095 C 
ATOM     51  C   UNL     1      -2.074 -10.559  -0.240  0.00  0.00    -0.096 A 
ATOM     52  C   UNL     1      -2.107  -9.183  -0.221  0.00  0.00    +0.167 A 
ATOM     55  C   UNL     1      -1.010  -8.457  -0.729  0.00  0.00    -0.109 A 
ATOM     56  C   UNL     1      -1.003  -7.050  -0.722  0.00  0.00    +0.194 A 
BRANCH  28  29
ATOM     29  C   UNL     1       2.408  -9.102  -2.326  0.00  0.00    -0.186 C 
ATOM     30  C   UNL     1       3.305  -9.707  -1.502  0.00  0.00    +0.182 C 
ATOM     33  C   UNL     1       4.488 -10.364  -2.066  0.00  0.00    -0.138 C 
ATOM     34  C   UNL     1       4.893 -10.068  -3.313  0.00  0.00    +0.138 C 
ATOM     37  C   UNL     1       4.135  -9.039  -4.100  0.00  0.00    +0.062 C 
ATOM     38  C   UNL     1       4.346  -9.190  -5.603  0.00  0.00    +0.191 C 
ATOM     39  C   UNL     1       3.793 -10.540  -6.065  0.00  0.00    +0.097 C 
ATOM     40  N   UNL     1       3.636  -8.103  -6.296  0.00  0.00    -0.502 N 
ATOM     41  H   UNL     1       3.972  -7.214  -5.958  0.00  0.00    +0.420 HD
ATOM     42  H   UNL     1       3.810  -8.169  -7.287  0.00  0.00    +0.432 HD
ATOM     43  C   UNL     1       2.194  -8.200  -6.051  0.00  0.00    +0.158 C 
ATOM     44  C   UNL     1       1.480  -7.084  -6.816  0.00  0.00    +0.089 C 
ATOM     45  C   UNL     1       1.895  -8.060  -4.553  0.00  0.00    +0.090 C 
ATOM     46  C   UNL     1       2.636  -9.169  -3.809  0.00  0.00    +0.075 C 
BRANCH  30  31
ATOM     31  O   UNL     1       3.106  -9.702  -0.159  0.00  0.00    -0.456 OA
ATOM     32  H   UNL     1       3.796 -10.157   0.343  0.00  0.00    +0.402 HD
ENDBRANCH  30  31
BRANCH  34  35
ATOM     35  O   UNL     1       5.969 -10.688  -3.851  0.00  0.00    -0.473 OA
ATOM     36  H   UNL     1       6.386 -11.333  -3.263  0.00  0.00    +0.418 HD
ENDBRANCH  34  35
ENDBRANCH  28  29
BRANCH  52  53
ATOM     53  O   UNL     1      -3.186  -8.530   0.284  0.00  0.00    -0.293 OA
ATOM     54  C   UNL     1      -4.257  -9.335   0.781  0.00  0.00    +0.247 C 
ENDBRANCH  52  53
BRANCH  56  57
ATOM     57  O   UNL     1      -2.067  -6.372  -0.218  0.00  0.00    -0.466 OA
ATOM     58  H   UNL     1      -2.752  -6.173  -0.871  0.00  0.00    +0.389 HD
ENDBRANCH  56  57
ENDBRANCH  25  26
BRANCH  59  60
ATOM     60  O   UNL     1       0.073  -4.886   1.164  0.00  0.00    -0.461 OA
ATOM     61  H   UNL     1       0.960  -5.076   1.499  0.00  0.00    +0.392 HD
ENDBRANCH  59  60
BRANCH  63  64
ATOM     64  O   UNL     1       0.051  -2.739   2.414  0.00  0.00    -0.290 OA
ATOM     65  C   UNL     1       0.046  -1.948   3.604  0.00  0.00    +0.251 C 
ENDBRANCH  63  64
TORSDOF 11
