REMARK  Name = ZINC95486080
REMARK  5 active torsions:
REMARK  status: ('A' for Active; 'I' for Inactive)
REMARK    1  A    between atoms: C1_1  and  C2_2
REMARK    2  A    between atoms: C2_2  and  C20_25
REMARK    3  A    between atoms: C3_3  and  C4_4
REMARK    4  A    between atoms: C4_4  and  C5_5
REMARK    5  A    between atoms: C6_6  and  O3_24
REMARK                            x       y       z     vdW  Elec       q    Type
REMARK                         _______ _______ _______ _____ _____    ______ ____
ROOT
ATOM      6  C   UNL     1      -0.864  -0.562   3.381  0.00  0.00    -0.109 A 
ATOM      7  C   UNL     1      -2.194  -0.153   3.422  0.00  0.00    +0.145 A 
ATOM     10  C   UNL     1      -3.108  -0.737   4.282  0.00  0.00    -0.032 A 
ATOM     11  C   UNL     1      -2.740  -1.765   5.140  0.00  0.00    +0.090 A 
ATOM     12  C   UNL     1      -1.427  -2.180   5.105  0.00  0.00    -0.161 A 
ATOM     13  C   UNL     1      -0.680  -3.232   5.836  0.00  0.00    -0.017 C 
ATOM     14  C   UNL     1      -0.951  -3.466   7.301  0.00  0.00    +0.276 C 
ATOM     15  O   UNL     1       0.125  -4.223   7.866  0.00  0.00    -0.323 OA
ATOM     16  C   UNL     1       1.209  -4.593   7.144  0.00  0.00    +0.140 A 
ATOM     17  C   UNL     1       1.638  -3.842   6.029  0.00  0.00    -0.159 A 
ATOM     18  C   UNL     1       2.753  -4.184   5.313  0.00  0.00    +0.072 A 
ATOM     19  C   UNL     1       3.480  -5.310   5.667  0.00  0.00    -0.018 A 
ATOM     20  C   UNL     1       3.073  -6.081   6.739  0.00  0.00    +0.053 A 
ATOM     21  C   UNL     1       1.932  -5.727   7.484  0.00  0.00    -0.013 A 
ATOM     22  C   UNL     1       0.773  -2.664   5.728  0.00  0.00    +0.219 C 
ATOM     23  O   UNL     1       0.751  -2.142   4.406  0.00  0.00    -0.275 OA
ATOM     24  C   UNL     1      -0.483  -1.588   4.237  0.00  0.00    +0.115 A 
ENDROOT
BRANCH   7   8
ATOM      8  O   UNL     1      -2.604   0.846   2.597  0.00  0.00    -0.492 OA
ATOM      9  H   UNL     1      -2.926   0.540   1.738  0.00  0.00    +0.393 HD
ENDBRANCH   7   8
BRANCH   6   5
ATOM      5  C   UNL     1       0.123   0.078   2.439  0.00  0.00    +0.129 C 
BRANCH   5   4
ATOM      1  C   UNL     1      -0.189   1.489   0.017  0.00  0.00    +0.076 C 
ATOM      2  C   UNL     1      -0.083  -0.015   0.008  0.00  0.00    -0.128 C 
ATOM      3  C   UNL     1      -0.210  -0.771  -1.289  0.00  0.00    +0.073 C 
ATOM      4  C   UNL     1       0.121  -0.664   1.128  0.00  0.00    -0.055 C 
ENDBRANCH   5   4
ENDBRANCH   6   5
TORSDOF 3
