REMARK  Name = ZINC06483609
REMARK  9 active torsions:
REMARK  status: ('A' for Active; 'I' for Inactive)
REMARK    1  A    between atoms: C1_1  and  O1_2
REMARK    2  A    between atoms: O1_2  and  C2_3
REMARK    3  A    between atoms: C4_5  and  C9_12
REMARK    4  A    between atoms: C6_7  and  O3_10
REMARK    5  A    between atoms: C7_8  and  O2_9
REMARK    6  A    between atoms: O3_10  and  C8_11
REMARK    7  A    between atoms: C10_13  and  O8_25
REMARK    8  A    between atoms: C13_17  and  O7_24
REMARK    9  A    between atoms: C15_19  and  O6_23
REMARK                            x       y       z     vdW  Elec       q    Type
REMARK                         _______ _______ _______ _____ _____    ______ ____
ROOT
ATOM      6  C   UNL     1       3.206   2.432   3.554  0.00  0.00    +0.113 A 
ATOM      7  C   UNL     1       3.186   3.329   2.528  0.00  0.00    -0.018 A 
ATOM     10  C   UNL     1       2.472   3.018   1.342  0.00  0.00    +0.404 A 
ATOM     11  C   UNL     1       1.782   1.719   1.288  0.00  0.00    -0.311 A 
ATOM     12  C   UNL     1       1.054   1.329   0.157  0.00  0.00    +0.291 A 
ATOM     15  C   UNL     1       0.425   0.098   0.142  0.00  0.00    -0.153 A 
ATOM     16  C   UNL     1       0.511  -0.743   1.246  0.00  0.00    +0.268 A 
ATOM     19  C   UNL     1       1.225  -0.362   2.371  0.00  0.00    -0.142 A 
ATOM     20  C   UNL     1       1.863   0.869   2.405  0.00  0.00    +0.231 A 
ATOM     21  O   UNL     1       2.430   3.797   0.404  0.00  0.00    -0.453 OA
ATOM     22  O   UNL     1       2.562   1.254   3.493  0.00  0.00    -0.199 OA
ENDROOT
BRANCH   6   5
ATOM      3  C   UNL     1       5.956   3.577   5.842  0.00  0.00    +0.117 A 
ATOM      4  C   UNL     1       5.259   3.259   4.691  0.00  0.00    -0.003 A 
ATOM      5  C   UNL     1       3.953   2.771   4.779  0.00  0.00    -0.012 A 
ATOM     23  C   UNL     1       3.353   2.611   6.031  0.00  0.00    -0.030 A 
ATOM     24  C   UNL     1       4.057   2.926   7.179  0.00  0.00    +0.064 A 
ATOM     27  C   UNL     1       5.358   3.411   7.088  0.00  0.00    +0.125 A 
BRANCH   3   2
ATOM      1  C   UNL     1       7.780   4.197   4.446  0.00  0.00    +0.242 C 
ATOM      2  O   UNL     1       7.228   4.051   5.757  0.00  0.00    -0.300 OA
ENDBRANCH   3   2
BRANCH  24  25
ATOM     25  O   UNL     1       3.475   2.766   8.398  0.00  0.00    -0.321 OA
ATOM     26  C   UNL     1       2.138   2.263   8.418  0.00  0.00    +0.253 C 
ENDBRANCH  24  25
BRANCH  27  28
ATOM     28  O   UNL     1       6.046   3.724   8.218  0.00  0.00    -0.491 OA
ATOM     29  H   UNL     1       5.574   3.594   9.203  0.00  0.00    +0.439 HD
ENDBRANCH  27  28
ENDBRANCH   6   5
BRANCH   7   8
ATOM      8  O   UNL     1       3.844   4.515   2.641  0.00  0.00    -0.480 OA
ATOM      9  H   UNL     1       3.824   5.237   1.811  0.00  0.00    +0.443 HD
ENDBRANCH   7   8
BRANCH  12  13
ATOM     13  O   UNL     1       0.971   2.152  -0.920  0.00  0.00    -0.469 OA
ATOM     14  H   UNL     1       0.399   1.841  -1.806  0.00  0.00    +0.442 HD
ENDBRANCH  12  13
BRANCH  16  17
ATOM     17  O   UNL     1      -0.111  -1.950   1.222  0.00  0.00    -0.495 OA
ATOM     18  H   UNL     1      -0.047  -2.620   2.092  0.00  0.00    +0.446 HD
ENDBRANCH  16  17
TORSDOF 7
