REMARK  Name = ZINC95485970
REMARK  12 active torsions:
REMARK  status: ('A' for Active; 'I' for Inactive)
REMARK    1  A    between atoms: C1_1  and  C2_2
REMARK    2  A    between atoms: C2_2  and  C24_29
REMARK    3  A    between atoms: C3_3  and  C4_4
REMARK    4  A    between atoms: C4_4  and  C5_5
REMARK    5  A    between atoms: C5_5  and  C6_6
REMARK    6  A    between atoms: C7_7  and  O5_28
REMARK    7  A    between atoms: C14_15  and  O4_27
REMARK    8  A    between atoms: C17_19  and  C19_22
REMARK    9  A    between atoms: C18_20  and  O3_21
REMARK   10  A    between atoms: C19_22  and  C20_23
REMARK   11  A    between atoms: C19_22  and  C21_24
REMARK   12  A    between atoms: C19_22  and  C22_25
REMARK                            x       y       z     vdW  Elec       q    Type
REMARK                         _______ _______ _______ _____ _____    ______ ____
ROOT
ATOM      7  C   UNL     1      -0.722   0.023   4.744  0.00  0.00    -0.164 A 
ATOM      8  C   UNL     1       0.173  -0.169   5.780  0.00  0.00    +0.216 A 
ATOM     11  C   UNL     1       0.132   0.679   6.894  0.00  0.00    -0.264 A 
ATOM     12  C   UNL     1       1.052   0.489   8.028  0.00  0.00    +0.443 A 
ATOM     13  C   UNL     1       0.727   1.245   9.258  0.00  0.00    -0.210 A 
ATOM     14  C   UNL     1       1.352   0.952  10.469  0.00  0.00    +0.108 A 
ATOM     15  C   UNL     1       1.024   1.670  11.598  0.00  0.00    +0.011 A 
ATOM     16  C   UNL     1       0.076   2.680  11.531  0.00  0.00    +0.065 A 
ATOM     17  C   UNL     1      -0.550   2.982  10.336  0.00  0.00    +0.086 A 
ATOM     20  C   UNL     1      -0.230   2.267   9.180  0.00  0.00    +0.125 A 
ATOM     21  O   UNL     1      -0.834   2.568   8.012  0.00  0.00    -0.206 OA
ATOM     22  O   UNL     1       2.021  -0.245   7.959  0.00  0.00    -0.431 OA
ATOM     23  C   UNL     1      -0.800   1.732   6.956  0.00  0.00    +0.189 A 
ATOM     24  C   UNL     1      -1.690   1.905   5.906  0.00  0.00    -0.132 A 
ATOM     30  C   UNL     1      -1.647   1.059   4.807  0.00  0.00    +0.196 A 
ENDROOT
BRANCH  24  25
ATOM     25  C   UNL     1      -2.703   3.019   5.956  0.00  0.00    +0.014 C 
ATOM     28  C   UNL     1      -1.990   4.345   6.228  0.00  0.00    +0.051 C 
ATOM     29  C   UNL     1      -3.710   2.743   7.074  0.00  0.00    +0.044 C 
BRANCH  25  26
ATOM     26  C   UNL     1      -3.427   3.100   4.637  0.00  0.00    +0.012 C 
ATOM     27  C   UNL     1      -4.726   2.939   4.592  0.00  0.00    -0.033 C 
ENDBRANCH  25  26
ENDBRANCH  24  25
BRANCH   8   9
ATOM      9  O   UNL     1       1.084  -1.173   5.719  0.00  0.00    -0.473 OA
ATOM     10  H   UNL     1       1.922  -0.919   5.307  0.00  0.00    +0.402 HD
ENDBRANCH   8   9
BRANCH  17  18
ATOM     18  O   UNL     1      -1.478   3.974  10.287  0.00  0.00    -0.480 OA
ATOM     19  H   UNL     1      -1.110   4.846  10.086  0.00  0.00    +0.393 HD
ENDBRANCH  17  18
BRANCH  30  31
ATOM     31  O   UNL     1      -2.521   1.242   3.786  0.00  0.00    -0.470 OA
ATOM     32  H   UNL     1      -3.373   0.801   3.913  0.00  0.00    +0.398 HD
ENDBRANCH  30  31
BRANCH   7   6
ATOM      6  C   UNL     1      -0.691  -0.886   3.542  0.00  0.00    +0.098 C 
BRANCH   6   5
ATOM      5  C   UNL     1       0.263  -0.312   2.493  0.00  0.00    +0.055 C 
BRANCH   5   4
ATOM      1  C   UNL     1      -0.200   0.734  -0.085  0.00  0.00    +0.073 C 
ATOM      2  C   UNL     1       0.022  -0.745   0.102  0.00  0.00    -0.128 C 
ATOM      3  C   UNL     1      -0.068  -1.675  -1.080  0.00  0.00    +0.072 C 
ATOM      4  C   UNL     1       0.294  -1.222   1.291  0.00  0.00    -0.061 C 
ENDBRANCH   5   4
ENDBRANCH   6   5
ENDBRANCH   7   6
TORSDOF 8
