REMARK  Name = ZINC00119988
REMARK  6 active torsions:
REMARK  status: ('A' for Active; 'I' for Inactive)
REMARK    1  A    between atoms: C3_3  and  O6_23
REMARK    2  A    between atoms: C4_4  and  O5_22
REMARK    3  A    between atoms: C6_6  and  C7_7
REMARK    4  A    between atoms: C8_9  and  O4_21
REMARK    5  A    between atoms: C11_13  and  O3_20
REMARK    6  A    between atoms: C13_15  and  O2_19
REMARK                            x       y       z     vdW  Elec       q    Type
REMARK                         _______ _______ _______ _____ _____    ______ ____
ROOT
ATOM     11  C   UNL     1      -1.294  -0.774   0.010  0.00  0.00    +0.243 C 
ATOM     12  C   UNL     1      -1.822  -0.910  -1.423  0.00  0.00    +0.157 C 
ATOM     15  C   UNL     1      -3.076  -1.788  -1.391  0.00  0.00    +0.076 C 
ATOM     16  C   UNL     1      -4.004  -1.309  -0.304  0.00  0.00    -0.192 A 
ATOM     17  C   UNL     1      -5.336  -1.705  -0.341  0.00  0.00    +0.158 A 
ATOM     20  C   UNL     1      -6.217  -1.286   0.643  0.00  0.00    -0.065 A 
ATOM     21  C   UNL     1      -5.767  -0.469   1.670  0.00  0.00    +0.158 A 
ATOM     24  C   UNL     1      -4.441  -0.073   1.706  0.00  0.00    -0.044 A 
ATOM     25  C   UNL     1      -3.556  -0.490   0.717  0.00  0.00    +0.175 A 
ATOM     26  O   UNL     1      -2.266  -0.070   0.785  0.00  0.00    -0.292 OA
ENDROOT
BRANCH  11  10
ATOM      1  C   UNL     1      -0.017   1.378   0.010  0.00  0.00    +0.076 A 
ATOM      2  C   UNL     1       1.170   2.089   0.002  0.00  0.00    +0.003 A 
ATOM      3  C   UNL     1       2.380   1.415  -0.013  0.00  0.00    +0.090 A 
ATOM      6  C   UNL     1       2.399   0.024  -0.021  0.00  0.00    +0.078 A 
ATOM      9  C   UNL     1       1.207  -0.682  -0.013  0.00  0.00    +0.017 A 
ATOM     10  C   UNL     1       0.002  -0.004   0.002  0.00  0.00    -0.081 A 
BRANCH   3   4
ATOM      4  O   UNL     1       3.548   2.113  -0.021  0.00  0.00    -0.488 OA
ATOM      5  H   UNL     1       3.894   2.310   0.860  0.00  0.00    +0.389 HD
ENDBRANCH   3   4
BRANCH   6   7
ATOM      7  O   UNL     1       3.585  -0.642  -0.036  0.00  0.00    -0.486 OA
ATOM      8  H   UNL     1       3.937  -0.839   0.843  0.00  0.00    +0.388 HD
ENDBRANCH   6   7
ENDBRANCH  11  10
BRANCH  12  13
ATOM     13  O   UNL     1      -2.151   0.381  -1.941  0.00  0.00    -0.547 OA
ATOM     14  H   UNL     1      -2.492   0.367  -2.846  0.00  0.00    +0.383 HD
ENDBRANCH  12  13
BRANCH  17  18
ATOM     18  O   UNL     1      -5.777  -2.506  -1.346  0.00  0.00    -0.492 OA
ATOM     19  H   UNL     1      -5.705  -3.452  -1.156  0.00  0.00    +0.394 HD
ENDBRANCH  17  18
BRANCH  21  22
ATOM     22  O   UNL     1      -6.627  -0.057   2.638  0.00  0.00    -0.492 OA
ATOM     23  H   UNL     1      -6.677  -0.652   3.399  0.00  0.00    +0.396 HD
ENDBRANCH  21  22
TORSDOF 6
