REMARK  Name = ZINC14759061
REMARK  6 active torsions:
REMARK  status: ('A' for Active; 'I' for Inactive)
REMARK    1  A    between atoms: C1_1  and  O1_2
REMARK    2  A    between atoms: O1_2  and  C2_3
REMARK    3  A    between atoms: C3_4  and  O6_22
REMARK    4  A    between atoms: C5_6  and  C8_10
REMARK    5  A    between atoms: C7_8  and  O2_9
REMARK    6  A    between atoms: C12_15  and  O5_21
REMARK                            x       y       z     vdW  Elec       q    Type
REMARK                         _______ _______ _______ _____ _____    ______ ____
ROOT
ATOM      9  C   UNL     1      -1.212   1.712   0.017  0.00  0.00    -0.249 A 
ATOM     10  C   UNL     1      -0.013   1.076   0.008  0.00  0.00    +0.349 A 
ATOM     11  O   UNL     1       1.150   1.734   0.000  0.00  0.00    -0.217 OA
ATOM     12  C   UNL     1       1.239   3.078   0.006  0.00  0.00    +0.163 A 
ATOM     13  C   UNL     1       2.479   3.704  -0.003  0.00  0.00    -0.019 A 
ATOM     14  C   UNL     1       2.552   5.087   0.002  0.00  0.00    +0.176 A 
ATOM     17  C   UNL     1       1.392   5.859   0.017  0.00  0.00    -0.027 A 
ATOM     18  C   UNL     1       0.165   5.259   0.026  0.00  0.00    +0.137 A 
ATOM     19  C   UNL     1       0.075   3.866   0.021  0.00  0.00    -0.230 A 
ATOM     20  C   UNL     1      -1.232   3.185   0.030  0.00  0.00    +0.429 A 
ATOM     21  O   UNL     1      -2.278   3.810   0.043  0.00  0.00    -0.447 OA
ENDROOT
BRANCH   9   8
ATOM      3  C   UNL     1      -4.848  -0.508   0.025  0.00  0.00    +0.048 A 
ATOM      4  C   UNL     1      -3.856  -0.802  -0.905  0.00  0.00    +0.107 A 
ATOM      7  C   UNL     1      -2.674  -0.082  -0.909  0.00  0.00    +0.006 A 
ATOM      8  C   UNL     1      -2.478   0.939   0.020  0.00  0.00    +0.003 A 
ATOM     22  C   UNL     1      -3.470   1.229   0.954  0.00  0.00    +0.029 A 
ATOM     23  C   UNL     1      -4.654   0.509   0.952  0.00  0.00    +0.109 A 
BRANCH   3   2
ATOM      1  C   UNL     1      -6.050  -2.393   0.840  0.00  0.00    +0.221 C 
ATOM      2  O   UNL     1      -6.009  -1.218   0.027  0.00  0.00    -0.317 OA
ENDBRANCH   3   2
BRANCH   4   5
ATOM      5  O   UNL     1      -4.048  -1.799  -1.811  0.00  0.00    -0.481 OA
ATOM      6  H   UNL     1      -3.747  -2.667  -1.510  0.00  0.00    +0.389 HD
ENDBRANCH   4   5
BRANCH  23  24
ATOM     24  O   UNL     1      -5.624   0.795   1.861  0.00  0.00    -0.480 OA
ATOM     25  H   UNL     1      -5.549   0.297   2.686  0.00  0.00    +0.389 HD
ENDBRANCH  23  24
ENDBRANCH   9   8
BRANCH  14  15
ATOM     15  O   UNL     1       3.765   5.696  -0.007  0.00  0.00    -0.491 OA
ATOM     16  H   UNL     1       4.126   5.868   0.873  0.00  0.00    +0.403 HD
ENDBRANCH  14  15
TORSDOF 5
