REMARK  Name = ZINC95486183
REMARK  25 active torsions:
REMARK  status: ('A' for Active; 'I' for Inactive)
REMARK    1  A    between atoms: C1_1  and  C2_2
REMARK    2  A    between atoms: C6_6  and  O1_8
REMARK    3  A    between atoms: C12_14  and  O4_18
REMARK    4  A    between atoms: C14_16  and  O3_17
REMARK    5  A    between atoms: O4_18  and  C15_19
REMARK    6  A    between atoms: C15_19  and  C16_20
REMARK    7  A    between atoms: C17_21  and  C18_22
REMARK    8  A    between atoms: C17_21  and  C19_23
REMARK    9  A    between atoms: C19_23  and  C20_24
REMARK   10  A    between atoms: C20_24  and  C21_25
REMARK   11  A    between atoms: C22_26  and  C23_27
REMARK   12  A    between atoms: C22_26  and  C24_28
REMARK   13  A    between atoms: C25_29  and  C26_31
REMARK   14  A    between atoms: C29_35  and  C50_60
REMARK   15  A    between atoms: C31_37  and  O8_59
REMARK   16  A    between atoms: C37_44  and  O7_58
REMARK   17  A    between atoms: C38_45  and  C40_48
REMARK   18  A    between atoms: C39_46  and  O6_47
REMARK   19  A    between atoms: C40_48  and  C41_49
REMARK   20  A    between atoms: C42_50  and  C43_51
REMARK   21  A    between atoms: C42_50  and  C44_52
REMARK   22  A    between atoms: C44_52  and  C45_53
REMARK   23  A    between atoms: C45_53  and  C46_54
REMARK   24  A    between atoms: C47_55  and  C48_56
REMARK   25  A    between atoms: C47_55  and  C49_57
REMARK                            x       y       z     vdW  Elec       q    Type
REMARK                         _______ _______ _______ _____ _____    ______ ____
ROOT
ATOM     31  C   UNL     1      -2.540  -0.778 -12.183  0.00  0.00    +0.111 C 
ATOM     32  C   UNL     1      -3.183   0.089 -13.223  0.00  0.00    -0.025 A 
ATOM     33  C   UNL     1      -3.321   1.443 -12.974  0.00  0.00    +0.015 A 
ATOM     34  C   UNL     1      -3.901   2.276 -13.913  0.00  0.00    -0.039 A 
ATOM     35  C   UNL     1      -4.042   3.748 -13.620  0.00  0.00    +0.098 C 
ATOM     36  C   UNL     1      -4.352   1.773 -15.118  0.00  0.00    -0.016 A 
ATOM     37  C   UNL     1      -4.227   0.418 -15.387  0.00  0.00    +0.169 A 
ATOM     40  C   UNL     1      -3.645  -0.426 -14.433  0.00  0.00    -0.183 A 
ATOM     41  C   UNL     1      -3.532  -1.875 -14.700  0.00  0.00    +0.443 C 
ATOM     42  C   UNL     1      -3.308  -2.769 -13.549  0.00  0.00    -0.186 A 
ATOM     43  C   UNL     1      -3.567  -4.143 -13.668  0.00  0.00    +0.185 A 
ATOM     46  C   UNL     1      -3.369  -4.972 -12.587  0.00  0.00    -0.131 A 
ATOM     57  C   UNL     1      -2.915  -4.437 -11.390  0.00  0.00    +0.163 A 
ATOM     60  C   UNL     1      -2.654  -3.077 -11.279  0.00  0.00    -0.008 A 
ATOM     61  O   UNL     1      -3.621  -2.316 -15.831  0.00  0.00    -0.424 OA
ATOM     62  C   UNL     1      -2.842  -2.237 -12.347  0.00  0.00    -0.018 A 
ENDROOT
BRANCH  31  30
ATOM      1  C   UNL     1      -0.875   4.052 -14.072  0.00  0.00    +0.102 C 
ATOM      2  C   UNL     1      -0.656   3.105 -12.920  0.00  0.00    -0.040 A 
ATOM      3  C   UNL     1      -0.915   1.756 -13.083  0.00  0.00    +0.014 A 
ATOM      4  C   UNL     1      -0.719   0.869 -12.039  0.00  0.00    -0.025 A 
ATOM      5  C   UNL     1      -0.249   1.355 -10.818  0.00  0.00    -0.181 A 
ATOM      6  C   UNL     1      -0.012   0.418  -9.702  0.00  0.00    +0.439 C 
ATOM      7  C   UNL     1       0.092  -1.019 -10.020  0.00  0.00    -0.224 A 
ATOM      8  C   UNL     1      -0.378  -1.489 -11.249  0.00  0.00    +0.012 A 
ATOM      9  C   UNL     1      -0.258  -2.823 -11.542  0.00  0.00    -0.017 A 
ATOM     10  C   UNL     1       0.313  -3.703 -10.631  0.00  0.00    +0.194 A 
ATOM     22  C   UNL     1       0.771  -3.247  -9.403  0.00  0.00    -0.109 A 
ATOM     23  C   UNL     1       0.663  -1.902  -9.091  0.00  0.00    +0.210 A 
ATOM     26  O   UNL     1       0.094   0.817  -8.557  0.00  0.00    -0.422 OA
ATOM     27  C   UNL     1       0.009   2.722 -10.652  0.00  0.00    +0.167 A 
ATOM     30  C   UNL     1      -1.024  -0.582 -12.252  0.00  0.00    +0.112 C 
ATOM     63  C   UNL     1      -0.192   3.592 -11.714  0.00  0.00    -0.015 A 
BRANCH  23  24
ATOM     24  O   UNL     1       1.106  -1.441  -7.895  0.00  0.00    -0.482 OA
ATOM     25  H   UNL     1       0.437  -1.453  -7.197  0.00  0.00    +0.402 HD
ENDBRANCH  23  24
BRANCH  27  28
ATOM     28  O   UNL     1       0.458   3.191  -9.461  0.00  0.00    -0.478 OA
ATOM     29  H   UNL     1       1.421   3.202  -9.380  0.00  0.00    +0.395 HD
ENDBRANCH  27  28
BRANCH  10  11
ATOM     11  O   UNL     1       0.422  -5.019 -10.943  0.00  0.00    -0.290 OA
BRANCH  11  12
ATOM     12  C   UNL     1       1.019  -5.871  -9.963  0.00  0.00    +0.234 C 
BRANCH  12  13
ATOM     13  C   UNL     1       1.055  -7.286 -10.482  0.00  0.00    -0.052 C 
ATOM     14  C   UNL     1       0.649  -8.273  -9.722  0.00  0.00    -0.093 C 
ATOM     21  C   UNL     1       0.297  -8.017  -8.279  0.00  0.00    +0.077 C 
BRANCH  14  15
ATOM     15  C   UNL     1       0.535  -9.664 -10.290  0.00  0.00    +0.068 C 
BRANCH  15  16
ATOM     16  C   UNL     1       1.817 -10.444  -9.992  0.00  0.00    +0.054 C 
BRANCH  16  17
ATOM     17  C   UNL     1       1.702 -11.834 -10.561  0.00  0.00    -0.062 C 
ATOM     18  C   UNL     1       2.615 -12.281 -11.387  0.00  0.00    -0.131 C 
ATOM     19  C   UNL     1       2.501 -13.672 -11.956  0.00  0.00    +0.072 C 
ATOM     20  C   UNL     1       3.780 -11.405 -11.769  0.00  0.00    +0.072 C 
ENDBRANCH  16  17
ENDBRANCH  15  16
ENDBRANCH  14  15
ENDBRANCH  12  13
ENDBRANCH  11  12
ENDBRANCH  10  11
ENDBRANCH  31  30
BRANCH  37  38
ATOM     38  O   UNL     1      -4.666  -0.086 -16.567  0.00  0.00    -0.482 OA
ATOM     39  H   UNL     1      -3.998  -0.088 -17.267  0.00  0.00    +0.398 HD
ENDBRANCH  37  38
BRANCH  43  44
ATOM     44  O   UNL     1      -4.007  -4.654 -14.845  0.00  0.00    -0.473 OA
ATOM     45  H   UNL     1      -3.300  -4.938 -15.440  0.00  0.00    +0.395 HD
ENDBRANCH  43  44
BRANCH  57  58
ATOM     58  O   UNL     1      -2.723  -5.249 -10.319  0.00  0.00    -0.483 OA
ATOM     59  H   UNL     1      -3.502  -5.346  -9.754  0.00  0.00    +0.392 HD
ENDBRANCH  57  58
BRANCH  46  47
ATOM     47  C   UNL     1      -3.646  -6.449 -12.701  0.00  0.00    +0.130 C 
BRANCH  47  48
ATOM     48  C   UNL     1      -5.080  -6.722 -12.328  0.00  0.00    -0.058 C 
ATOM     49  C   UNL     1      -5.866  -7.352 -13.165  0.00  0.00    -0.112 C 
ATOM     56  C   UNL     1      -5.373  -7.699 -14.546  0.00  0.00    +0.075 C 
BRANCH  49  50
ATOM     50  C   UNL     1      -7.264  -7.729 -12.748  0.00  0.00    +0.057 C 
BRANCH  50  51
ATOM     51  C   UNL     1      -8.244  -6.649 -13.210  0.00  0.00    +0.055 C 
BRANCH  51  52
ATOM     52  C   UNL     1      -9.642  -7.027 -12.792  0.00  0.00    -0.059 C 
ATOM     53  C   UNL     1     -10.321  -6.242 -11.992  0.00  0.00    -0.134 C 
ATOM     54  C   UNL     1     -11.754  -6.565 -11.658  0.00  0.00    +0.071 C 
ATOM     55  C   UNL     1      -9.668  -5.017 -11.406  0.00  0.00    +0.071 C 
ENDBRANCH  51  52
ENDBRANCH  50  51
ENDBRANCH  49  50
ENDBRANCH  47  48
ENDBRANCH  46  47
TORSDOF 17
