REMARK  Name = ZINC95486288
REMARK  7 active torsions:
REMARK  status: ('A' for Active; 'I' for Inactive)
REMARK    1  A    between atoms: C1_1  and  C2_2
REMARK    2  A    between atoms: C2_2  and  O2_4
REMARK    3  A    between atoms: O2_4  and  C3_5
REMARK    4  A    between atoms: C4_7  and  C17_26
REMARK    5  A    between atoms: C8_12  and  C16_24
REMARK    6  A    between atoms: C17_26  and  O6_27
REMARK    7  A    between atoms: O6_27  and  C18_28
REMARK                            x       y       z     vdW  Elec       q    Type
REMARK                         _______ _______ _______ _____ _____    ______ ____
ROOT
ATOM      4  C   UNL     1      -0.011  -2.108  -1.051  0.00  0.00    +0.212 C 
ATOM      5  C   UNL     1      -1.451  -2.625  -1.038  0.00  0.00    +0.014 C 
ATOM     10  C   UNL     1      -2.407  -1.478  -1.234  0.00  0.00    +0.005 C 
ATOM     11  C   UNL     1      -3.506  -1.619  -1.966  0.00  0.00    +0.008 C 
ATOM     12  C   UNL     1      -3.859  -2.846  -2.657  0.00  0.00    +0.126 C 
ATOM     13  C   UNL     1      -3.000  -3.531  -3.443  0.00  0.00    -0.230 C 
ATOM     16  C   UNL     1      -1.611  -3.013  -3.708  0.00  0.00    +0.087 C 
ATOM     17  C   UNL     1      -0.625  -4.182  -3.763  0.00  0.00    +0.060 C 
ATOM     18  C   UNL     1       0.288  -4.133  -2.538  0.00  0.00    +0.186 C 
ATOM     19  O   UNL     1       1.489  -4.874  -2.776  0.00  0.00    -0.317 OA
ATOM     20  C   UNL     1       2.558  -4.203  -2.315  0.00  0.00    +0.510 C 
ATOM     21  O   UNL     1       3.666  -4.683  -2.181  0.00  0.00    -0.449 OA
ATOM     22  C   UNL     1       2.212  -2.810  -1.993  0.00  0.00    -0.232 C 
ATOM     23  C   UNL     1       3.033  -1.859  -1.553  0.00  0.00    +0.205 C 
ATOM     24  C   UNL     1       0.723  -2.681  -2.265  0.00  0.00    +0.040 C 
ENDROOT
BRANCH  13  14
ATOM     14  C   UNL     1      -3.408  -4.750  -4.026  0.00  0.00    +0.464 C 
ATOM     15  O   UNL     1      -2.684  -5.314  -4.823  0.00  0.00    -0.452 OA
ENDBRANCH  13  14
BRANCH   4   3
ATOM      3  O   UNL     1      -0.017  -0.681  -1.127  0.00  0.00    -0.336 OA
BRANCH   3   2
ATOM      1  C   UNL     1      -0.038   1.498   0.034  0.00  0.00    +0.162 C 
ATOM      2  C   UNL     1      -0.031  -0.009   0.035  0.00  0.00    +0.457 C 
ATOM     25  O   UNL     1      -0.037  -0.612   1.082  0.00  0.00    -0.503 OA
ENDBRANCH   3   2
ENDBRANCH   4   3
BRANCH   5   6
ATOM      6  C   UNL     1      -1.737  -3.299   0.305  0.00  0.00    +0.229 C 
BRANCH   6   7
ATOM      7  O   UNL     1      -3.040  -3.884   0.277  0.00  0.00    -0.359 OA
BRANCH   7   8
ATOM      8  C   UNL     1      -3.448  -4.520   1.387  0.00  0.00    +0.586 C 
ATOM      9  O   UNL     1      -4.541  -5.034   1.422  0.00  0.00    -0.471 OA
ENDBRANCH   7   8
ENDBRANCH   6   7
ENDBRANCH   5   6
TORSDOF 6
