REMARK  Name = ZINC43606073
REMARK  17 active torsions:
REMARK  status: ('A' for Active; 'I' for Inactive)
REMARK    1  A    between atoms: C1_1  and  C2_2
REMARK    2  A    between atoms: C2_2  and  C3_3
REMARK    3  A    between atoms: C3_3  and  C4_4
REMARK    4  A    between atoms: C4_4  and  C5_5
REMARK    5  A    between atoms: C5_5  and  C6_6
REMARK    6  A    between atoms: C6_6  and  C7_7
REMARK    7  A    between atoms: C7_7  and  C8_8
REMARK    8  A    between atoms: C8_8  and  C9_9
REMARK    9  A    between atoms: C9_9  and  C10_10
REMARK   10  A    between atoms: C10_10  and  C11_12
REMARK   11  A    between atoms: C10_10  and  O3_24
REMARK   12  A    between atoms: C12_13  and  C13_14
REMARK   13  A    between atoms: C14_15  and  C15_16
REMARK   14  A    between atoms: C15_16  and  C16_18
REMARK   15  A    between atoms: C15_16  and  O1_20
REMARK   16  A    between atoms: O1_20  and  C18_21
REMARK   17  A    between atoms: C18_21  and  C19_23
REMARK                            x       y       z     vdW  Elec       q    Type
REMARK                         _______ _______ _______ _____ _____    ______ ____
ROOT
ATOM     10  C   UNL     1      -5.657  -8.242   0.012  0.00  0.00    +0.349 C 
ENDROOT
BRANCH  10  11
ATOM     11  O   UNL     1      -5.092  -8.704  -1.217  0.00  0.00    -0.544 OA
ATOM     12  H   UNL     1      -5.578  -8.421  -2.004  0.00  0.00    +0.382 HD
ENDBRANCH  10  11
BRANCH  10  13
ATOM     13  C   UNL     1      -7.031  -8.752   0.143  0.00  0.00    -0.145 C 
ATOM     14  C   UNL     1      -8.127  -9.159   0.248  0.00  0.00    -0.064 C 
BRANCH  14  15
ATOM     15  C   UNL     1      -9.413  -9.636   0.371  0.00  0.00    -0.037 C 
ATOM     16  C   UNL     1     -10.509 -10.043   0.475  0.00  0.00    -0.121 C 
BRANCH  16  17
ATOM     17  C   UNL     1     -11.884 -10.553   0.607  0.00  0.00    +0.360 C 
BRANCH  17  22
ATOM     22  C   UNL     1     -12.479 -10.066   1.903  0.00  0.00    -0.047 C 
ATOM     23  C   UNL     1     -13.613  -9.410   1.898  0.00  0.00    +0.053 C 
ENDBRANCH  17  22
BRANCH  17  18
ATOM     18  O   UNL     1     -12.674 -10.081  -0.487  0.00  0.00    -0.342 OA
BRANCH  18  19
ATOM     19  C   UNL     1     -13.684 -10.866  -0.892  0.00  0.00    +0.460 C 
ATOM     20  C   UNL     1     -14.560 -10.434  -2.039  0.00  0.00    +0.166 C 
ATOM     21  O   UNL     1     -13.892 -11.919  -0.336  0.00  0.00    -0.501 OA
ENDBRANCH  18  19
ENDBRANCH  17  18
ENDBRANCH  16  17
ENDBRANCH  14  15
ENDBRANCH  10  13
BRANCH  10   9
ATOM      9  C   UNL     1      -5.677  -6.712   0.020  0.00  0.00    +0.004 C 
BRANCH   9   8
ATOM      8  C   UNL     1      -4.242  -6.182   0.009  0.00  0.00    +0.021 C 
BRANCH   8   7
ATOM      7  C   UNL     1      -4.263  -4.652   0.018  0.00  0.00    +0.002 C 
BRANCH   7   6
ATOM      6  C   UNL     1      -2.827  -4.123   0.007  0.00  0.00    +0.003 C 
BRANCH   6   5
ATOM      5  C   UNL     1      -2.848  -2.593   0.015  0.00  0.00    +0.000 C 
BRANCH   5   4
ATOM      4  C   UNL     1      -1.413  -2.063   0.004  0.00  0.00    +0.000 C 
BRANCH   4   3
ATOM      3  C   UNL     1      -1.433  -0.534   0.013  0.00  0.00    -0.001 C 
BRANCH   3   2
ATOM      1  C   UNL     1      -0.019   1.526   0.010  0.00  0.00    +0.006 C 
ATOM      2  C   UNL     1       0.002  -0.004   0.002  0.00  0.00    -0.006 C 
ENDBRANCH   3   2
ENDBRANCH   4   3
ENDBRANCH   5   4
ENDBRANCH   6   5
ENDBRANCH   7   6
ENDBRANCH   8   7
ENDBRANCH   9   8
ENDBRANCH  10   9
TORSDOF 15
