REMARK  Name = ZINC95485880
REMARK  5 active torsions:
REMARK  status: ('A' for Active; 'I' for Inactive)
REMARK    1  A    between atoms: C1_1  and  C2_2
REMARK    2  A    between atoms: C3_3  and  O3_34
REMARK    3  A    between atoms: C16_18  and  C28_33
REMARK    4  A    between atoms: C23_25  and  C27_31
REMARK    5  A    between atoms: C27_31  and  O2_32
REMARK                            x       y       z     vdW  Elec       q    Type
REMARK                         _______ _______ _______ _____ _____    ______ ____
ROOT
ATOM      1  C   UNL     1      -0.018   1.503   0.010  0.00  0.00    +0.108 C 
ATOM      2  C   UNL     1       0.002  -0.004   0.002  0.00  0.00    -0.070 C 
ATOM      3  C   UNL     1      -0.004  -0.654  -1.194  0.00  0.00    +0.012 C 
ATOM      6  C   UNL     1       0.014  -2.067  -1.236  0.00  0.00    +0.381 C 
ATOM      7  C   UNL     1       0.060  -2.803  -0.036  0.00  0.00    -0.122 C 
ATOM      8  C   UNL     1       0.070  -2.158   1.156  0.00  0.00    +0.056 C 
ATOM      9  C   UNL     1       0.144  -2.958   2.434  0.00  0.00    -0.090 C 
ATOM     10  C   UNL     1       1.069  -4.175   2.392  0.00  0.00    +0.094 C 
ATOM     11  C   UNL     1      -0.451  -4.367   2.439  0.00  0.00    +0.028 C 
ATOM     12  C   UNL     1      -1.027  -4.874   3.771  0.00  0.00    +0.106 C 
ATOM     13  C   UNL     1      -0.140  -4.363   4.903  0.00  0.00    -0.083 C 
ATOM     14  C   UNL     1      -0.039  -2.840   5.052  0.00  0.00    +0.013 C 
ATOM     15  C   UNL     1      -1.295  -2.329   5.777  0.00  0.00    +0.052 C 
ATOM     16  C   UNL     1       1.198  -2.527   5.892  0.00  0.00    +0.037 C 
ATOM     17  C   UNL     1       1.040  -3.018   7.321  0.00  0.00    +0.055 C 
ATOM     18  C   UNL     1       0.451  -4.416   7.463  0.00  0.00    -0.066 C 
ATOM     19  C   UNL     1      -0.495  -4.579   8.667  0.00  0.00    -0.000 C 
ATOM     20  C   UNL     1       0.862  -5.308   8.628  0.00  0.00    -0.025 C 
ATOM     21  C   UNL     1       0.749  -6.825   8.552  0.00  0.00    +0.055 C 
ATOM     22  C   UNL     1       0.475  -7.367   7.165  0.00  0.00    +0.000 C 
ATOM     26  C   UNL     1      -0.563  -6.526   6.415  0.00  0.00    +0.066 C 
ATOM     27  C   UNL     1       1.170  -5.152   5.092  0.00  0.00    +0.006 C 
ATOM     28  C   UNL     1       0.069  -5.154   6.172  0.00  0.00    -0.055 C 
ATOM     29  C   UNL     1       0.027  -2.165   3.708  0.00  0.00    +0.021 C 
ATOM     30  C   UNL     1      -0.012  -0.823   3.652  0.00  0.00    -0.046 C 
ATOM     31  C   UNL     1       0.003  -0.108   2.449  0.00  0.00    +0.148 C 
ATOM     32  O   UNL     1      -0.007  -2.650  -2.312  0.00  0.00    -0.491 OA
ATOM     33  C   UNL     1       0.024  -0.743   1.208  0.00  0.00    -0.101 C 
ENDROOT
BRANCH   3   4
ATOM      4  O   UNL     1      -0.027   0.061  -2.351  0.00  0.00    -0.464 OA
ATOM      5  H   UNL     1      -0.030  -0.483  -3.150  0.00  0.00    +0.402 HD
ENDBRANCH   3   4
BRANCH  22  23
ATOM     23  C   UNL     1      -0.040  -8.803   7.284  0.00  0.00    +0.168 C 
BRANCH  23  24
ATOM     24  O   UNL     1       0.968  -9.623   7.878  0.00  0.00    -0.573 OA
ATOM     25  H   UNL     1       0.709 -10.549   7.984  0.00  0.00    +0.380 HD
ENDBRANCH  23  24
ENDBRANCH  22  23
TORSDOF 3
