REMARK  Name = ZINC14826764
REMARK  7 active torsions:
REMARK  status: ('A' for Active; 'I' for Inactive)
REMARK    1  A    between atoms: C1_1  and  C2_2
REMARK    2  A    between atoms: C2_2  and  C23_31
REMARK    3  A    between atoms: C3_3  and  C4_4
REMARK    4  A    between atoms: C4_4  and  C5_5
REMARK    5  A    between atoms: C6_6  and  O7_29
REMARK    6  A    between atoms: C19_22  and  O4_25
REMARK    7  A    between atoms: O7_29  and  C22_30
REMARK                            x       y       z     vdW  Elec       q    Type
REMARK                         _______ _______ _______ _____ _____    ______ ____
ROOT
ATOM      6  C   UNL     1       1.081  -7.918   1.040  0.00  0.00    -0.149 A 
ATOM      7  C   UNL     1       2.437  -8.099   1.274  0.00  0.00    +0.205 A 
ATOM     10  C   UNL     1       3.312  -7.017   1.246  0.00  0.00    -0.106 A 
ATOM     11  C   UNL     1       2.845  -5.760   0.985  0.00  0.00    +0.154 A 
ATOM     12  C   UNL     1       1.482  -5.562   0.744  0.00  0.00    -0.280 A 
ATOM     13  C   UNL     1       0.964  -4.213   0.449  0.00  0.00    +0.391 C 
ATOM     14  O   UNL     1       1.624  -3.209   0.622  0.00  0.00    -0.423 OA
ATOM     15  C   UNL     1      -0.453  -4.172  -0.085  0.00  0.00    +0.115 C 
ATOM     18  C   UNL     1      -1.061  -2.805   0.068  0.00  0.00    -0.203 A 
ATOM     19  C   UNL     1      -0.257  -1.695  -0.174  0.00  0.00    +0.127 A 
ATOM     20  C   UNL     1      -0.831  -0.441  -0.044  0.00  0.00    -0.005 A 
ATOM     21  O   UNL     1      -0.293   0.788  -0.216  0.00  0.00    -0.301 OA
ATOM     22  C   UNL     1      -1.209   1.703   0.422  0.00  0.00    +0.437 C 
ATOM     23  O   UNL     1      -2.479   1.020   0.370  0.00  0.00    -0.299 OA
ATOM     24  C   UNL     1      -2.179  -0.298   0.320  0.00  0.00    +0.086 A 
ATOM     25  C   UNL     1      -2.973  -1.405   0.568  0.00  0.00    +0.022 A 
ATOM     26  C   UNL     1      -2.390  -2.670   0.437  0.00  0.00    +0.166 A 
ATOM     27  O   UNL     1      -3.183  -3.746   0.697  0.00  0.00    -0.296 OA
ATOM     28  C   UNL     1      -2.726  -5.052   0.338  0.00  0.00    +0.308 C 
ATOM     29  C   UNL     1      -1.263  -5.170   0.759  0.00  0.00    +0.173 C 
ATOM     30  O   UNL     1      -0.739  -6.476   0.553  0.00  0.00    -0.271 OA
ATOM     31  C   UNL     1       0.590  -6.650   0.776  0.00  0.00    +0.222 A 
ENDROOT
BRANCH   7   8
ATOM      8  O   UNL     1       2.914  -9.343   1.533  0.00  0.00    -0.299 OA
ATOM      9  C   UNL     1       4.319  -9.463   1.766  0.00  0.00    +0.250 C 
ENDBRANCH   7   8
BRANCH  15  16
ATOM     16  O   UNL     1      -0.468  -4.571  -1.457  0.00  0.00    -0.514 OA
ATOM     17  H   UNL     1       0.026  -3.982  -2.043  0.00  0.00    +0.389 HD
ENDBRANCH  15  16
BRANCH   6   5
ATOM      5  C   UNL     1       0.145  -9.098   1.075  0.00  0.00    +0.134 C 
BRANCH   5   4
ATOM      1  C   UNL     1       0.536 -11.866   0.708  0.00  0.00    +0.074 C 
ATOM      2  C   UNL     1       0.285 -10.975  -0.480  0.00  0.00    -0.128 C 
ATOM      3  C   UNL     1       0.310 -11.551  -1.873  0.00  0.00    +0.070 C 
ATOM      4  C   UNL     1       0.044  -9.699  -0.303  0.00  0.00    -0.049 C 
ENDBRANCH   5   4
ENDBRANCH   6   5
TORSDOF 4
