REMARK  Name = ZINC95486083
REMARK  12 active torsions:
REMARK  status: ('A' for Active; 'I' for Inactive)
REMARK    1  A    between atoms: C1_1  and  C2_2
REMARK    2  A    between atoms: C2_2  and  C25_27
REMARK    3  A    between atoms: C3_3  and  C4_4
REMARK    4  A    between atoms: C4_4  and  C5_5
REMARK    5  A    between atoms: C7_7  and  C16_17
REMARK    6  A    between atoms: C9_9  and  C11_12
REMARK    7  A    between atoms: C10_10  and  O1_11
REMARK    8  A    between atoms: C11_12  and  C12_13
REMARK    9  A    between atoms: C13_14  and  C14_15
REMARK   10  A    between atoms: C13_14  and  C15_16
REMARK   11  A    between atoms: C17_18  and  C18_19
REMARK   12  A    between atoms: C18_19  and  C19_21
REMARK                            x       y       z     vdW  Elec       q    Type
REMARK                         _______ _______ _______ _____ _____    ______ ____
ROOT
ATOM      6  C   UNL     1      -0.415  -1.695   2.913  0.00  0.00    -0.099 A 
ATOM      7  C   UNL     1      -1.748  -1.423   2.711  0.00  0.00    +0.056 A 
ATOM      8  C   UNL     1      -2.710  -1.970   3.570  0.00  0.00    -0.090 A 
ATOM     19  C   UNL     1      -2.308  -2.793   4.630  0.00  0.00    +0.049 A 
ATOM     20  C   UNL     1      -0.971  -3.059   4.822  0.00  0.00    -0.099 A 
ATOM     26  C   UNL     1      -0.021  -2.517   3.963  0.00  0.00    +0.129 A 
ENDROOT
BRANCH   8   9
ATOM      9  C   UNL     1      -4.135  -1.682   3.360  0.00  0.00    +0.144 C 
ATOM     10  C   UNL     1      -5.061  -2.213   4.191  0.00  0.00    -0.115 C 
BRANCH  10  11
ATOM     11  C   UNL     1      -6.436  -1.935   3.989  0.00  0.00    +0.425 C 
ATOM     18  O   UNL     1      -6.784  -1.219   3.067  0.00  0.00    -0.463 OA
BRANCH  11  12
ATOM     12  C   UNL     1      -7.450  -2.515   4.898  0.00  0.00    -0.162 A 
ATOM     13  C   UNL     1      -7.054  -3.331   5.959  0.00  0.00    +0.054 A 
ATOM     14  C   UNL     1      -8.004  -3.869   6.802  0.00  0.00    -0.004 A 
ATOM     15  C   UNL     1      -9.346  -3.600   6.598  0.00  0.00    +0.037 A 
ATOM     16  C   UNL     1      -9.745  -2.792   5.548  0.00  0.00    -0.002 A 
ATOM     17  C   UNL     1      -8.805  -2.243   4.701  0.00  0.00    +0.070 A 
ENDBRANCH  11  12
ENDBRANCH  10  11
ENDBRANCH   8   9
BRANCH  26  27
ATOM     27  O   UNL     1       1.295  -2.787   4.154  0.00  0.00    -0.488 OA
ATOM     28  H   UNL     1       1.745  -2.159   4.735  0.00  0.00    +0.389 HD
ENDBRANCH  26  27
BRANCH   6   5
ATOM      5  C   UNL     1       0.621  -1.107   1.989  0.00  0.00    +0.113 C 
BRANCH   5   4
ATOM      1  C   UNL     1       0.274  -0.401  -0.719  0.00  0.00    +0.072 C 
ATOM      2  C   UNL     1       0.729  -1.790  -0.353  0.00  0.00    -0.131 C 
ATOM      3  C   UNL     1       0.934  -2.824  -1.430  0.00  0.00    +0.073 C 
ATOM      4  C   UNL     1       0.946  -2.099   0.902  0.00  0.00    -0.046 C 
ENDBRANCH   5   4
ENDBRANCH   6   5
BRANCH  20  21
ATOM     21  C   UNL     1      -0.536  -3.944   5.962  0.00  0.00    +0.119 C 
BRANCH  21  22
ATOM     22  C   UNL     1      -0.169  -3.091   7.148  0.00  0.00    -0.057 C 
ATOM     23  C   UNL     1      -0.792  -3.252   8.289  0.00  0.00    -0.125 C 
ATOM     24  C   UNL     1      -0.335  -2.496   9.510  0.00  0.00    +0.074 C 
ATOM     25  C   UNL     1      -1.965  -4.193   8.380  0.00  0.00    +0.073 C 
ENDBRANCH  21  22
ENDBRANCH  20  21
TORSDOF 8
