REMARK  Name = ZINC43079447
REMARK  10 active torsions:
REMARK  status: ('A' for Active; 'I' for Inactive)
REMARK    1  A    between atoms: C1_1  and  C2_2
REMARK    2  A    between atoms: C2_2  and  C25_33
REMARK    3  A    between atoms: C3_3  and  C4_4
REMARK    4  A    between atoms: C4_4  and  C5_5
REMARK    5  A    between atoms: C8_8  and  O5_26
REMARK    6  A    between atoms: C11_12  and  C14_19
REMARK    7  A    between atoms: C12_14  and  O3_18
REMARK    8  A    between atoms: C17_22  and  O4_25
REMARK    9  A    between atoms: C22_29  and  C23_31
REMARK   10  A    between atoms: C22_29  and  C24_32
REMARK                            x       y       z     vdW  Elec       q    Type
REMARK                         _______ _______ _______ _____ _____    ______ ____
ROOT
ATOM      6  C   UNL     1      -0.864  -0.562   3.381  0.00  0.00    -0.149 A 
ATOM      7  C   UNL     1      -2.180  -0.132   3.397  0.00  0.00    +0.225 A 
ATOM      8  C   UNL     1      -3.109  -0.723   4.270  0.00  0.00    -0.202 A 
ATOM      9  C   UNL     1      -4.504  -0.235   4.250  0.00  0.00    +0.057 C 
ATOM     10  C   UNL     1      -4.899   0.489   3.204  0.00  0.00    -0.055 C 
ATOM     11  C   UNL     1      -3.937   0.777   2.082  0.00  0.00    +0.149 C 
ATOM     12  C   UNL     1      -4.020  -0.346   1.046  0.00  0.00    +0.037 C 
ATOM     13  C   UNL     1      -4.317   2.103   1.420  0.00  0.00    +0.086 C 
ATOM     14  C   UNL     1      -2.712  -1.744   5.129  0.00  0.00    +0.246 A 
ATOM     17  C   UNL     1      -1.375  -2.172   5.109  0.00  0.00    -0.306 A 
ATOM     18  C   UNL     1      -0.921  -3.239   6.008  0.00  0.00    +0.372 C 
ATOM     19  O   UNL     1      -1.605  -3.628   6.932  0.00  0.00    -0.418 OA
ATOM     20  C   UNL     1       0.444  -3.839   5.713  0.00  0.00    +0.148 C 
ATOM     23  C   UNL     1       1.369  -2.677   5.323  0.00  0.00    +0.251 C 
ATOM     32  O   UNL     1       0.833  -2.007   4.183  0.00  0.00    -0.282 OA
ATOM     33  O   UNL     1      -2.600   0.863   2.576  0.00  0.00    -0.290 OA
ATOM     34  C   UNL     1      -0.452  -1.583   4.222  0.00  0.00    +0.227 A 
ENDROOT
BRANCH  23  24
ATOM     24  C   UNL     1       2.739  -3.214   4.993  0.00  0.00    -0.095 A 
ATOM     25  C   UNL     1       3.010  -3.678   3.719  0.00  0.00    +0.056 A 
ATOM     26  C   UNL     1       4.264  -4.170   3.415  0.00  0.00    -0.016 A 
ATOM     27  C   UNL     1       5.252  -4.198   4.388  0.00  0.00    +0.117 A 
ATOM     30  C   UNL     1       4.978  -3.732   5.665  0.00  0.00    -0.012 A 
ATOM     31  C   UNL     1       3.724  -3.235   5.963  0.00  0.00    +0.064 A 
BRANCH  27  28
ATOM     28  O   UNL     1       6.487  -4.683   4.091  0.00  0.00    -0.500 OA
ATOM     29  H   UNL     1       7.104  -4.013   3.765  0.00  0.00    +0.394 HD
ENDBRANCH  27  28
ENDBRANCH  23  24
BRANCH  14  15
ATOM     15  O   UNL     1      -3.604  -2.318   5.973  0.00  0.00    -0.471 OA
ATOM     16  H   UNL     1      -4.063  -3.082   5.599  0.00  0.00    +0.400 HD
ENDBRANCH  14  15
BRANCH  20  21
ATOM     21  O   UNL     1       0.948  -4.493   6.879  0.00  0.00    -0.532 OA
ATOM     22  H   UNL     1       0.407  -5.237   7.177  0.00  0.00    +0.395 HD
ENDBRANCH  20  21
BRANCH   6   5
ATOM      5  C   UNL     1       0.123   0.078   2.439  0.00  0.00    +0.137 C 
BRANCH   5   4
ATOM      1  C   UNL     1      -0.187   1.489   0.017  0.00  0.00    +0.074 C 
ATOM      2  C   UNL     1      -0.082  -0.014   0.008  0.00  0.00    -0.126 C 
ATOM      3  C   UNL     1      -0.210  -0.771  -1.289  0.00  0.00    +0.070 C 
ATOM      4  C   UNL     1       0.121  -0.664   1.128  0.00  0.00    -0.051 C 
ENDBRANCH   5   4
ENDBRANCH   6   5
TORSDOF 6
