REMARK  Name = ZINC05849399
REMARK  8 active torsions:
REMARK  status: ('A' for Active; 'I' for Inactive)
REMARK    1  A    between atoms: C1_1  and  C2_2
REMARK    2  A    between atoms: C7_7  and  C13_15
REMARK    3  A    between atoms: C8_8  and  O2_14
REMARK    4  A    between atoms: C10_10  and  O1_12
REMARK    5  A    between atoms: O1_12  and  C12_13
REMARK    6  A    between atoms: C18_20  and  O3_21
REMARK    7  A    between atoms: C19_22  and  C23_28
REMARK    8  A    between atoms: C20_24  and  C22_27
REMARK                            x       y       z     vdW  Elec       q    Type
REMARK                         _______ _______ _______ _____ _____    ______ ____
ROOT
ATOM      8  C   UNL     1       2.519  -1.506  -3.123  0.00  0.00    -0.042 A 
ATOM      9  C   UNL     1       1.580  -2.330  -2.506  0.00  0.00    +0.071 A 
ATOM     10  C   UNL     1       0.780  -1.825  -1.504  0.00  0.00    +0.024 A 
ATOM     11  C   UNL     1       0.900  -0.501  -1.102  0.00  0.00    -0.075 A 
ATOM     12  C   UNL     1       1.824   0.324  -1.708  0.00  0.00    -0.156 A 
ATOM     13  C   UNL     1       1.982   1.769  -1.311  0.00  0.00    +0.240 C 
ATOM     14  N   UNL     1       1.373   2.013   0.004  0.00  0.00    -0.510 N 
ATOM     15  H   UNL     1       1.910   1.518   0.725  0.00  0.00    +0.434 HD
ATOM     16  H   UNL     1       1.381   3.020   0.201  0.00  0.00    +0.435 HD
ATOM     17  C   UNL     1      -0.019   1.525   0.010  0.00  0.00    +0.170 C 
ATOM     18  C   UNL     1      -0.728   2.022   1.272  0.00  0.00    +0.093 C 
ATOM     19  C   UNL     1       1.304   2.656  -2.356  0.00  0.00    +0.092 C 
ATOM     20  C   UNL     1       0.002  -0.004   0.002  0.00  0.00    +0.129 C 
ATOM     21  C   UNL     1       2.638  -0.175  -2.719  0.00  0.00    +0.161 A 
ENDROOT
BRANCH   8   7
ATOM      1  C   UNL     1       8.009  -4.185  -8.201  0.00  0.00    +0.098 C 
ATOM      2  C   UNL     1       7.144  -3.641  -7.093  0.00  0.00    -0.022 A 
ATOM      3  C   UNL     1       5.798  -3.553  -7.275  0.00  0.00    -0.026 A 
ATOM      4  C   UNL     1       4.982  -3.047  -6.250  0.00  0.00    +0.010 A 
ATOM      5  C   UNL     1       3.588  -2.947  -6.416  0.00  0.00    +0.014 A 
ATOM      6  C   UNL     1       2.815  -2.460  -5.411  0.00  0.00    +0.051 A 
ATOM      7  C   UNL     1       3.387  -2.039  -4.201  0.00  0.00    -0.119 A 
ATOM     24  C   UNL     1       4.759  -2.124  -4.003  0.00  0.00    +0.187 A 
ATOM     27  C   UNL     1       5.574  -2.631  -5.031  0.00  0.00    -0.108 A 
ATOM     28  C   UNL     1       6.970  -2.733  -4.871  0.00  0.00    +0.161 A 
ATOM     31  C   UNL     1       7.735  -3.235  -5.900  0.00  0.00    -0.092 A 
BRANCH  24  25
ATOM     25  O   UNL     1       5.308  -1.720  -2.829  0.00  0.00    -0.469 OA
ATOM     26  H   UNL     1       5.370  -2.419  -2.163  0.00  0.00    +0.388 HD
ENDBRANCH  24  25
BRANCH  28  29
ATOM     29  O   UNL     1       7.556  -2.340  -3.711  0.00  0.00    -0.296 OA
ATOM     30  C   UNL     1       8.976  -2.474  -3.623  0.00  0.00    +0.244 C 
ENDBRANCH  28  29
ENDBRANCH   8   7
BRANCH  21  22
ATOM     22  O   UNL     1       3.552   0.635  -3.314  0.00  0.00    -0.478 OA
ATOM     23  H   UNL     1       3.214   1.107  -4.088  0.00  0.00    +0.393 HD
ENDBRANCH  21  22
TORSDOF 4
