REMARK  Name = ZINC15150823
REMARK  9 active torsions:
REMARK  status: ('A' for Active; 'I' for Inactive)
REMARK    1  A    between atoms: C1_1  and  C2_2
REMARK    2  A    between atoms: C2_2  and  C22_29
REMARK    3  A    between atoms: C10_10  and  O1_11
REMARK    4  A    between atoms: C12_14  and  C14_17
REMARK    5  A    between atoms: C16_19  and  O6_26
REMARK    6  A    between atoms: C17_20  and  O5_25
REMARK    7  A    between atoms: C19_22  and  O4_23
REMARK    8  A    between atoms: O4_23  and  C20_24
REMARK    9  A    between atoms: O6_26  and  C21_27
REMARK                            x       y       z     vdW  Elec       q    Type
REMARK                         _______ _______ _______ _____ _____    ______ ____
ROOT
ATOM      1  C   UNL     1       3.770  10.481  -0.489  0.00  0.00    +0.039 C 
ATOM      2  C   UNL     1       2.484  10.660  -1.298  0.00  0.00    +0.146 C 
ATOM      3  C   UNL     1       2.109  12.143  -1.327  0.00  0.00    +0.088 C 
ATOM      4  C   UNL     1       2.713  10.178  -2.707  0.00  0.00    -0.049 C 
ATOM      5  C   UNL     1       2.496   8.901  -3.017  0.00  0.00    +0.057 C 
ATOM      6  C   UNL     1       2.019   7.998  -1.948  0.00  0.00    -0.192 A 
ATOM      7  C   UNL     1       1.484   8.568  -0.778  0.00  0.00    +0.213 A 
ATOM      8  C   UNL     1       1.026   7.761   0.245  0.00  0.00    -0.026 A 
ATOM      9  C   UNL     1       1.090   6.378   0.126  0.00  0.00    +0.200 A 
ATOM     10  C   UNL     1       1.626   5.804  -1.042  0.00  0.00    -0.277 A 
ATOM     11  C   UNL     1       1.688   4.337  -1.138  0.00  0.00    +0.436 A 
ATOM     12  C   UNL     1       1.166   3.574   0.010  0.00  0.00    -0.225 A 
ATOM     25  C   UNL     1       0.674   4.255   1.076  0.00  0.00    +0.332 A 
ATOM     26  O   UNL     1       2.146   3.779  -2.121  0.00  0.00    -0.435 OA
ATOM     27  O   UNL     1       0.642   5.590   1.124  0.00  0.00    -0.215 OA
ATOM     28  C   UNL     1       2.091   6.616  -2.084  0.00  0.00    +0.247 A 
ATOM     31  O   UNL     1       1.431   9.921  -0.679  0.00  0.00    -0.295 OA
ENDROOT
BRANCH  12  13
ATOM     13  C   UNL     1       1.182   2.091   0.002  0.00  0.00    -0.030 A 
ATOM     14  C   UNL     1      -0.017   1.379   0.010  0.00  0.00    -0.002 A 
ATOM     15  C   UNL     1       0.002  -0.004   0.002  0.00  0.00    +0.070 A 
ATOM     18  C   UNL     1       1.216  -0.686  -0.013  0.00  0.00    +0.124 A 
ATOM     21  C   UNL     1       2.410   0.019  -0.020  0.00  0.00    -0.052 A 
ATOM     22  C   UNL     1       2.399   1.403  -0.012  0.00  0.00    +0.139 A 
BRANCH  15  16
ATOM     16  O   UNL     1      -1.167  -0.700   0.010  0.00  0.00    -0.306 OA
ATOM     17  C   UNL     1      -2.376   0.063   0.026  0.00  0.00    +0.238 C 
ENDBRANCH  15  16
BRANCH  18  19
ATOM     19  O   UNL     1       1.231  -2.045  -0.021  0.00  0.00    -0.484 OA
ATOM     20  H   UNL     1       1.227  -2.434  -0.906  0.00  0.00    +0.392 HD
ENDBRANCH  18  19
BRANCH  22  23
ATOM     23  O   UNL     1       3.570   2.094  -0.018  0.00  0.00    -0.304 OA
ATOM     24  C   UNL     1       4.775   1.326  -0.033  0.00  0.00    +0.240 C 
ENDBRANCH  22  23
ENDBRANCH  12  13
BRANCH  28  29
ATOM     29  O   UNL     1       2.607   6.062  -3.210  0.00  0.00    -0.469 OA
ATOM     30  H   UNL     1       3.561   5.908  -3.170  0.00  0.00    +0.403 HD
ENDBRANCH  28  29
TORSDOF 5
