REMARK  Name = ZINC95485953
REMARK  6 active torsions:
REMARK  status: ('A' for Active; 'I' for Inactive)
REMARK    1  A    between atoms: C1_1  and  C2_2
REMARK    2  A    between atoms: C6_8  and  C11_15
REMARK    3  A    between atoms: C8_10  and  O3_14
REMARK    4  A    between atoms: C11_15  and  C12_16
REMARK    5  A    between atoms: C12_16  and  C13_17
REMARK    6  A    between atoms: C13_17  and  C14_19
REMARK                            x       y       z     vdW  Elec       q    Type
REMARK                         _______ _______ _______ _____ _____    ______ ____
ROOT
ATOM      1  C   UNL     1      -0.008   1.528   0.009  0.00  0.00    +0.083 C 
ATOM      2  C   UNL     1       0.010  -0.002   0.001  0.00  0.00    +0.176 C 
ATOM      3  C   UNL     1       0.731  -0.499  -1.261  0.00  0.00    +0.028 C 
ATOM      4  C   UNL     1       0.748  -2.016  -1.200  0.00  0.00    +0.398 C 
ATOM      5  C   UNL     1       1.004  -2.618   0.117  0.00  0.00    -0.263 A 
ATOM      6  C   UNL     1       1.289  -3.981   0.235  0.00  0.00    +0.029 A 
ATOM     12  C   UNL     1       1.518  -4.522   1.468  0.00  0.00    -0.051 A 
ATOM     13  C   UNL     1       1.469  -3.721   2.606  0.00  0.00    +0.185 A 
ATOM     16  C   UNL     1       1.190  -2.366   2.504  0.00  0.00    -0.052 A 
ATOM     17  C   UNL     1       0.959  -1.801   1.260  0.00  0.00    +0.204 A 
ATOM     18  O   UNL     1       0.560  -2.696  -2.187  0.00  0.00    -0.436 OA
ATOM     19  O   UNL     1       0.699  -0.476   1.157  0.00  0.00    -0.305 OA
ENDROOT
BRANCH  13  14
ATOM     14  O   UNL     1       1.695  -4.271   3.826  0.00  0.00    -0.494 OA
ATOM     15  H   UNL     1       2.623  -4.260   4.096  0.00  0.00    +0.402 HD
ENDBRANCH  13  14
BRANCH   6   7
ATOM      7  C   UNL     1       1.341  -4.852  -0.994  0.00  0.00    +0.097 C 
BRANCH   7   8
ATOM      8  C   UNL     1      -0.070  -5.329  -1.342  0.00  0.00    +0.041 C 
BRANCH   8   9
ATOM      9  C   UNL     1      -0.018  -6.199  -2.571  0.00  0.00    +0.359 C 
ATOM     10  C   UNL     1      -1.285  -6.800  -3.123  0.00  0.00    +0.060 C 
ATOM     11  O   UNL     1       1.039  -6.416  -3.113  0.00  0.00    -0.459 OA
ENDBRANCH   8   9
ENDBRANCH   7   8
ENDBRANCH   6   7
TORSDOF 4
