REMARK  Name = ZINC13480800
REMARK  9 active torsions:
REMARK  status: ('A' for Active; 'I' for Inactive)
REMARK    1  A    between atoms: C1_1  and  C2_2
REMARK    2  A    between atoms: C2_2  and  C3_3
REMARK    3  A    between atoms: C2_2  and  C4_4
REMARK    4  A    between atoms: C10_10  and  C27_33
REMARK    5  A    between atoms: C16_19  and  O3_24
REMARK    6  A    between atoms: C17_21  and  C18_22
REMARK    7  A    between atoms: C17_21  and  C19_23
REMARK    8  A    between atoms: O3_24  and  C20_25
REMARK    9  A    between atoms: C20_25  and  C21_27
REMARK                            x       y       z     vdW  Elec       q    Type
REMARK                         _______ _______ _______ _____ _____    ______ ____
ROOT
ATOM      3  C   UNL     1      -1.234  -0.471  -0.066  0.00  0.00    -0.208 C 
ATOM      4  C   UNL     1      -1.695  -1.260  -1.088  0.00  0.00    +0.135 C 
ATOM      5  C   UNL     1      -2.946  -1.888  -1.059  0.00  0.00    -0.132 C 
ATOM      6  C   UNL     1      -3.365  -2.589  -2.143  0.00  0.00    +0.099 C 
ATOM      7  C   UNL     1      -4.671  -3.113  -2.218  0.00  0.00    -0.025 C 
ATOM      8  C   UNL     1      -5.603  -2.861  -1.295  0.00  0.00    -0.028 C 
ATOM      9  C   UNL     1      -5.252  -2.150  -0.019  0.00  0.00    -0.012 C 
ATOM     10  C   UNL     1      -5.469  -3.168   1.115  0.00  0.00    +0.038 C 
ATOM     11  C   UNL     1      -6.248  -1.042   0.257  0.00  0.00    +0.065 C 
ATOM     12  C   UNL     1      -7.673  -1.599   0.229  0.00  0.00    +0.012 C 
ATOM     13  C   UNL     1      -8.006  -2.237  -1.106  0.00  0.00    +0.189 C 
ATOM     23  C   UNL     1      -7.021  -3.331  -1.532  0.00  0.00    -0.020 C 
ATOM     24  C   UNL     1      -7.252  -3.551  -3.049  0.00  0.00    +0.041 C 
ATOM     25  C   UNL     1      -7.331  -4.653  -0.832  0.00  0.00    +0.062 C 
ATOM     26  C   UNL     1      -3.807  -1.808   0.166  0.00  0.00    +0.041 C 
ATOM     27  C   UNL     1      -3.519  -0.531   0.903  0.00  0.00    +0.338 C 
ATOM     28  O   UNL     1      -4.364   0.173   1.396  0.00  0.00    -0.389 OA
ATOM     29  C   UNL     1      -2.074  -0.140   1.012  0.00  0.00    +0.352 C 
ATOM     30  O   UNL     1      -1.655   0.442   1.996  0.00  0.00    -0.404 OA
ENDROOT
BRANCH   3   2
ATOM      1  C   UNL     1       0.131   1.596  -0.127  0.00  0.00    +0.026 C 
ATOM      2  C   UNL     1       0.171   0.067  -0.111  0.00  0.00    +0.041 C 
ATOM     31  C   UNL     1       0.941  -0.410   1.122  0.00  0.00    +0.031 C 
ENDBRANCH   3   2
BRANCH  13  14
ATOM     14  O   UNL     1      -9.322  -2.801  -1.038  0.00  0.00    -0.339 OA
BRANCH  14  15
ATOM     15  C   UNL     1     -10.349  -2.002  -1.389  0.00  0.00    +0.507 C 
ATOM     22  O   UNL     1     -10.136  -0.860  -1.743  0.00  0.00    -0.501 OA
BRANCH  15  16
ATOM     16  C   UNL     1     -11.733  -2.516  -1.344  0.00  0.00    -0.128 A 
ATOM     17  C   UNL     1     -11.982  -3.827  -0.932  0.00  0.00    +0.076 A 
ATOM     18  C   UNL     1     -13.277  -4.300  -0.892  0.00  0.00    -0.001 A 
ATOM     19  C   UNL     1     -14.328  -3.479  -1.259  0.00  0.00    +0.048 A 
ATOM     20  C   UNL     1     -14.089  -2.179  -1.669  0.00  0.00    +0.003 A 
ATOM     21  C   UNL     1     -12.799  -1.691  -1.707  0.00  0.00    +0.082 A 
ENDBRANCH  15  16
ENDBRANCH  14  15
ENDBRANCH  13  14
TORSDOF 4
