REMARK  Name = ZINC95486022
REMARK  11 active torsions:
REMARK  status: ('A' for Active; 'I' for Inactive)
REMARK    1  A    between atoms: C1_1  and  C2_2
REMARK    2  A    between atoms: C8_8  and  O4_31
REMARK    3  A    between atoms: C10_10  and  O3_30
REMARK    4  A    between atoms: C11_11  and  C12_12
REMARK    5  A    between atoms: C15_16  and  O2_28
REMARK    6  A    between atoms: C17_18  and  O1_26
REMARK    7  A    between atoms: C19_20  and  C22_25
REMARK    8  A    between atoms: C20_22  and  C21_24
REMARK    9  A    between atoms: O1_26  and  C23_27
REMARK   10  A    between atoms: O2_28  and  C24_29
REMARK   11  A    between atoms: O4_31  and  C25_32
REMARK                            x       y       z     vdW  Elec       q    Type
REMARK                         _______ _______ _______ _____ _____    ______ ____
ROOT
ATOM     16  C   UNL     1      -1.733  -0.776   2.285  0.00  0.00    +0.078 C 
ATOM     17  C   UNL     1      -2.477  -1.884   2.985  0.00  0.00    +0.014 A 
ATOM     18  C   UNL     1      -3.808  -2.116   2.733  0.00  0.00    -0.045 A 
ATOM     19  C   UNL     1      -4.468  -3.153   3.385  0.00  0.00    +0.173 A 
ATOM     22  C   UNL     1      -3.790  -3.959   4.288  0.00  0.00    -0.164 A 
ATOM     23  C   UNL     1      -2.449  -3.733   4.551  0.00  0.00    +0.185 A 
ATOM     26  C   UNL     1      -1.787  -2.683   3.903  0.00  0.00    -0.113 A 
ATOM     27  C   UNL     1      -0.375  -2.384   4.180  0.00  0.00    +0.255 C 
ATOM     28  C   UNL     1       0.495  -3.413   4.856  0.00  0.00    +0.130 C 
ATOM     29  N   UNL     1       0.122  -1.240   3.844  0.00  0.00    -0.539 NA
ATOM     30  C   UNL     1      -0.683  -0.191   3.228  0.00  0.00    +0.164 C 
ATOM     31  C   UNL     1       0.234   0.745   2.438  0.00  0.00    +0.050 C 
ENDROOT
BRANCH  16  15
ATOM      1  C   UNL     1      -1.608   0.824  -0.104  0.00  0.00    +0.097 C 
ATOM      2  C   UNL     1      -0.993  -0.552  -0.099  0.00  0.00    -0.030 A 
ATOM      3  C   UNL     1      -0.382  -1.017  -1.223  0.00  0.00    -0.016 A 
ATOM      4  C   UNL     1       0.195  -2.299  -1.229  0.00  0.00    +0.010 A 
ATOM      5  C   UNL     1       0.833  -2.804  -2.376  0.00  0.00    -0.022 A 
ATOM      6  C   UNL     1       1.384  -4.048  -2.354  0.00  0.00    +0.057 A 
ATOM      7  C   UNL     1       1.328  -4.838  -1.209  0.00  0.00    -0.100 A 
ATOM      8  C   UNL     1       0.712  -4.380  -0.066  0.00  0.00    +0.150 A 
ATOM     11  C   UNL     1       0.134  -3.095  -0.059  0.00  0.00    -0.122 A 
ATOM     12  C   UNL     1      -0.504  -2.588   1.089  0.00  0.00    +0.168 A 
ATOM     15  C   UNL     1      -1.054  -1.325   1.057  0.00  0.00    -0.115 A 
BRANCH   8   9
ATOM      9  O   UNL     1       0.663  -5.159   1.045  0.00  0.00    -0.315 OA
ATOM     10  C   UNL     1       1.272  -6.449   0.960  0.00  0.00    +0.249 C 
ENDBRANCH   8   9
BRANCH  12  13
ATOM     13  O   UNL     1      -0.574  -3.336   2.221  0.00  0.00    -0.443 OA
ATOM     14  H   UNL     1       0.266  -3.742   2.476  0.00  0.00    +0.385 HD
ENDBRANCH  12  13
ENDBRANCH  16  15
BRANCH  19  20
ATOM     20  O   UNL     1      -5.784  -3.377   3.136  0.00  0.00    -0.313 OA
ATOM     21  C   UNL     1      -6.402  -4.458   3.839  0.00  0.00    +0.240 C 
ENDBRANCH  19  20
BRANCH  23  24
ATOM     24  O   UNL     1      -1.782  -4.523   5.430  0.00  0.00    -0.301 OA
ATOM     25  C   UNL     1      -2.524  -5.573   6.052  0.00  0.00    +0.234 C 
ENDBRANCH  23  24
TORSDOF 5
