REMARK  Name = ZINC95486244
REMARK  15 active torsions:
REMARK  status: ('A' for Active; 'I' for Inactive)
REMARK    1  A    between atoms: C1_1  and  C2_2
REMARK    2  A    between atoms: C6_7  and  C36_56
REMARK    3  A    between atoms: C11_13  and  C29_45
REMARK    4  A    between atoms: C13_15  and  C23_29
REMARK    5  A    between atoms: C14_17  and  C22_26
REMARK    6  A    between atoms: C17_21  and  C20_24
REMARK    7  A    between atoms: C17_21  and  C21_25
REMARK    8  A    between atoms: C24_31  and  O7_44
REMARK    9  A    between atoms: C25_33  and  O6_43
REMARK   10  A    between atoms: C26_35  and  O5_42
REMARK   11  A    between atoms: C27_37  and  C28_40
REMARK   12  A    between atoms: C28_40  and  O4_41
REMARK   13  A    between atoms: C31_47  and  O10_55
REMARK   14  A    between atoms: C33_50  and  C34_51
REMARK   15  A    between atoms: C33_50  and  C35_52
REMARK                            x       y       z     vdW  Elec       q    Type
REMARK                         _______ _______ _______ _____ _____    ______ ____
ROOT
ATOM      1  C   UNL     1       0.571   1.449   0.190  0.00  0.00    +0.001 C 
ATOM      2  C   UNL     1       0.275  -0.084   0.246  0.00  0.00    -0.021 C 
ATOM      3  C   UNL     1       1.127  -0.678  -0.874  0.00  0.00    -0.001 C 
ATOM      4  C   UNL     1       1.443  -2.152  -0.739  0.00  0.00    +0.011 C 
ATOM      5  C   UNL     1       1.903  -2.602   0.638  0.00  0.00    +0.023 C 
ATOM      6  C   UNL     1       1.141  -1.995   1.794  0.00  0.00    -0.015 C 
ATOM      7  C   UNL     1       2.116  -1.988   3.017  0.00  0.00    -0.002 C 
ATOM      8  C   UNL     1      -0.105  -2.736   2.241  0.00  0.00    +0.049 C 
ATOM      9  C   UNL     1       0.004  -4.248   2.222  0.00  0.00    +0.141 C 
ATOM     12  C   UNL     1       0.631  -4.756   0.937  0.00  0.00    +0.007 C 
ATOM     13  C   UNL     1       1.992  -4.128   0.665  0.00  0.00    -0.111 C 
ATOM     17  C   UNL     1       3.027  -4.617   1.683  0.00  0.00    +0.013 C 
ATOM     18  C   UNL     1      -1.210  -0.283   0.013  0.00  0.00    +0.022 C 
ATOM     19  C   UNL     1      -1.405  -1.667  -0.622  0.00  0.00    +0.046 C 
ATOM     20  C   UNL     1      -1.790   0.739  -0.967  0.00  0.00    +0.042 C 
ATOM     21  C   UNL     1      -3.303   0.646  -1.145  0.00  0.00    +0.036 C 
ATOM     37  C   UNL     1      -4.072   0.653   0.163  0.00  0.00    -0.093 C 
ATOM     41  C   UNL     1      -3.537  -0.312   1.204  0.00  0.00    +0.036 C 
ATOM     42  C   UNL     1      -4.037  -1.732   1.049  0.00  0.00    +0.049 C 
ATOM     43  C   UNL     1      -5.567  -1.769   1.067  0.00  0.00    -0.053 C 
ATOM     44  C   UNL     1      -6.101  -1.271   2.406  0.00  0.00    +0.005 C 
ATOM     45  C   UNL     1      -6.026  -3.218   0.860  0.00  0.00    +0.011 C 
ATOM     46  C   UNL     1      -6.101  -0.915  -0.075  0.00  0.00    -0.010 C 
ATOM     47  C   UNL     1      -5.572   0.502  -0.054  0.00  0.00    +0.010 C 
ATOM     48  C   UNL     1      -2.024  -0.240   1.272  0.00  0.00    -0.048 C 
ATOM     49  C   UNL     1      -1.504  -0.122   2.459  0.00  0.00    -0.105 C 
ATOM     50  C   UNL     1      -0.044   0.014   2.737  0.00  0.00    +0.045 C 
ATOM     51  C   UNL     1       0.808  -0.521   1.592  0.00  0.00    -0.007 C 
ENDROOT
BRANCH  21  22
ATOM     22  C   UNL     1      -3.749  -0.432  -2.134  0.00  0.00    +0.154 C 
ATOM     23  C   UNL     1      -3.152  -0.139  -3.513  0.00  0.00    +0.166 C 
ATOM     26  C   UNL     1      -3.553  -1.254  -4.483  0.00  0.00    +0.150 C 
ATOM     29  C   UNL     1      -3.084  -2.599  -3.920  0.00  0.00    +0.131 C 
ATOM     32  C   UNL     1      -3.684  -2.797  -2.525  0.00  0.00    +0.104 C 
ATOM     36  O   UNL     1      -3.297  -1.710  -1.682  0.00  0.00    -0.293 OA
BRANCH  23  24
ATOM     24  O   UNL     1      -3.647   1.113  -3.991  0.00  0.00    -0.547 OA
ATOM     25  H   UNL     1      -3.308   1.363  -4.862  0.00  0.00    +0.378 HD
ENDBRANCH  23  24
BRANCH  26  27
ATOM     27  O   UNL     1      -2.941  -1.026  -5.753  0.00  0.00    -0.562 OA
ATOM     28  H   UNL     1      -3.153  -1.696  -6.418  0.00  0.00    +0.383 HD
ENDBRANCH  26  27
BRANCH  29  30
ATOM     30  O   UNL     1      -3.515  -3.654  -4.781  0.00  0.00    -0.567 OA
ATOM     31  H   UNL     1      -3.252  -4.537  -4.485  0.00  0.00    +0.382 HD
ENDBRANCH  29  30
BRANCH  32  33
ATOM     33  C   UNL     1      -3.172  -4.111  -1.932  0.00  0.00    +0.194 C 
BRANCH  33  34
ATOM     34  O   UNL     1      -3.821  -4.354  -0.682  0.00  0.00    -0.548 OA
ATOM     35  H   UNL     1      -3.544  -5.172  -0.247  0.00  0.00    +0.375 HD
ENDBRANCH  33  34
ENDBRANCH  32  33
ENDBRANCH  21  22
BRANCH  13  14
ATOM     14  C   UNL     1       2.463  -4.641  -0.690  0.00  0.00    +0.507 C 
ATOM     15  O   UNL     1       1.717  -5.316  -1.379  0.00  0.00    -0.705 OA
ATOM     16  O   UNL     1       3.586  -4.378  -1.085  0.00  0.00    -0.703 OA
ENDBRANCH  13  14
BRANCH  37  38
ATOM     38  C   UNL     1      -3.895   2.057   0.754  0.00  0.00    +0.501 C 
ATOM     39  O   UNL     1      -2.880   2.691   0.525  0.00  0.00    -0.680 OA
ATOM     40  O   UNL     1      -4.771   2.539   1.452  0.00  0.00    -0.703 OA
ENDBRANCH  37  38
BRANCH   9  10
ATOM     10  O   UNL     1       0.684  -4.731   3.376  0.00  0.00    -0.564 OA
ATOM     11  H   UNL     1       0.776  -5.693   3.405  0.00  0.00    +0.364 HD
ENDBRANCH   9  10
TORSDOF 9
