REMARK  Name = ZINC95486107
REMARK  3 active torsions:
REMARK  status: ('A' for Active; 'I' for Inactive)
REMARK    1  A    between atoms: C1_1  and  C2_2
REMARK    2  A    between atoms: C6_6  and  C19_23
REMARK    3  A    between atoms: C6_6  and  C20_24
REMARK                            x       y       z     vdW  Elec       q    Type
REMARK                         _______ _______ _______ _____ _____    ______ ____
ROOT
ATOM      1  C   UNL     1      -0.180   1.516   0.455  0.00  0.00    +0.035 C 
ATOM      2  C   UNL     1      -0.158  -0.014   0.455  0.00  0.00    -0.016 C 
ATOM      3  C   UNL     1       0.190  -0.523  -0.943  0.00  0.00    -0.001 C 
ATOM      4  C   UNL     1       1.560   0.030  -1.349  0.00  0.00    +0.012 C 
ATOM      5  C   UNL     1       2.622  -0.429  -0.349  0.00  0.00    +0.007 C 
ATOM      6  C   UNL     1       2.259   0.059   1.057  0.00  0.00    -0.134 C 
ATOM     10  C   UNL     1       3.318  -0.417   2.053  0.00  0.00    +0.013 C 
ATOM     11  C   UNL     1      -1.511  -0.544   0.893  0.00  0.00    -0.068 C 
ATOM     12  C   UNL     1      -2.245  -1.158   0.021  0.00  0.00    -0.088 C 
ATOM     13  C   UNL     1      -3.592  -1.738   0.280  0.00  0.00    +0.077 C 
ATOM     14  C   UNL     1      -3.845  -1.968   1.761  0.00  0.00    +0.008 C 
ATOM     15  C   UNL     1      -3.211  -0.984   2.696  0.00  0.00    -0.005 C 
ATOM     16  C   UNL     1      -4.479  -0.147   2.488  0.00  0.00    +0.055 C 
ATOM     17  C   UNL     1      -5.192  -1.420   2.201  0.00  0.00    -0.143 C 
ATOM     18  C   UNL     1      -6.420  -1.870   2.285  0.00  0.00    +0.025 C 
ATOM     19  C   UNL     1      -1.921  -0.310   2.316  0.00  0.00    +0.041 C 
ATOM     20  C   UNL     1      -0.795  -0.739   3.261  0.00  0.00    -0.002 C 
ATOM     21  C   UNL     1       0.515  -0.061   2.854  0.00  0.00    +0.037 C 
ATOM     22  C   UNL     1       0.897  -0.514   1.446  0.00  0.00    +0.007 C 
ENDROOT
BRANCH   6   7
ATOM      7  C   UNL     1       2.195   1.565   1.067  0.00  0.00    +0.525 C 
ATOM      8  O   UNL     1       1.812   2.152   2.065  0.00  0.00    -0.690 OA
ATOM      9  O   UNL     1       2.525   2.196   0.078  0.00  0.00    -0.696 OA
ENDBRANCH   6   7
TORSDOF 1
