REMARK  Name = ZINC95486044
REMARK  15 active torsions:
REMARK  status: ('A' for Active; 'I' for Inactive)
REMARK    1  A    between atoms: C1_1  and  C2_2
REMARK    2  A    between atoms: C3_4  and  C4_6
REMARK    3  A    between atoms: C3_4  and  C33_56
REMARK    4  A    between atoms: C6_9  and  C8_14
REMARK    5  A    between atoms: C12_21  and  C32_55
REMARK    6  A    between atoms: C20_31  and  C31_54
REMARK    7  A    between atoms: C23_34  and  O5_37
REMARK    8  A    between atoms: O5_37  and  C25_38
REMARK    9  A    between atoms: C26_40  and  O10_53
REMARK   10  A    between atoms: C27_42  and  O9_52
REMARK   11  A    between atoms: C28_44  and  O8_51
REMARK   12  A    between atoms: C29_46  and  C30_49
REMARK   13  A    between atoms: C30_49  and  O7_50
REMARK   14  A    between atoms: C33_56  and  C34_57
REMARK   15  A    between atoms: C33_56  and  C35_58
REMARK                            x       y       z     vdW  Elec       q    Type
REMARK                         _______ _______ _______ _____ _____    ______ ____
ROOT
ATOM     10  C   UNL     1      -5.973   0.014  -1.434  0.00  0.00    -0.008 C 
ATOM     11  C   UNL     1      -6.908  -1.084  -0.928  0.00  0.00    +0.377 C 
ATOM     12  C   UNL     1      -8.340  -0.580  -1.129  0.00  0.00    +0.036 C 
ATOM     13  C   UNL     1      -8.190   0.440  -2.259  0.00  0.00    +0.034 C 
ATOM     14  C   UNL     1      -9.242   1.511  -2.345  0.00  0.00    -0.087 C 
ATOM     15  C   UNL     1     -10.331   1.419  -1.648  0.00  0.00    -0.054 C 
ATOM     16  C   UNL     1     -11.412   2.461  -1.680  0.00  0.00    +0.062 C 
ATOM     17  C   UNL     1     -11.366   3.198  -3.023  0.00  0.00    +0.006 C 
ATOM     18  C   UNL     1      -9.932   3.785  -3.209  0.00  0.00    -0.043 C 
ATOM     19  C   UNL     1      -9.577   4.718  -2.050  0.00  0.00    +0.027 C 
ATOM     20  C   UNL     1      -9.879   4.590  -4.511  0.00  0.00    +0.021 C 
ATOM     21  C   UNL     1     -10.881   5.744  -4.447  0.00  0.00    +0.021 C 
ATOM     22  C   UNL     1     -12.290   5.176  -4.263  0.00  0.00    +0.144 C 
ATOM     39  C   UNL     1     -12.386   4.339  -2.988  0.00  0.00    +0.025 C 
ATOM     40  C   UNL     1      -8.913   2.659  -3.275  0.00  0.00    +0.029 C 
ATOM     41  C   UNL     1      -7.505   3.204  -3.048  0.00  0.00    +0.032 C 
ATOM     42  C   UNL     1      -6.464   2.074  -2.956  0.00  0.00    +0.037 C 
ATOM     43  O   UNL     1      -6.580  -2.147  -0.459  0.00  0.00    -0.427 OA
ATOM     44  C   UNL     1      -6.883   1.167  -1.824  0.00  0.00    -0.050 C 
ATOM     45  C   UNL     1      -7.172   2.021  -0.589  0.00  0.00    +0.036 C 
ENDROOT
BRANCH  10   9
ATOM      7  C   UNL     1      -2.739  -0.013   0.245  0.00  0.00    +0.214 C 
ATOM      8  C   UNL     1      -4.106  -0.735   0.103  0.00  0.00    +0.063 C 
ATOM      9  C   UNL     1      -5.014   0.447  -0.323  0.00  0.00    -0.017 C 
ATOM     46  C   UNL     1      -4.040   1.490  -0.835  0.00  0.00    +0.486 C 
ATOM     47  O   UNL     1      -4.333   2.600  -1.212  0.00  0.00    -0.423 OA
ATOM     48  O   UNL     1      -2.791   0.982  -0.799  0.00  0.00    -0.331 OA
BRANCH   7   3
ATOM      1  C   UNL     1      -2.189  -2.027   2.338  0.00  0.00    +0.071 C 
ATOM      2  C   UNL     1      -1.299  -2.030   1.093  0.00  0.00    +0.137 C 
ATOM      3  C   UNL     1      -1.584  -0.988   0.010  0.00  0.00    +0.023 C 
ATOM     49  O   UNL     1      -1.902  -2.373  -0.156  0.00  0.00    -0.328 OA
BRANCH   3   4
ATOM      4  C   UNL     1      -0.394  -0.431  -0.774  0.00  0.00    +0.023 C 
ATOM      5  C   UNL     1       0.373  -1.584  -1.425  0.00  0.00    +0.031 C 
ATOM      6  C   UNL     1       0.535   0.326   0.177  0.00  0.00    +0.037 C 
ENDBRANCH   3   4
ENDBRANCH   7   3
ENDBRANCH  10   9
BRANCH  22  23
ATOM     23  O   UNL     1     -13.234   6.248  -4.217  0.00  0.00    -0.360 OA
BRANCH  23  24
ATOM     24  C   UNL     1     -13.760   6.614  -5.495  0.00  0.00    +0.316 C 
ATOM     25  C   UNL     1     -14.845   7.679  -5.314  0.00  0.00    +0.140 C 
ATOM     28  C   UNL     1     -14.221   8.932  -4.691  0.00  0.00    +0.153 C 
ATOM     31  C   UNL     1     -13.075   9.416  -5.585  0.00  0.00    +0.166 C 
ATOM     34  C   UNL     1     -12.058   8.284  -5.755  0.00  0.00    +0.200 C 
ATOM     38  O   UNL     1     -12.710   7.139  -6.309  0.00  0.00    -0.372 OA
BRANCH  25  26
ATOM     26  O   UNL     1     -15.869   7.176  -4.454  0.00  0.00    -0.548 OA
ATOM     27  H   UNL     1     -16.305   6.379  -4.785  0.00  0.00    +0.386 HD
ENDBRANCH  25  26
BRANCH  28  29
ATOM     29  O   UNL     1     -13.717   8.619  -3.391  0.00  0.00    -0.529 OA
ATOM     30  H   UNL     1     -14.390   8.300  -2.775  0.00  0.00    +0.384 HD
ENDBRANCH  28  29
BRANCH  31  32
ATOM     32  O   UNL     1     -12.439  10.543  -4.978  0.00  0.00    -0.543 OA
ATOM     33  H   UNL     1     -13.028  11.297  -4.836  0.00  0.00    +0.384 HD
ENDBRANCH  31  32
BRANCH  34  35
ATOM     35  C   UNL     1     -10.940   8.739  -6.694  0.00  0.00    +0.207 C 
BRANCH  35  36
ATOM     36  O   UNL     1      -9.932   7.728  -6.761  0.00  0.00    -0.563 OA
ATOM     37  H   UNL     1      -9.190   7.950  -7.340  0.00  0.00    +0.380 HD
ENDBRANCH  35  36
ENDBRANCH  34  35
ENDBRANCH  23  24
ENDBRANCH  22  23
TORSDOF 10
