REMARK  Name = ZINC95486046
REMARK  16 active torsions:
REMARK  status: ('A' for Active; 'I' for Inactive)
REMARK    1  A    between atoms: C1_1  and  C2_2
REMARK    2  A    between atoms: C3_4  and  C4_6
REMARK    3  A    between atoms: C3_4  and  C33_57
REMARK    4  A    between atoms: C5_8  and  O10_56
REMARK    5  A    between atoms: C6_10  and  C8_15
REMARK    6  A    between atoms: C12_21  and  C32_55
REMARK    7  A    between atoms: C20_31  and  C31_54
REMARK    8  A    between atoms: C23_34  and  O4_37
REMARK    9  A    between atoms: O4_37  and  C25_38
REMARK   10  A    between atoms: C26_40  and  O9_53
REMARK   11  A    between atoms: C27_42  and  O8_52
REMARK   12  A    between atoms: C28_44  and  O7_51
REMARK   13  A    between atoms: C29_46  and  C30_49
REMARK   14  A    between atoms: C30_49  and  O6_50
REMARK   15  A    between atoms: C33_57  and  C34_58
REMARK   16  A    between atoms: C33_57  and  C35_59
REMARK                            x       y       z     vdW  Elec       q    Type
REMARK                         _______ _______ _______ _____ _____    ______ ____
ROOT
ATOM     12  C   UNL     1      -5.465  -0.030  -1.695  0.00  0.00    +0.019 C 
ATOM     13  C   UNL     1      -6.707  -0.833  -1.226  0.00  0.00    +0.027 C 
ATOM     14  C   UNL     1      -7.891  -0.366  -2.119  0.00  0.00    +0.027 C 
ATOM     15  C   UNL     1      -7.184   0.149  -3.376  0.00  0.00    +0.027 C 
ATOM     16  C   UNL     1      -7.941   1.153  -4.203  0.00  0.00    -0.089 C 
ATOM     17  C   UNL     1      -9.197   1.376  -3.977  0.00  0.00    -0.057 C 
ATOM     18  C   UNL     1     -10.004   2.373  -4.756  0.00  0.00    +0.059 C 
ATOM     19  C   UNL     1      -9.385   2.549  -6.148  0.00  0.00    +0.006 C 
ATOM     20  C   UNL     1      -7.891   2.961  -5.970  0.00  0.00    -0.043 C 
ATOM     21  C   UNL     1      -7.783   4.245  -5.146  0.00  0.00    +0.026 C 
ATOM     22  C   UNL     1      -7.267   3.215  -7.346  0.00  0.00    +0.020 C 
ATOM     23  C   UNL     1      -8.012   4.350  -8.049  0.00  0.00    +0.020 C 
ATOM     24  C   UNL     1      -9.480   3.955  -8.226  0.00  0.00    +0.144 C 
ATOM     41  C   UNL     1     -10.139   3.664  -6.878  0.00  0.00    +0.025 C 
ATOM     42  C   UNL     1      -7.123   1.851  -5.269  0.00  0.00    +0.029 C 
ATOM     43  C   UNL     1      -5.800   2.384  -4.726  0.00  0.00    +0.027 C 
ATOM     44  C   UNL     1      -5.066   1.329  -3.881  0.00  0.00    +0.020 C 
ATOM     45  C   UNL     1      -5.988   0.927  -2.754  0.00  0.00    -0.055 C 
ATOM     46  C   UNL     1      -6.514   2.193  -2.074  0.00  0.00    +0.030 C 
ENDROOT
BRANCH  12  11
ATOM      7  C   UNL     1      -2.844   0.083   0.616  0.00  0.00    +0.180 C 
ATOM      8  C   UNL     1      -4.361  -0.218   0.574  0.00  0.00    +0.182 C 
ATOM     11  C   UNL     1      -4.863   0.750  -0.524  0.00  0.00    -0.006 C 
ATOM     47  C   UNL     1      -3.605   1.486  -0.959  0.00  0.00    +0.487 C 
ATOM     48  O   UNL     1      -3.542   2.587  -1.452  0.00  0.00    -0.414 OA
ATOM     49  O   UNL     1      -2.566   0.660  -0.679  0.00  0.00    -0.332 OA
BRANCH   7   3
ATOM      1  C   UNL     1      -3.043  -1.992  -1.480  0.00  0.00    +0.070 C 
ATOM      2  C   UNL     1      -2.148  -2.281  -0.273  0.00  0.00    +0.134 C 
ATOM      3  C   UNL     1      -2.045  -1.207   0.812  0.00  0.00    +0.014 C 
ATOM     50  O   UNL     1      -0.979  -1.477  -0.103  0.00  0.00    -0.316 OA
BRANCH   3   4
ATOM      4  C   UNL     1      -1.876  -1.670   2.260  0.00  0.00    +0.023 C 
ATOM      5  C   UNL     1      -1.657  -0.454   3.162  0.00  0.00    +0.034 C 
ATOM      6  C   UNL     1      -0.666  -2.602   2.359  0.00  0.00    +0.040 C 
ENDBRANCH   3   4
ENDBRANCH   7   3
BRANCH   8   9
ATOM      9  O   UNL     1      -4.972   0.074   1.832  0.00  0.00    -0.543 OA
ATOM     10  H   UNL     1      -4.629  -0.451   2.568  0.00  0.00    +0.386 HD
ENDBRANCH   8   9
ENDBRANCH  12  11
BRANCH  24  25
ATOM     25  O   UNL     1     -10.179   5.006  -8.896  0.00  0.00    -0.360 OA
BRANCH  25  26
ATOM     26  C   UNL     1     -10.178   4.889 -10.320  0.00  0.00    +0.316 C 
ATOM     27  C   UNL     1     -11.054   5.990 -10.924  0.00  0.00    +0.140 C 
ATOM     30  C   UNL     1     -10.460   7.357 -10.569  0.00  0.00    +0.153 C 
ATOM     33  C   UNL     1      -9.016   7.421 -11.075  0.00  0.00    +0.166 C 
ATOM     36  C   UNL     1      -8.218   6.264 -10.466  0.00  0.00    +0.200 C 
ATOM     40  O   UNL     1      -8.842   5.025 -10.808  0.00  0.00    -0.372 OA
BRANCH  27  28
ATOM     28  O   UNL     1     -12.378   5.891 -10.394  0.00  0.00    -0.548 OA
ATOM     29  H   UNL     1     -12.813   5.048 -10.578  0.00  0.00    +0.386 HD
ENDBRANCH  27  28
BRANCH  30  31
ATOM     31  O   UNL     1     -10.480   7.533  -9.150  0.00  0.00    -0.529 OA
ATOM     32  H   UNL     1     -11.365   7.497  -8.762  0.00  0.00    +0.384 HD
ENDBRANCH  30  31
BRANCH  33  34
ATOM     34  O   UNL     1      -8.428   8.664 -10.687  0.00  0.00    -0.543 OA
ATOM     35  H   UNL     1      -8.887   9.441 -11.035  0.00  0.00    +0.384 HD
ENDBRANCH  33  34
BRANCH  36  37
ATOM     37  C   UNL     1      -6.790   6.286 -11.013  0.00  0.00    +0.207 C 
BRANCH  37  38
ATOM     38  O   UNL     1      -6.014   5.280 -10.359  0.00  0.00    -0.563 OA
ATOM     39  H   UNL     1      -5.095   5.236 -10.657  0.00  0.00    +0.380 HD
ENDBRANCH  37  38
ENDBRANCH  36  37
ENDBRANCH  25  26
ENDBRANCH  24  25
TORSDOF 11
