REMARK  Name = ZINC02030112
REMARK  6 active torsions:
REMARK  status: ('A' for Active; 'I' for Inactive)
REMARK    1  A    between atoms: C1_1  and  O1_2
REMARK    2  A    between atoms: O1_2  and  C2_3
REMARK    3  A    between atoms: C5_6  and  C8_9
REMARK    4  A    between atoms: C12_15  and  O5_23
REMARK    5  A    between atoms: C14_17  and  O4_21
REMARK    6  A    between atoms: O4_21  and  C17_22
REMARK                            x       y       z     vdW  Elec       q    Type
REMARK                         _______ _______ _______ _____ _____    ______ ____
ROOT
ATOM      7  C   UNL     1       0.002  -0.004   0.002  0.00  0.00    +0.241 C 
ATOM      8  C   UNL     1       0.902  -0.507   1.140  0.00  0.00    +0.033 C 
ATOM      9  C   UNL     1       2.285   0.076   0.909  0.00  0.00    +0.406 C 
ATOM     10  C   UNL     1       2.342   1.468   0.448  0.00  0.00    -0.319 A 
ATOM     11  C   UNL     1       3.556   2.173   0.448  0.00  0.00    +0.246 A 
ATOM     14  C   UNL     1       3.585   3.480  -0.003  0.00  0.00    -0.138 A 
ATOM     15  C   UNL     1       2.418   4.088  -0.450  0.00  0.00    +0.216 A 
ATOM     18  C   UNL     1       1.213   3.397  -0.447  0.00  0.00    -0.058 A 
ATOM     19  C   UNL     1       1.161   2.089   0.002  0.00  0.00    +0.235 A 
ATOM     20  O   UNL     1       3.292  -0.576   1.097  0.00  0.00    -0.436 OA
ATOM     21  O   UNL     1      -0.017   1.423   0.010  0.00  0.00    -0.297 OA
ENDROOT
BRANCH   7   6
ATOM      3  C   UNL     1      -3.967  -1.487   0.562  0.00  0.00    +0.138 A 
ATOM      4  C   UNL     1      -3.081  -2.166  -0.263  0.00  0.00    -0.014 A 
ATOM      5  C   UNL     1      -1.798  -1.685  -0.442  0.00  0.00    +0.074 A 
ATOM      6  C   UNL     1      -1.397  -0.527   0.199  0.00  0.00    -0.133 A 
ATOM     22  C   UNL     1      -2.276   0.148   1.026  0.00  0.00    +0.084 A 
ATOM     23  C   UNL     1      -3.562  -0.326   1.204  0.00  0.00    -0.077 A 
BRANCH   3   2
ATOM      1  C   UNL     1      -6.086  -1.208   1.602  0.00  0.00    +0.243 C 
ATOM      2  O   UNL     1      -5.229  -1.959   0.740  0.00  0.00    -0.316 OA
ENDBRANCH   3   2
ENDBRANCH   7   6
BRANCH  11  12
ATOM     12  O   UNL     1       4.692   1.577   0.887  0.00  0.00    -0.481 OA
ATOM     13  H   UNL     1       5.188   1.118   0.196  0.00  0.00    +0.404 HD
ENDBRANCH  11  12
BRANCH  15  16
ATOM     16  O   UNL     1       2.456   5.369  -0.894  0.00  0.00    -0.304 OA
ATOM     17  C   UNL     1       3.725   6.026  -0.872  0.00  0.00    +0.254 C 
ENDBRANCH  15  16
TORSDOF 4
