REMARK  Name = ZINC95486359
REMARK  18 active torsions:
REMARK  status: ('A' for Active; 'I' for Inactive)
REMARK    1  A    between atoms: C3_3  and  O17_53
REMARK    2  A    between atoms: C4_4  and  O11_36
REMARK    3  A    between atoms: C6_6  and  C7_7
REMARK    4  A    between atoms: C8_8  and  O10_35
REMARK    5  A    between atoms: C11_12  and  O9_34
REMARK    6  A    between atoms: C13_14  and  O3_18
REMARK    7  A    between atoms: O3_18  and  C16_19
REMARK    8  A    between atoms: C18_23  and  C21_31
REMARK    9  A    between atoms: C19_25  and  O6_30
REMARK   10  A    between atoms: C20_27  and  O5_29
REMARK   11  A    between atoms: C21_31  and  O7_32
REMARK   12  A    between atoms: C21_31  and  O8_33
REMARK   13  A    between atoms: O11_36  and  C22_37
REMARK   14  A    between atoms: C23_39  and  O16_52
REMARK   15  A    between atoms: C24_41  and  O15_51
REMARK   16  A    between atoms: C25_43  and  O14_50
REMARK   17  A    between atoms: C26_45  and  C27_48
REMARK   18  A    between atoms: C27_48  and  O13_49
REMARK                            x       y       z     vdW  Elec       q    Type
REMARK                         _______ _______ _______ _____ _____    ______ ____
ROOT
ATOM     25  C   UNL     1      -0.723  -1.253   0.963  0.00  0.00    +0.136 A 
ATOM     26  C   UNL     1      -1.797  -0.459   0.690  0.00  0.00    -0.038 A 
ATOM     29  C   UNL     1      -3.030  -1.057   0.324  0.00  0.00    +0.404 A 
ATOM     30  C   UNL     1      -3.079  -2.526   0.258  0.00  0.00    -0.289 A 
ATOM     31  C   UNL     1      -4.255  -3.199  -0.097  0.00  0.00    +0.251 A 
ATOM     34  C   UNL     1      -4.260  -4.580  -0.148  0.00  0.00    -0.122 A 
ATOM     35  C   UNL     1      -3.104  -5.295   0.151  0.00  0.00    +0.215 A 
ATOM     52  C   UNL     1      -1.937  -4.636   0.502  0.00  0.00    -0.033 A 
ATOM     53  C   UNL     1      -1.912  -3.250   0.558  0.00  0.00    +0.213 A 
ATOM     54  O   UNL     1      -4.013  -0.378   0.072  0.00  0.00    -0.452 OA
ATOM     55  O   UNL     1      -0.781  -2.594   0.893  0.00  0.00    -0.197 OA
ENDROOT
BRANCH  25  24
ATOM      1  C   UNL     1       1.045   0.460   0.602  0.00  0.00    +0.061 A 
ATOM      2  C   UNL     1       2.237   1.054   0.958  0.00  0.00    +0.033 A 
ATOM      3  C   UNL     1       2.950   0.584   2.052  0.00  0.00    +0.103 A 
ATOM      6  C   UNL     1       2.464  -0.490   2.796  0.00  0.00    +0.095 A 
ATOM     23  C   UNL     1       1.270  -1.090   2.445  0.00  0.00    +0.008 A 
ATOM     24  C   UNL     1       0.552  -0.617   1.343  0.00  0.00    -0.022 A 
BRANCH   3   4
ATOM      4  O   UNL     1       4.125   1.172   2.399  0.00  0.00    -0.485 OA
ATOM      5  H   UNL     1       4.029   1.904   3.024  0.00  0.00    +0.392 HD
ENDBRANCH   3   4
BRANCH   6   7
ATOM      7  O   UNL     1       3.165  -0.948   3.868  0.00  0.00    -0.285 OA
BRANCH   7   8
ATOM      8  C   UNL     1       2.608  -2.051   4.584  0.00  0.00    +0.299 C 
ATOM      9  C   UNL     1       3.589  -2.502   5.670  0.00  0.00    +0.150 C 
ATOM     12  C   UNL     1       2.960  -3.645   6.472  0.00  0.00    +0.165 C 
ATOM     15  C   UNL     1       1.625  -3.171   7.055  0.00  0.00    +0.172 C 
ATOM     18  C   UNL     1       0.720  -2.694   5.916  0.00  0.00    +0.192 C 
ATOM     22  O   UNL     1       1.377  -1.653   5.191  0.00  0.00    -0.372 OA
BRANCH   9  10
ATOM     10  O   UNL     1       4.800  -2.954   5.062  0.00  0.00    -0.553 OA
ATOM     11  H   UNL     1       5.250  -2.281   4.533  0.00  0.00    +0.397 HD
ENDBRANCH   9  10
BRANCH  12  13
ATOM     13  O   UNL     1       3.838  -4.025   7.533  0.00  0.00    -0.553 OA
ATOM     14  H   UNL     1       4.706  -4.330   7.235  0.00  0.00    +0.397 HD
ENDBRANCH  12  13
BRANCH  15  16
ATOM     16  O   UNL     1       0.995  -4.252   7.747  0.00  0.00    -0.549 OA
ATOM     17  H   UNL     1       1.516  -4.606   8.480  0.00  0.00    +0.396 HD
ENDBRANCH  15  16
BRANCH  18  19
ATOM     19  C   UNL     1      -0.593  -2.164   6.495  0.00  0.00    +0.227 C 
BRANCH  19  20
ATOM     20  O   UNL     1      -1.482  -1.827   5.429  0.00  0.00    -0.565 OA
ATOM     21  H   UNL     1      -2.337  -1.483   5.723  0.00  0.00    +0.385 HD
ENDBRANCH  19  20
ENDBRANCH  18  19
ENDBRANCH   7   8
ENDBRANCH   6   7
ENDBRANCH  25  24
BRANCH  26  27
ATOM     27  O   UNL     1      -1.687   0.895   0.770  0.00  0.00    -0.448 OA
ATOM     28  H   UNL     1      -2.503   1.369   0.558  0.00  0.00    +0.407 HD
ENDBRANCH  26  27
BRANCH  31  32
ATOM     32  O   UNL     1      -5.382  -2.501  -0.387  0.00  0.00    -0.473 OA
ATOM     33  H   UNL     1      -5.470  -2.267  -1.321  0.00  0.00    +0.405 HD
ENDBRANCH  31  32
BRANCH  35  36
ATOM     36  O   UNL     1      -3.120  -6.651   0.098  0.00  0.00    -0.290 OA
BRANCH  36  37
ATOM     37  C   UNL     1      -4.380  -7.276  -0.155  0.00  0.00    +0.119 C 
ATOM     38  C   UNL     1      -4.635  -7.321  -1.664  0.00  0.00    +0.225 C 
ATOM     39  O   UNL     1      -5.868  -7.997  -1.917  0.00  0.00    -0.352 OA
ATOM     40  C   UNL     1      -5.893  -9.354  -1.467  0.00  0.00    +0.138 C 
ATOM     46  C   UNL     1      -5.688  -9.390   0.049  0.00  0.00    +0.185 C 
ATOM     49  C   UNL     1      -4.363  -8.705   0.396  0.00  0.00    +0.202 C 
BRANCH  46  47
ATOM     47  O   UNL     1      -5.656 -10.748   0.494  0.00  0.00    -0.541 OA
ATOM     48  H   UNL     1      -6.454 -11.251   0.279  0.00  0.00    +0.381 HD
ENDBRANCH  46  47
BRANCH  49  50
ATOM     50  O   UNL     1      -3.282  -9.431  -0.193  0.00  0.00    -0.544 OA
ATOM     51  H   UNL     1      -2.411  -9.049  -0.020  0.00  0.00    +0.388 HD
ENDBRANCH  49  50
BRANCH  40  41
ATOM     41  C   UNL     1      -7.244  -9.982  -1.816  0.00  0.00    +0.389 C 
BRANCH  41  42
ATOM     42  O   UNL     1      -7.379 -10.063  -3.236  0.00  0.00    -0.572 OA
ATOM     43  H   UNL     1      -7.339  -9.207  -3.684  0.00  0.00    +0.392 HD
ENDBRANCH  41  42
BRANCH  41  44
ATOM     44  O   UNL     1      -8.296  -9.176  -1.282  0.00  0.00    -0.575 OA
ATOM     45  H   UNL     1      -9.183  -9.516  -1.465  0.00  0.00    +0.390 HD
ENDBRANCH  41  44
ENDBRANCH  40  41
ENDBRANCH  36  37
ENDBRANCH  35  36
TORSDOF 18
