REMARK  Name = ZINC03994271
REMARK  10 active torsions:
REMARK  status: ('A' for Active; 'I' for Inactive)
REMARK    1  A    between atoms: C1_1  and  C2_2
REMARK    2  A    between atoms: C5_6  and  C30_37
REMARK    3  A    between atoms: C8_9  and  C29_36
REMARK    4  A    between atoms: C13_15  and  C25_30
REMARK    5  A    between atoms: C17_20  and  C24_29
REMARK    6  A    between atoms: C20_23  and  O1_28
REMARK    7  A    between atoms: C21_25  and  C22_26
REMARK    8  A    between atoms: C21_25  and  C23_27
REMARK    9  A    between atoms: C27_33  and  C28_35
REMARK   10  A    between atoms: C30_37  and  O2_38
REMARK                            x       y       z     vdW  Elec       q    Type
REMARK                         _______ _______ _______ _____ _____    ______ ____
ROOT
ATOM      1  C   UNL     1      -3.230  -0.438   4.081  0.00  0.00    +0.007 C 
ATOM      2  C   UNL     1      -2.438  -1.319   3.015  0.00  0.00    +0.005 C 
ATOM      3  C   UNL     1      -2.570  -2.717   3.334  0.00  0.00    +0.000 C 
ATOM      4  C   UNL     1      -1.847  -3.171   4.663  0.00  0.00    +0.025 C 
ATOM      5  C   UNL     1      -0.352  -2.734   4.601  0.00  0.00    -0.062 C 
ATOM      9  C   UNL     1       0.250  -2.842   6.036  0.00  0.00    +0.022 C 
ATOM     10  C   UNL     1       1.738  -2.487   5.958  0.00  0.00    +0.019 C 
ATOM     11  C   UNL     1       1.999  -1.103   5.496  0.00  0.00    +0.011 C 
ATOM     12  C   UNL     1       1.462  -0.166   6.632  0.00  0.00    +0.010 C 
ATOM     13  C   UNL     1       1.101  -0.717   4.292  0.00  0.00    -0.074 C 
ATOM     14  C   UNL     1       1.594   0.078   3.428  0.00  0.00    -0.071 C 
ATOM     15  C   UNL     1       2.960   0.601   3.303  0.00  0.00    +0.073 C 
ATOM     16  C   UNL     1       3.652   0.526   4.683  0.00  0.00    -0.026 C 
ATOM     17  C   UNL     1       5.129   1.042   4.686  0.00  0.00    -0.037 C 
ATOM     18  C   UNL     1       5.932   0.297   3.564  0.00  0.00    +0.022 C 
ATOM     19  C   UNL     1       5.047   2.598   4.311  0.00  0.00    +0.036 C 
ATOM     20  C   UNL     1       6.492   3.053   4.360  0.00  0.00    -0.052 C 
ATOM     21  C   UNL     1       7.120   2.997   5.785  0.00  0.00    +0.177 C 
ATOM     24  C   UNL     1       7.045   1.480   6.294  0.00  0.00    -0.034 C 
ATOM     25  C   UNL     1       8.191   0.725   5.644  0.00  0.00    +0.032 C 
ATOM     26  C   UNL     1       7.355   1.619   7.804  0.00  0.00    +0.019 C 
ATOM     27  C   UNL     1       5.753   0.860   6.055  0.00  0.00    +0.005 C 
ATOM     28  C   UNL     1       5.745  -0.588   6.467  0.00  0.00    +0.035 C 
ATOM     29  C   UNL     1       4.249  -0.980   6.629  0.00  0.00    +0.007 C 
ATOM     30  C   UNL     1       3.423  -0.811   5.319  0.00  0.00    -0.025 C 
ATOM     31  C   UNL     1       3.957  -1.893   4.338  0.00  0.00    +0.005 C 
ATOM     32  C   UNL     1      -0.308  -1.134   4.243  0.00  0.00    +0.050 C 
ATOM     33  C   UNL     1      -1.075  -0.819   2.972  0.00  0.00    -0.002 C 
ATOM     34  C   UNL     1      -0.360  -1.370   1.657  0.00  0.00    +0.008 C 
ENDROOT
BRANCH  21  22
ATOM     22  O   UNL     1       8.478   3.374   5.683  0.00  0.00    -0.550 OA
ATOM     23  H   UNL     1       8.612   4.283   5.380  0.00  0.00    +0.375 HD
ENDBRANCH  21  22
BRANCH   5   6
ATOM      6  C   UNL     1       0.390  -3.552   3.702  0.00  0.00    +0.191 C 
BRANCH   6   7
ATOM      7  O   UNL     1       0.409  -4.896   4.186  0.00  0.00    -0.571 OA
ATOM      8  H   UNL     1       0.898  -5.511   3.621  0.00  0.00    +0.375 HD
ENDBRANCH   6   7
ENDBRANCH   5   6
TORSDOF 3
