REMARK  Name = ZINC95486123
REMARK  9 active torsions:
REMARK  status: ('A' for Active; 'I' for Inactive)
REMARK    1  A    between atoms: C1_1  and  C2_2
REMARK    2  A    between atoms: C5_6  and  C30_39
REMARK    3  A    between atoms: C8_9  and  C29_38
REMARK    4  A    between atoms: C13_15  and  C25_32
REMARK    5  A    between atoms: C18_22  and  C24_31
REMARK    6  A    between atoms: C20_25  and  O1_30
REMARK    7  A    between atoms: C21_27  and  C22_28
REMARK    8  A    between atoms: C21_27  and  C23_29
REMARK    9  A    between atoms: C27_35  and  C28_37
REMARK                            x       y       z     vdW  Elec       q    Type
REMARK                         _______ _______ _______ _____ _____    ______ ____
ROOT
ATOM      1  C   UNL     1       0.857   1.706   0.237  0.00  0.00    +0.013 C 
ATOM      2  C   UNL     1       0.799   0.194   0.018  0.00  0.00    -0.020 C 
ATOM      3  C   UNL     1      -0.461  -0.190  -0.743  0.00  0.00    +0.007 C 
ATOM      4  C   UNL     1      -1.722  -0.012   0.092  0.00  0.00    +0.010 C 
ATOM      5  C   UNL     1      -1.629  -0.822   1.392  0.00  0.00    -0.039 C 
ATOM      6  C   UNL     1      -1.654  -2.311   1.056  0.00  0.00    +0.022 C 
ATOM      7  C   UNL     1      -2.886  -0.530   2.226  0.00  0.00    +0.005 C 
ATOM      8  C   UNL     1      -2.805  -1.246   3.574  0.00  0.00    +0.021 C 
ATOM      9  C   UNL     1      -1.609  -0.730   4.384  0.00  0.00    +0.005 C 
ATOM     10  C   UNL     1      -1.804   0.790   4.493  0.00  0.00    +0.019 C 
ATOM     11  C   UNL     1      -0.357  -0.919   3.559  0.00  0.00    -0.081 C 
ATOM     12  C   UNL     1       0.701  -1.494   4.032  0.00  0.00    -0.061 C 
ATOM     13  C   UNL     1       0.784  -2.127   5.390  0.00  0.00    +0.052 C 
ATOM     14  C   UNL     1      -0.153  -1.425   6.361  0.00  0.00    +0.003 C 
ATOM     15  C   UNL     1       0.376  -0.064   6.791  0.00  0.00    +0.016 C 
ATOM     16  C   UNL     1       1.824  -0.188   7.269  0.00  0.00    -0.011 C 
ATOM     17  C   UNL     1       1.951  -1.195   8.410  0.00  0.00    +0.015 C 
ATOM     18  C   UNL     1       2.339   1.177   7.722  0.00  0.00    -0.015 C 
ATOM     19  C   UNL     1       1.468   1.732   8.842  0.00  0.00    +0.170 C 
ATOM     22  C   UNL     1       0.005   1.831   8.403  0.00  0.00    -0.044 C 
ATOM     23  C   UNL     1      -0.826   2.277   9.616  0.00  0.00    +0.022 C 
ATOM     24  C   UNL     1      -0.107   2.908   7.322  0.00  0.00    +0.031 C 
ATOM     25  C   UNL     1      -0.512   0.485   7.906  0.00  0.00    +0.009 C 
ATOM     26  C   UNL     1      -1.955   0.608   7.425  0.00  0.00    +0.006 C 
ATOM     27  C   UNL     1      -2.489  -0.649   6.766  0.00  0.00    +0.012 C 
ATOM     28  C   UNL     1      -1.557  -1.331   5.766  0.00  0.00    -0.026 C 
ATOM     29  C   UNL     1      -2.066  -2.799   5.680  0.00  0.00    +0.009 C 
ATOM     30  C   UNL     1      -0.386  -0.388   2.146  0.00  0.00    +0.037 C 
ATOM     31  C   UNL     1       0.895  -0.539   1.362  0.00  0.00    -0.008 C 
ATOM     32  C   UNL     1       1.341  -1.976   1.097  0.00  0.00    +0.016 C 
ENDROOT
BRANCH  19  20
ATOM     20  O   UNL     1       1.928   3.045   9.194  0.00  0.00    -0.568 OA
ATOM     21  H   UNL     1       2.844   3.070   9.504  0.00  0.00    +0.374 HD
ENDBRANCH  19  20
TORSDOF 1
