REMARK  Name = ZINC95486094
REMARK  6 active torsions:
REMARK  status: ('A' for Active; 'I' for Inactive)
REMARK    1  A    between atoms: C1_1  and  C2_2
REMARK    2  A    between atoms: C2_2  and  C19_24
REMARK    3  A    between atoms: C11_14  and  C18_23
REMARK    4  A    between atoms: C15_19  and  C16_20
REMARK    5  A    between atoms: C15_19  and  C17_21
REMARK    6  A    between atoms: C17_21  and  O2_22
REMARK                            x       y       z     vdW  Elec       q    Type
REMARK                         _______ _______ _______ _____ _____    ______ ____
ROOT
ATOM      1  C   UNL     1      -0.019   1.534   0.011  0.00  0.00    +0.022 C 
ATOM      2  C   UNL     1       0.002  -0.004   0.002  0.00  0.00    -0.029 C 
ATOM      5  C   UNL     1       0.704  -0.470  -1.270  0.00  0.00    +0.020 C 
ATOM      6  C   UNL     1       0.899  -1.988  -1.263  0.00  0.00    +0.014 C 
ATOM      7  C   UNL     1       1.732  -2.378  -0.038  0.00  0.00    -0.001 C 
ATOM      8  C   UNL     1       0.952  -2.003   1.220  0.00  0.00    +0.001 C 
ATOM      9  C   UNL     1       1.721  -2.406   2.475  0.00  0.00    +0.001 C 
ATOM     10  C   UNL     1       2.175  -3.854   2.452  0.00  0.00    +0.020 C 
ATOM     11  C   UNL     1       2.881  -4.268   1.164  0.00  0.00    +0.007 C 
ATOM     12  C   UNL     1       4.353  -3.925   1.160  0.00  0.00    -0.035 C 
ATOM     16  C   UNL     1       5.060  -4.760   2.253  0.00  0.00    +0.038 C 
ATOM     17  C   UNL     1       5.033  -4.290  -0.168  0.00  0.00    +0.031 C 
ATOM     18  C   UNL     1       4.189  -3.751  -1.299  0.00  0.00    +0.365 C 
ATOM     19  O   UNL     1       4.626  -2.973  -2.106  0.00  0.00    -0.450 OA
ATOM     20  C   UNL     1       2.762  -4.244  -1.358  0.00  0.00    +0.018 C 
ATOM     21  C   UNL     1       2.060  -3.863  -0.051  0.00  0.00    -0.029 C 
ATOM     22  C   UNL     1       0.742  -4.669  -0.017  0.00  0.00    +0.031 C 
ATOM     23  C   UNL     1       0.743  -0.485   1.244  0.00  0.00    +0.023 C 
ENDROOT
BRANCH   2   3
ATOM      3  C   UNL     1      -1.422  -0.496   0.021  0.00  0.00    -0.033 C 
ATOM      4  C   UNL     1      -2.412   0.362   0.040  0.00  0.00    -0.005 C 
ENDBRANCH   2   3
BRANCH  12  13
ATOM     13  C   UNL     1       4.638  -2.453   1.453  0.00  0.00    +0.179 C 
BRANCH  13  14
ATOM     14  O   UNL     1       6.048  -2.226   1.428  0.00  0.00    -0.570 OA
ATOM     15  H   UNL     1       6.303  -1.311   1.607  0.00  0.00    +0.380 HD
ENDBRANCH  13  14
ENDBRANCH  12  13
TORSDOF 3
