REMARK  Name = ZINC95486289
REMARK  7 active torsions:
REMARK  status: ('A' for Active; 'I' for Inactive)
REMARK    1  A    between atoms: C1_1  and  C2_2
REMARK    2  A    between atoms: C2_2  and  O2_4
REMARK    3  A    between atoms: O2_4  and  C3_5
REMARK    4  A    between atoms: C4_7  and  C17_26
REMARK    5  A    between atoms: C8_12  and  C16_24
REMARK    6  A    between atoms: C17_26  and  O6_27
REMARK    7  A    between atoms: O6_27  and  C18_28
REMARK                            x       y       z     vdW  Elec       q    Type
REMARK                         _______ _______ _______ _____ _____    ______ ____
ROOT
ATOM      4  C   UNL     1       0.020  -2.096  -1.097  0.00  0.00    +0.209 C 
ATOM      5  C   UNL     1      -1.416  -2.617  -1.043  0.00  0.00    +0.025 C 
ATOM     10  C   UNL     1      -2.007  -2.692  -2.417  0.00  0.00    +0.021 C 
ATOM     11  C   UNL     1      -2.111  -3.749  -3.184  0.00  0.00    -0.010 C 
ATOM     12  C   UNL     1      -1.746  -5.120  -2.982  0.00  0.00    +0.102 C 
ATOM     13  C   UNL     1      -0.590  -5.740  -3.257  0.00  0.00    -0.215 C 
ATOM     16  C   UNL     1       0.602  -5.034  -3.839  0.00  0.00    +0.092 C 
ATOM     17  C   UNL     1       1.755  -4.972  -2.850  0.00  0.00    +0.046 C 
ATOM     18  C   UNL     1       1.697  -3.800  -1.892  0.00  0.00    +0.199 C 
ATOM     19  O   UNL     1       2.997  -3.192  -1.767  0.00  0.00    -0.325 OA
ATOM     20  C   UNL     1       3.038  -2.039  -2.459  0.00  0.00    +0.505 C 
ATOM     21  O   UNL     1       4.054  -1.409  -2.679  0.00  0.00    -0.454 OA
ATOM     22  C   UNL     1       1.698  -1.651  -2.924  0.00  0.00    -0.223 C 
ATOM     23  C   UNL     1       1.393  -0.632  -3.728  0.00  0.00    +0.215 C 
ATOM     24  C   UNL     1       0.745  -2.673  -2.320  0.00  0.00    +0.041 C 
ENDROOT
BRANCH  13  14
ATOM     14  C   UNL     1      -0.499  -7.133  -3.006  0.00  0.00    +0.459 C 
ATOM     15  O   UNL     1       0.534  -7.727  -3.244  0.00  0.00    -0.449 OA
ENDBRANCH  13  14
BRANCH   4   3
ATOM      3  O   UNL     1       0.000  -0.669  -1.164  0.00  0.00    -0.335 OA
BRANCH   3   2
ATOM      1  C   UNL     1      -0.018   1.503   0.010  0.00  0.00    +0.163 C 
ATOM      2  C   UNL     1       0.002  -0.004   0.002  0.00  0.00    +0.459 C 
ATOM     25  O   UNL     1       0.020  -0.614   1.045  0.00  0.00    -0.506 OA
ENDBRANCH   3   2
ENDBRANCH   4   3
BRANCH   5   6
ATOM      6  C   UNL     1      -1.461  -3.954  -0.319  0.00  0.00    +0.223 C 
BRANCH   6   7
ATOM      7  O   UNL     1      -2.820  -4.372  -0.174  0.00  0.00    -0.355 OA
BRANCH   7   8
ATOM      8  C   UNL     1      -3.035  -5.541   0.449  0.00  0.00    +0.581 C 
ATOM      9  O   UNL     1      -4.163  -5.947   0.601  0.00  0.00    -0.467 OA
ENDBRANCH   7   8
ENDBRANCH   6   7
ENDBRANCH   5   6
TORSDOF 6
