REMARK  Name = ZINC95486151
REMARK  6 active torsions:
REMARK  status: ('A' for Active; 'I' for Inactive)
REMARK    1  A    between atoms: C1_1  and  C2_2
REMARK    2  A    between atoms: C6_6  and  C19_25
REMARK    3  A    between atoms: C6_6  and  C20_26
REMARK    4  A    between atoms: C10_11  and  C18_23
REMARK    5  A    between atoms: C14_16  and  C17_21
REMARK    6  A    between atoms: C16_18  and  O1_20
REMARK                            x       y       z     vdW  Elec       q    Type
REMARK                         _______ _______ _______ _____ _____    ______ ____
ROOT
ATOM      1  C   UNL     1       0.038   1.512  -0.005  0.00  0.00    +0.025 C 
ATOM      2  C   UNL     1       0.049  -0.016  -0.005  0.00  0.00    -0.044 C 
ATOM      3  C   UNL     1      -1.419  -0.451   0.158  0.00  0.00    +0.022 C 
ATOM      4  C   UNL     1      -1.962   0.133   1.466  0.00  0.00    +0.001 C 
ATOM      5  C   UNL     1      -1.198  -0.457   2.644  0.00  0.00    +0.010 C 
ATOM      6  C   UNL     1       0.315  -0.285   2.526  0.00  0.00    -0.048 C 
ATOM      7  C   UNL     1       0.725   1.108   3.002  0.00  0.00    +0.021 C 
ATOM      8  C   UNL     1       0.940  -1.297   3.523  0.00  0.00    +0.009 C 
ATOM      9  C   UNL     1       0.601  -0.569  -1.336  0.00  0.00    +0.057 C 
ATOM     10  C   UNL     1       0.293  -2.073  -1.326  0.00  0.00    +0.059 C 
ATOM     11  C   UNL     1       0.107  -2.555  -2.751  0.00  0.00    +0.068 C 
ATOM     12  C   UNL     1       1.177  -2.743  -3.502  0.00  0.00    -0.219 C 
ATOM     15  C   UNL     1       2.536  -2.427  -2.905  0.00  0.00    +0.063 C 
ATOM     16  C   UNL     1       2.662  -0.918  -2.786  0.00  0.00    +0.177 C 
ATOM     19  C   UNL     1       2.087  -0.353  -1.478  0.00  0.00    -0.096 C 
ATOM     22  C   UNL     1       2.863  -0.926  -0.305  0.00  0.00    +0.033 C 
ATOM     23  C   UNL     1       2.335  -0.328   1.009  0.00  0.00    +0.027 C 
ATOM     24  C   UNL     1       0.845  -0.618   1.145  0.00  0.00    +0.003 C 
ENDROOT
BRANCH  12  13
ATOM     13  C   UNL     1       1.060  -3.249  -4.864  0.00  0.00    +0.475 C 
ATOM     14  O   UNL     1       2.055  -3.414  -5.538  0.00  0.00    -0.464 OA
ENDBRANCH  12  13
BRANCH  16  17
ATOM     17  O   UNL     1       1.988  -0.285  -3.877  0.00  0.00    -0.560 OA
ATOM     18  H   UNL     1       2.286  -0.581  -4.748  0.00  0.00    +0.381 HD
ENDBRANCH  16  17
BRANCH  19  20
ATOM     20  C   UNL     1       2.443   1.110  -1.600  0.00  0.00    +0.456 C 
ATOM     21  O   UNL     1       3.226   1.608  -0.827  0.00  0.00    -0.455 OA
ENDBRANCH  19  20
TORSDOF 3
