REMARK  Name = ZINC00120276
REMARK  0 active torsions:
REMARK  status: ('A' for Active; 'I' for Inactive)
REMARK                            x       y       z     vdW  Elec       q    Type
REMARK                         _______ _______ _______ _____ _____    ______ ____
ROOT
ATOM      1  C   UNL     1      -0.013   1.076   0.008  0.00  0.00    +0.044 A 
ATOM      2  C   UNL     1       1.178   1.779   0.000  0.00  0.00    +0.046 A 
ATOM      3  C   UNL     1       1.175   3.163   0.007  0.00  0.00    +0.079 A 
ATOM      4  C   UNL     1      -0.033   3.854   0.023  0.00  0.00    -0.119 A 
ATOM      5  C   UNL     1      -1.244   3.139   0.031  0.00  0.00    -0.123 A 
ATOM      6  C   UNL     1      -2.533   3.864   0.048  0.00  0.00    +0.436 C 
ATOM      7  C   UNL     1      -2.541   5.342   0.055  0.00  0.00    -0.073 A 
ATOM      8  C   UNL     1      -3.734   6.057   0.072  0.00  0.00    +0.035 A 
ATOM      9  C   UNL     1      -3.680   7.444   0.079  0.00  0.00    +0.306 A 
ATOM     10  N   UNL     1      -2.527   8.082   0.071  0.00  0.00    -0.469 NA
ATOM     11  C   UNL     1      -1.369   7.449   0.056  0.00  0.00    +0.336 A 
ATOM     12  C   UNL     1      -1.329   6.058   0.047  0.00  0.00    -0.178 A 
ATOM     13  O   UNL     1      -3.579   3.248   0.055  0.00  0.00    -0.417 OA
ATOM     14  C   UNL     1      -0.044   5.333   0.030  0.00  0.00    +0.441 C 
ATOM     15  O   UNL     1       1.003   5.950   0.023  0.00  0.00    -0.422 OA
ATOM     16  C   UNL     1      -1.223   1.747   0.017  0.00  0.00    +0.079 A 
ENDROOT
TORSDOF 0
