REMARK  Name = ZINC95485972
REMARK  13 active torsions:
REMARK  status: ('A' for Active; 'I' for Inactive)
REMARK    1  A    between atoms: C1_1  and  C2_2
REMARK    2  A    between atoms: C2_2  and  C26_33
REMARK    3  A    between atoms: C3_3  and  C4_4
REMARK    4  A    between atoms: C4_4  and  C5_5
REMARK    5  A    between atoms: C5_5  and  C6_6
REMARK    6  A    between atoms: C9_9  and  O2_18
REMARK    7  A    between atoms: C12_13  and  C15_16
REMARK    8  A    between atoms: C12_13  and  C16_17
REMARK    9  A    between atoms: C20_23  and  O7_31
REMARK   10  A    between atoms: C21_24  and  O6_29
REMARK   11  A    between atoms: C22_25  and  O5_28
REMARK   12  A    between atoms: O6_29  and  C24_30
REMARK   13  A    between atoms: O7_31  and  C25_32
REMARK                            x       y       z     vdW  Elec       q    Type
REMARK                         _______ _______ _______ _____ _____    ______ ____
ROOT
ATOM      7  C   UNL     1      -0.876   0.170   4.707  0.00  0.00    -0.145 A 
ATOM      8  C   UNL     1      -0.005  -0.216   5.719  0.00  0.00    +0.214 A 
ATOM      9  C   UNL     1      -0.006   0.487   6.938  0.00  0.00    -0.284 A 
ATOM     10  C   UNL     1       0.940   0.072   7.990  0.00  0.00    +0.444 A 
ATOM     11  C   UNL     1       2.007  -0.859   7.569  0.00  0.00    -0.173 A 
ATOM     12  C   UNL     1       3.105  -1.111   8.393  0.00  0.00    +0.036 A 
ATOM     13  C   UNL     1       4.091  -1.980   7.971  0.00  0.00    +0.103 A 
ATOM     16  C   UNL     1       3.987  -2.601   6.725  0.00  0.00    +0.103 A 
ATOM     19  C   UNL     1       2.898  -2.356   5.903  0.00  0.00    +0.108 A 
ATOM     22  C   UNL     1       1.893  -1.484   6.317  0.00  0.00    +0.108 A 
ATOM     23  O   UNL     1       0.847   0.473   9.136  0.00  0.00    -0.427 OA
ATOM     24  C   UNL     1      -0.882   1.560   7.142  0.00  0.00    +0.244 A 
ATOM     27  C   UNL     1      -1.748   1.931   6.118  0.00  0.00    -0.190 A 
ATOM     28  C   UNL     1      -2.690   3.058   6.278  0.00  0.00    +0.057 C 
ATOM     29  C   UNL     1      -3.693   3.165   5.412  0.00  0.00    -0.049 C 
ATOM     30  C   UNL     1      -3.860   2.136   4.326  0.00  0.00    +0.146 C 
ATOM     31  C   UNL     1      -4.557   2.778   3.125  0.00  0.00    +0.088 C 
ATOM     32  C   UNL     1      -4.719   0.984   4.850  0.00  0.00    +0.038 C 
ATOM     33  O   UNL     1      -2.590   1.627   3.916  0.00  0.00    -0.288 OA
ATOM     34  O   UNL     1       0.827  -1.259   5.521  0.00  0.00    -0.206 OA
ATOM     35  C   UNL     1      -1.736   1.234   4.896  0.00  0.00    +0.218 A 
ENDROOT
BRANCH  13  14
ATOM     14  O   UNL     1       5.163  -2.232   8.769  0.00  0.00    -0.298 OA
ATOM     15  C   UNL     1       5.204  -1.561  10.031  0.00  0.00    +0.249 C 
ENDBRANCH  13  14
BRANCH  16  17
ATOM     17  O   UNL     1       4.963  -3.454   6.314  0.00  0.00    -0.309 OA
ATOM     18  C   UNL     1       4.805  -4.833   6.654  0.00  0.00    +0.235 C 
ENDBRANCH  16  17
BRANCH  19  20
ATOM     20  O   UNL     1       2.810  -2.967   4.691  0.00  0.00    -0.462 OA
ATOM     21  H   UNL     1       2.352  -3.819   4.712  0.00  0.00    +0.392 HD
ENDBRANCH  19  20
BRANCH  24  25
ATOM     25  O   UNL     1      -0.887   2.228   8.322  0.00  0.00    -0.468 OA
ATOM     26  H   UNL     1      -0.279   2.979   8.351  0.00  0.00    +0.401 HD
ENDBRANCH  24  25
BRANCH   7   6
ATOM      6  C   UNL     1      -0.879  -0.572   3.395  0.00  0.00    +0.104 C 
BRANCH   6   5
ATOM      5  C   UNL     1       0.123   0.078   2.439  0.00  0.00    +0.056 C 
BRANCH   5   4
ATOM      1  C   UNL     1      -0.201   1.487   0.018  0.00  0.00    +0.071 C 
ATOM      2  C   UNL     1      -0.087  -0.015   0.009  0.00  0.00    -0.133 C 
ATOM      3  C   UNL     1      -0.213  -0.772  -1.289  0.00  0.00    +0.071 C 
ATOM      4  C   UNL     1       0.121  -0.664   1.128  0.00  0.00    -0.054 C 
ENDBRANCH   5   4
ENDBRANCH   6   5
ENDBRANCH   7   6
TORSDOF 7
