REMARK  Name = ZINC13382373
REMARK  13 active torsions:
REMARK  status: ('A' for Active; 'I' for Inactive)
REMARK    1  A    between atoms: C1_1  and  C2_2
REMARK    2  A    between atoms: C2_2  and  C3_3
REMARK    3  A    between atoms: C2_2  and  C4_4
REMARK    4  A    between atoms: C4_4  and  C5_5
REMARK    5  A    between atoms: C5_5  and  C6_6
REMARK    6  A    between atoms: C6_6  and  C7_8
REMARK    7  A    between atoms: C8_9  and  O4_21
REMARK    8  A    between atoms: C10_11  and  O3_20
REMARK    9  A    between atoms: C11_12  and  C13_15
REMARK   10  A    between atoms: C12_13  and  O2_14
REMARK   11  A    between atoms: C13_15  and  C14_16
REMARK   12  A    between atoms: C15_17  and  C16_18
REMARK   13  A    between atoms: C15_17  and  C17_19
REMARK                            x       y       z     vdW  Elec       q    Type
REMARK                         _______ _______ _______ _____ _____    ______ ____
ROOT
ATOM      6  C   UNL     1       0.373  -1.242   0.822  0.00  0.00    -0.238 A 
ATOM      7  C   UNL     1       0.179   0.103   1.186  0.00  0.00    +0.184 A 
ATOM     10  C   UNL     1       1.248   0.979   1.176  0.00  0.00    -0.049 A 
ATOM     11  C   UNL     1       2.512   0.534   0.808  0.00  0.00    +0.177 A 
ATOM     14  C   UNL     1       2.714  -0.792   0.447  0.00  0.00    -0.151 A 
ATOM     20  C   UNL     1       1.658  -1.683   0.451  0.00  0.00    +0.202 A 
ENDROOT
BRANCH   6   5
ATOM      5  C   UNL     1      -0.751  -2.176   0.828  0.00  0.00    +0.394 C 
ATOM     23  O   UNL     1      -0.579  -3.336   0.514  0.00  0.00    -0.439 OA
BRANCH   5   4
ATOM      4  C   UNL     1      -2.124  -1.699   1.226  0.00  0.00    +0.046 C 
BRANCH   4   3
ATOM      3  C   UNL     1      -3.111  -2.866   1.149  0.00  0.00    +0.023 C 
BRANCH   3   2
ATOM      1  C   UNL     1      -5.515  -3.514   1.356  0.00  0.00    +0.015 C 
ATOM      2  C   UNL     1      -4.505  -2.382   1.552  0.00  0.00    -0.026 C 
ATOM     24  C   UNL     1      -4.492  -1.959   3.023  0.00  0.00    +0.013 C 
ENDBRANCH   3   2
ENDBRANCH   4   3
ENDBRANCH   5   4
ENDBRANCH   6   5
BRANCH   7   8
ATOM      8  O   UNL     1      -1.055   0.541   1.540  0.00  0.00    -0.487 OA
ATOM      9  H   UNL     1      -1.244   0.464   2.485  0.00  0.00    +0.400 HD
ENDBRANCH   7   8
BRANCH  11  12
ATOM     12  O   UNL     1       3.555   1.402   0.801  0.00  0.00    -0.487 OA
ATOM     13  H   UNL     1       3.684   1.855  -0.043  0.00  0.00    +0.398 HD
ENDBRANCH  11  12
BRANCH  20  21
ATOM     21  O   UNL     1       1.858  -2.977   0.098  0.00  0.00    -0.471 OA
ATOM     22  H   UNL     1       1.742  -3.150  -0.846  0.00  0.00    +0.398 HD
ENDBRANCH  20  21
BRANCH  14  15
ATOM     15  C   UNL     1       4.091  -1.261   0.051  0.00  0.00    +0.132 C 
BRANCH  15  16
ATOM     16  C   UNL     1       4.270  -1.091  -1.436  0.00  0.00    -0.060 C 
ATOM     17  C   UNL     1       5.292  -0.416  -1.899  0.00  0.00    -0.124 C 
ATOM     18  C   UNL     1       5.544  -0.354  -3.384  0.00  0.00    +0.074 C 
ATOM     19  C   UNL     1       6.216   0.300  -0.948  0.00  0.00    +0.076 C 
ENDBRANCH  15  16
ENDBRANCH  14  15
TORSDOF 9
