REMARK  Name = ZINC14435101
REMARK  8 active torsions:
REMARK  status: ('A' for Active; 'I' for Inactive)
REMARK    1  A    between atoms: C1_1  and  O1_2
REMARK    2  A    between atoms: O1_2  and  C2_3
REMARK    3  A    between atoms: C6_7  and  O3_11
REMARK    4  A    between atoms: C7_8  and  O2_9
REMARK    5  A    between atoms: O2_9  and  C8_10
REMARK    6  A    between atoms: C9_12  and  O8_29
REMARK    7  A    between atoms: C12_15  and  C13_16
REMARK    8  A    between atoms: O8_29  and  C22_30
REMARK                            x       y       z     vdW  Elec       q    Type
REMARK                         _______ _______ _______ _____ _____    ______ ____
ROOT
ATOM      3  C   UNL     1      -0.787   2.892   1.346  0.00  0.00    +0.144 A 
ATOM      4  C   UNL     1      -0.260   3.737   0.396  0.00  0.00    -0.049 A 
ATOM      5  C   UNL     1      -0.366   5.126   0.560  0.00  0.00    +0.011 A 
ATOM      6  C   UNL     1      -1.018   5.649   1.703  0.00  0.00    -0.088 A 
ATOM      7  C   UNL     1      -1.126   7.047   1.869  0.00  0.00    +0.164 A 
ATOM     10  C   UNL     1      -0.608   7.889   0.935  0.00  0.00    -0.147 A 
ATOM     11  C   UNL     1       0.044   7.393  -0.211  0.00  0.00    -0.155 A 
ATOM     12  C   UNL     1       0.485   8.543  -1.014  0.00  0.00    +0.521 C 
ATOM     13  O   UNL     1       0.134   9.694  -0.415  0.00  0.00    -0.315 OA
ATOM     14  O   UNL     1       1.082   8.465  -2.070  0.00  0.00    -0.432 OA
ATOM     15  C   UNL     1      -0.563   9.394   0.825  0.00  0.00    +0.340 C 
ATOM     16  C   UNL     1      -1.550   4.768   2.662  0.00  0.00    +0.146 A 
ATOM     19  C   UNL     1       0.168   6.013  -0.404  0.00  0.00    +0.054 A 
ATOM     29  C   UNL     1      -1.437   3.405   2.475  0.00  0.00    +0.067 A 
ENDROOT
BRANCH  19  20
ATOM     20  C   UNL     1       0.852   5.487  -1.604  0.00  0.00    -0.055 A 
ATOM     21  C   UNL     1       0.137   4.749  -2.551  0.00  0.00    +0.053 A 
ATOM     22  C   UNL     1       0.776   4.260  -3.670  0.00  0.00    +0.041 A 
ATOM     23  C   UNL     1       2.130   4.496  -3.860  0.00  0.00    +0.046 A 
ATOM     24  C   UNL     1       2.850   5.232  -2.919  0.00  0.00    +0.038 A 
ATOM     25  O   UNL     1       4.147   5.322  -3.335  0.00  0.00    -0.305 OA
ATOM     26  C   UNL     1       4.304   4.292  -4.329  0.00  0.00    +0.434 C 
ATOM     27  O   UNL     1       2.977   4.128  -4.864  0.00  0.00    -0.306 OA
ATOM     28  C   UNL     1       2.213   5.730  -1.798  0.00  0.00    +0.076 A 
ENDBRANCH  19  20
BRANCH   3   2
ATOM      1  C   UNL     1      -0.013   1.086   0.008  0.00  0.00    +0.250 C 
ATOM      2  O   UNL     1      -0.682   1.547   1.184  0.00  0.00    -0.297 OA
ENDBRANCH   3   2
BRANCH   7   8
ATOM      8  O   UNL     1      -1.750   7.553   2.964  0.00  0.00    -0.316 OA
ATOM      9  C   UNL     1      -3.157   7.783   2.861  0.00  0.00    +0.234 C 
ENDBRANCH   7   8
BRANCH  16  17
ATOM     17  O   UNL     1      -2.177   5.256   3.765  0.00  0.00    -0.464 OA
ATOM     18  H   UNL     1      -3.128   5.389   3.650  0.00  0.00    +0.392 HD
ENDBRANCH  16  17
BRANCH  29  30
ATOM     30  O   UNL     1      -1.956   2.552   3.399  0.00  0.00    -0.318 OA
ATOM     31  C   UNL     1      -1.099   2.156   4.471  0.00  0.00    +0.236 C 
ENDBRANCH  29  30
TORSDOF 5
