REMARK  Name = ZINC01663629
REMARK  6 active torsions:
REMARK  status: ('A' for Active; 'I' for Inactive)
REMARK    1  A    between atoms: C1_1  and  O1_2
REMARK    2  A    between atoms: O1_2  and  C2_3
REMARK    3  A    between atoms: C4_5  and  O5_23
REMARK    4  A    between atoms: C9_11  and  C11_15
REMARK    5  A    between atoms: C11_15  and  C12_16
REMARK    6  A    between atoms: C15_19  and  O4_22
REMARK                            x       y       z     vdW  Elec       q    Type
REMARK                         _______ _______ _______ _____ _____    ______ ____
ROOT
ATOM      3  C   UNL     1      -1.226   1.754   0.017  0.00  0.00    +0.214 A 
ATOM      4  C   UNL     1      -0.013   1.076   0.008  0.00  0.00    -0.139 A 
ATOM      5  C   UNL     1       1.176   1.783   0.000  0.00  0.00    +0.242 A 
ATOM      8  C   UNL     1       1.146   3.187   0.010  0.00  0.00    -0.315 A 
ATOM      9  C   UNL     1      -0.085   3.869   0.018  0.00  0.00    +0.231 A 
ATOM     10  O   UNL     1      -0.126   5.222   0.012  0.00  0.00    -0.299 OA
ATOM     11  C   UNL     1       1.013   5.945   0.478  0.00  0.00    +0.274 C 
ATOM     12  C   UNL     1       2.266   5.450  -0.259  0.00  0.00    -0.051 C 
ATOM     22  C   UNL     1       2.391   3.962   0.017  0.00  0.00    +0.404 C 
ATOM     23  O   UNL     1       3.466   3.441   0.232  0.00  0.00    -0.420 OA
ATOM     24  C   UNL     1      -1.262   3.142   0.028  0.00  0.00    -0.058 A 
ENDROOT
BRANCH   3   2
ATOM      1  C   UNL     1      -2.283  -0.374   0.017  0.00  0.00    +0.254 C 
ATOM      2  O   UNL     1      -2.387   1.052   0.022  0.00  0.00    -0.305 OA
ENDBRANCH   3   2
BRANCH   5   6
ATOM      6  O   UNL     1       2.362   1.125  -0.016  0.00  0.00    -0.476 OA
ATOM      7  H   UNL     1       2.697   0.941  -0.904  0.00  0.00    +0.399 HD
ENDBRANCH   5   6
BRANCH  12  13
ATOM     13  C   UNL     1       2.115   5.691  -1.762  0.00  0.00    +0.110 C 
BRANCH  13  14
ATOM     14  C   UNL     1       3.396   5.316  -2.462  0.00  0.00    -0.099 A 
ATOM     15  C   UNL     1       4.384   6.265  -2.649  0.00  0.00    +0.033 A 
ATOM     16  C   UNL     1       5.562   5.923  -3.285  0.00  0.00    -0.012 A 
ATOM     17  C   UNL     1       5.748   4.628  -3.747  0.00  0.00    +0.106 A 
ATOM     20  C   UNL     1       4.753   3.678  -3.563  0.00  0.00    -0.011 A 
ATOM     21  C   UNL     1       3.580   4.024  -2.921  0.00  0.00    +0.026 A 
BRANCH  17  18
ATOM     18  O   UNL     1       6.902   4.290  -4.379  0.00  0.00    -0.499 OA
ATOM     19  H   UNL     1       6.878   4.418  -5.337  0.00  0.00    +0.391 HD
ENDBRANCH  17  18
ENDBRANCH  13  14
ENDBRANCH  12  13
TORSDOF 5
