REMARK  Name = ZINC95486309
REMARK  13 active torsions:
REMARK  status: ('A' for Active; 'I' for Inactive)
REMARK    1  A    between atoms: C2_2  and  C7_10
REMARK    2  A    between atoms: C4_4  and  O3_9
REMARK    3  A    between atoms: C5_5  and  O2_8
REMARK    4  A    between atoms: C6_6  and  O1_7
REMARK    5  A    between atoms: C7_10  and  O5_12
REMARK    6  A    between atoms: O5_12  and  C8_13
REMARK    7  A    between atoms: C8_13  and  C9_14
REMARK    8  A    between atoms: C10_16  and  O10_31
REMARK    9  A    between atoms: C11_18  and  O9_30
REMARK   10  A    between atoms: C12_20  and  O8_29
REMARK   11  A    between atoms: C13_22  and  O7_25
REMARK   12  A    between atoms: O7_25  and  C14_26
REMARK   13  A    between atoms: C14_26  and  C15_27
REMARK                            x       y       z     vdW  Elec       q    Type
REMARK                         _______ _______ _______ _____ _____    ______ ____
ROOT
ATOM      5  C   UNL     1       2.236   5.680   0.010  0.00  0.00    +0.268 C 
ENDROOT
BRANCH   5   6
ATOM      6  C   UNL     1       3.643   6.281   0.000  0.00  0.00    +0.205 C 
ATOM      7  C   UNL     1       3.549   7.803   0.134  0.00  0.00    +0.174 C 
ATOM     10  C   UNL     1       4.957   8.402   0.063  0.00  0.00    +0.167 C 
ATOM     13  C   UNL     1       5.616   7.973  -1.252  0.00  0.00    +0.145 C 
ATOM     16  C   UNL     1       5.630   6.444  -1.333  0.00  0.00    +0.309 C 
ATOM     21  O   UNL     1       4.293   5.951  -1.229  0.00  0.00    -0.382 OA
BRANCH   7   8
ATOM      8  O   UNL     1       2.950   8.136   1.388  0.00  0.00    -0.549 OA
ATOM      9  H   UNL     1       2.859   9.086   1.540  0.00  0.00    +0.398 HD
ENDBRANCH   7   8
BRANCH  10  11
ATOM     11  O   UNL     1       4.873   9.827   0.115  0.00  0.00    -0.554 OA
ATOM     12  H   UNL     1       5.730  10.273   0.074  0.00  0.00    +0.397 HD
ENDBRANCH  10  11
BRANCH  13  14
ATOM     14  O   UNL     1       6.956   8.467  -1.298  0.00  0.00    -0.554 OA
ATOM     15  H   UNL     1       7.435   8.233  -2.105  0.00  0.00    +0.397 HD
ENDBRANCH  13  14
BRANCH  16  17
ATOM     17  O   UNL     1       6.193   6.038  -2.581  0.00  0.00    -0.358 OA
BRANCH  17  18
ATOM     18  C   UNL     1       6.357   4.625  -2.712  0.00  0.00    +0.378 C 
BRANCH  18  19
ATOM     19  C   UNL     1       6.941   4.318  -4.029  0.00  0.00    +0.205 C 
ATOM     20  N   UNL     1       7.392   4.082  -5.044  0.00  0.00    -0.396 NA
ENDBRANCH  18  19
ENDBRANCH  17  18
ENDBRANCH  16  17
ENDBRANCH   5   6
BRANCH   5   4
ATOM      4  O   UNL     1       2.327   4.253   0.002  0.00  0.00    -0.341 OA
BRANCH   4   3
ATOM      3  C   UNL     1       1.168   3.566   0.010  0.00  0.00    +0.515 C 
ATOM     22  O   UNL     1       0.109   4.162   0.022  0.00  0.00    -0.493 OA
BRANCH   3   2
ATOM      1  C   UNL     1      -0.017   1.378   0.010  0.00  0.00    +0.081 A 
ATOM      2  C   UNL     1       1.185   2.092   0.002  0.00  0.00    -0.103 A 
ATOM     23  C   UNL     1       2.402   1.406  -0.013  0.00  0.00    +0.075 A 
ATOM     24  C   UNL     1       2.415   0.024  -0.021  0.00  0.00    +0.084 A 
ATOM     27  C   UNL     1       1.216  -0.685  -0.013  0.00  0.00    +0.095 A 
ATOM     30  C   UNL     1       0.002  -0.004   0.002  0.00  0.00    +0.089 A 
BRANCH  24  25
ATOM     25  O   UNL     1       3.599  -0.645  -0.036  0.00  0.00    -0.480 OA
ATOM     26  H   UNL     1       3.951  -0.843   0.843  0.00  0.00    +0.393 HD
ENDBRANCH  24  25
BRANCH  27  28
ATOM     28  O   UNL     1       1.232  -2.044  -0.021  0.00  0.00    -0.478 OA
ATOM     29  H   UNL     1       1.245  -2.442   0.860  0.00  0.00    +0.397 HD
ENDBRANCH  27  28
BRANCH  30  31
ATOM     31  O   UNL     1      -1.167  -0.699   0.009  0.00  0.00    -0.484 OA
ATOM     32  H   UNL     1      -1.513  -0.896  -0.872  0.00  0.00    +0.400 HD
ENDBRANCH  30  31
ENDBRANCH   3   2
ENDBRANCH   4   3
ENDBRANCH   5   4
TORSDOF 13
