REMARK  Name = ZINC95486296
REMARK  8 active torsions:
REMARK  status: ('A' for Active; 'I' for Inactive)
REMARK    1  A    between atoms: C1_1  and  O1_2
REMARK    2  A    between atoms: O1_2  and  C2_3
REMARK    3  A    between atoms: C5_6  and  O2_9
REMARK    4  A    between atoms: O2_9  and  C8_10
REMARK    5  A    between atoms: C9_11  and  O6_23
REMARK    6  A    between atoms: C14_17  and  O5_21
REMARK    7  A    between atoms: O5_21  and  C17_22
REMARK    8  A    between atoms: O6_23  and  C18_24
REMARK                            x       y       z     vdW  Elec       q    Type
REMARK                         _______ _______ _______ _____ _____    ______ ____
ROOT
ATOM      8  C   UNL     1      -4.861  -3.909  -0.072  0.00  0.00    +0.230 A 
ATOM      9  C   UNL     1      -6.056  -4.549  -0.175  0.00  0.00    -0.084 A 
ATOM     12  C   UNL     1      -6.086  -5.958  -0.287  0.00  0.00    +0.444 A 
ATOM     13  C   UNL     1      -4.792  -6.665  -0.286  0.00  0.00    -0.252 A 
ATOM     14  C   UNL     1      -4.725  -8.054  -0.393  0.00  0.00    +0.169 A 
ATOM     15  C   UNL     1      -3.509  -8.677  -0.389  0.00  0.00    -0.087 A 
ATOM     16  C   UNL     1      -2.337  -7.932  -0.279  0.00  0.00    +0.197 A 
ATOM     19  C   UNL     1      -2.387  -6.552  -0.171  0.00  0.00    -0.027 A 
ATOM     20  C   UNL     1      -3.615  -5.905  -0.175  0.00  0.00    +0.200 A 
ATOM     21  O   UNL     1      -7.141  -6.565  -0.382  0.00  0.00    -0.448 OA
ATOM     22  O   UNL     1      -3.690  -4.562  -0.077  0.00  0.00    -0.232 OA
ENDROOT
BRANCH   9  10
ATOM     10  O   UNL     1      -7.219  -3.837  -0.170  0.00  0.00    -0.286 OA
ATOM     11  C   UNL     1      -7.109  -2.417  -0.052  0.00  0.00    +0.257 C 
ENDBRANCH   9  10
BRANCH  16  17
ATOM     17  O   UNL     1      -1.135  -8.564  -0.276  0.00  0.00    -0.306 OA
ATOM     18  C   UNL     1      -1.151  -9.988  -0.389  0.00  0.00    +0.256 C 
ENDBRANCH  16  17
BRANCH   8   7
ATOM      7  O   UNL     1      -4.853  -2.562   0.034  0.00  0.00    -0.203 OA
BRANCH   7   6
ATOM      3  C   UNL     1      -1.201  -0.637   0.014  0.00  0.00    +0.144 A 
ATOM      4  C   UNL     1      -1.741  -1.113  -1.172  0.00  0.00    -0.058 A 
ATOM      5  C   UNL     1      -2.963  -1.757  -1.166  0.00  0.00    +0.062 A 
ATOM      6  C   UNL     1      -3.650  -1.928   0.027  0.00  0.00    +0.010 A 
ATOM     23  C   UNL     1      -3.110  -1.453   1.214  0.00  0.00    +0.076 A 
ATOM     24  C   UNL     1      -1.886  -0.813   1.208  0.00  0.00    +0.004 A 
BRANCH   3   2
ATOM      1  C   UNL     1       0.651   0.142  -1.257  0.00  0.00    +0.247 C 
ATOM      2  O   UNL     1       0.002  -0.004   0.008  0.00  0.00    -0.312 OA
ENDBRANCH   3   2
ENDBRANCH   7   6
ENDBRANCH   8   7
TORSDOF 5
