REMARK  Name = ZINC95486373
REMARK  0 active torsions:
REMARK  status: ('A' for Active; 'I' for Inactive)
REMARK                            x       y       z     vdW  Elec       q    Type
REMARK                         _______ _______ _______ _____ _____    ______ ____
ROOT
ATOM      1  C   UNL     1      -0.017   1.384   0.010  0.00  0.00    +0.052 A 
ATOM      2  C   UNL     1       1.215   2.037   0.001  0.00  0.00    +0.001 A 
ATOM      3  C   UNL     1       2.431   1.318   0.007  0.00  0.00    -0.126 A 
ATOM      4  C   UNL     1       3.708   2.062   0.068  0.00  0.00    +0.586 C 
ATOM      5  N   UNL     1       3.695   3.388  -0.173  0.00  0.00    -0.612 N 
ATOM      6  C   UNL     1       4.784   4.352   0.029  0.00  0.00    +0.266 C 
ATOM      7  C   UNL     1       4.185   5.759  -0.222  0.00  0.00    +0.090 C 
ATOM      8  C   UNL     1       2.696   5.531  -0.073  0.00  0.00    -0.143 C 
ATOM      9  C   UNL     1       1.754   6.285   0.389  0.00  0.00    +0.013 C 
ATOM     10  C   UNL     1       0.347   5.761   0.507  0.00  0.00    +0.135 C 
ATOM     11  C   UNL     1       0.311   4.265   0.450  0.00  0.00    +0.019 C 
ATOM     12  C   UNL     1       2.512   4.134  -0.642  0.00  0.00    +0.308 C 
ATOM     13  O   UNL     1       4.749   1.488   0.328  0.00  0.00    -0.525 OA
ATOM     14  C   UNL     1       2.440  -0.082  -0.017  0.00  0.00    +0.124 A 
ATOM     15  C   UNL     1       1.212  -0.724  -0.017  0.00  0.00    +0.022 A 
ATOM     16  O   UNL     1       0.929  -2.047  -0.032  0.00  0.00    -0.300 OA
ATOM     17  C   UNL     1      -0.459  -2.141  -0.412  0.00  0.00    +0.439 C 
ATOM     18  O   UNL     1      -1.025  -0.882   0.008  0.00  0.00    -0.300 OA
ATOM     19  C   UNL     1       1.280   3.516  -0.022  0.00  0.00    -0.112 C 
ATOM     20  C   UNL     1       0.002  -0.004   0.002  0.00  0.00    +0.065 A 
ENDROOT
TORSDOF 0
