REMARK  Name = ZINC95486163
REMARK  23 active torsions:
REMARK  status: ('A' for Active; 'I' for Inactive)
REMARK    1  A    between atoms: C1_1  and  C2_2
REMARK    2  A    between atoms: C2_2  and  C39_47
REMARK    3  A    between atoms: C3_3  and  C4_4
REMARK    4  A    between atoms: C4_4  and  C5_5
REMARK    5  A    between atoms: C7_8  and  C28_35
REMARK    6  A    between atoms: C9_10  and  C21_24
REMARK    7  A    between atoms: C11_13  and  C16_19
REMARK    8  A    between atoms: C13_16  and  C14_17
REMARK    9  A    between atoms: C13_16  and  C15_18
REMARK   10  A    between atoms: C16_19  and  C17_20
REMARK   11  A    between atoms: C18_21  and  C19_22
REMARK   12  A    between atoms: C18_21  and  C20_23
REMARK   13  A    between atoms: C21_24  and  C22_26
REMARK   14  A    between atoms: C25_29  and  O5_33
REMARK   15  A    between atoms: C26_30  and  O4_32
REMARK   16  A    between atoms: C28_35  and  C29_36
REMARK   17  A    between atoms: C29_36  and  C30_37
REMARK   18  A    between atoms: C30_37  and  C31_39
REMARK   19  A    between atoms: C30_37  and  C36_44
REMARK   20  A    between atoms: C31_39  and  C32_40
REMARK   21  A    between atoms: C32_40  and  C33_41
REMARK   22  A    between atoms: C33_41  and  C35_43
REMARK   23  A    between atoms: C36_44  and  C38_46
REMARK                            x       y       z     vdW  Elec       q    Type
REMARK                         _______ _______ _______ _____ _____    ______ ____
ROOT
ATOM      6  C   UNL     1      -0.728   1.171   3.665  0.00  0.00    -0.010 C 
ATOM      7  C   UNL     1      -2.108   1.292   3.039  0.00  0.00    +0.085 C 
ATOM      8  C   UNL     1      -3.167   0.474   3.776  0.00  0.00    -0.139 C 
ATOM     20  C   UNL     1      -2.841  -1.002   3.684  0.00  0.00    +0.388 C 
ATOM     21  O   UNL     1      -3.568  -1.750   3.063  0.00  0.00    -0.398 OA
ATOM     22  C   UNL     1      -1.606  -1.540   4.368  0.00  0.00    -0.070 C 
ATOM     35  C   UNL     1      -1.441  -0.888   5.721  0.00  0.00    +0.384 C 
ATOM     36  C   UNL     1      -1.749   0.582   5.904  0.00  0.00    -0.125 C 
ATOM     42  O   UNL     1      -1.064  -1.552   6.667  0.00  0.00    -0.385 OA
ATOM     43  C   UNL     1      -3.097   0.845   5.250  0.00  0.00    +0.385 C 
ATOM     44  O   UNL     1      -4.036   1.306   5.851  0.00  0.00    -0.394 OA
ATOM     45  C   UNL     1      -0.709   1.429   5.165  0.00  0.00    -0.036 C 
ATOM     46  C   UNL     1      -0.987   2.915   5.430  0.00  0.00    +0.049 C 
ATOM     47  C   UNL     1       0.688   1.096   5.711  0.00  0.00    +0.046 C 
ENDROOT
BRANCH  22  23
ATOM     23  C   UNL     1      -1.771  -3.033   4.565  0.00  0.00    +0.416 C 
ATOM     34  O   UNL     1      -2.280  -3.458   5.580  0.00  0.00    -0.408 OA
BRANCH  23  24
ATOM     24  C   UNL     1      -1.314  -3.965   3.527  0.00  0.00    -0.152 A 
ATOM     25  C   UNL     1      -0.720  -3.477   2.356  0.00  0.00    +0.068 A 
ATOM     26  C   UNL     1      -0.292  -4.354   1.385  0.00  0.00    +0.005 A 
ATOM     27  C   UNL     1      -0.448  -5.723   1.562  0.00  0.00    +0.119 A 
ATOM     30  C   UNL     1      -1.038  -6.217   2.725  0.00  0.00    +0.073 A 
ATOM     33  C   UNL     1      -1.465  -5.346   3.707  0.00  0.00    +0.080 A 
BRANCH  27  28
ATOM     28  O   UNL     1      -0.025  -6.582   0.600  0.00  0.00    -0.484 OA
ATOM     29  H   UNL     1       0.892  -6.872   0.707  0.00  0.00    +0.395 HD
ENDBRANCH  27  28
BRANCH  30  31
ATOM     31  O   UNL     1      -1.189  -7.558   2.894  0.00  0.00    -0.482 OA
ATOM     32  H   UNL     1      -0.439  -7.987   3.328  0.00  0.00    +0.391 HD
ENDBRANCH  30  31
ENDBRANCH  23  24
ENDBRANCH  22  23
BRANCH   6   5
ATOM      5  C   UNL     1       0.201   2.199   2.990  0.00  0.00    +0.070 C 
BRANCH   5   4
ATOM      1  C   UNL     1      -0.492   4.107   1.032  0.00  0.00    +0.072 C 
ATOM      2  C   UNL     1      -0.036   2.731   0.619  0.00  0.00    -0.121 C 
ATOM      3  C   UNL     1      -0.013   2.351  -0.840  0.00  0.00    +0.072 C 
ATOM      4  C   UNL     1       0.341   1.865   1.527  0.00  0.00    -0.068 C 
ENDBRANCH   5   4
ENDBRANCH   6   5
BRANCH   8   9
ATOM      9  C   UNL     1      -4.568   0.756   3.214  0.00  0.00    +0.076 C 
BRANCH   9  10
ATOM     10  C   UNL     1      -5.600  -0.078   3.975  0.00  0.00    +0.020 C 
BRANCH  10  11
ATOM     11  C   UNL     1      -6.996   0.202   3.414  0.00  0.00    +0.028 C 
BRANCH  11  12
ATOM     12  C   UNL     1      -7.070  -0.276   1.987  0.00  0.00    -0.103 C 
ATOM     13  C   UNL     1      -6.835  -1.730   1.667  0.00  0.00    +0.071 C 
ATOM     14  C   UNL     1      -7.339   0.571   1.025  0.00  0.00    -0.017 C 
ENDBRANCH  11  12
BRANCH  11  15
ATOM     15  C   UNL     1      -8.040  -0.535   4.255  0.00  0.00    +0.025 C 
BRANCH  15  16
ATOM     16  C   UNL     1      -9.442  -0.157   3.773  0.00  0.00    +0.053 C 
BRANCH  16  17
ATOM     17  C   UNL     1     -10.471  -0.883   4.600  0.00  0.00    -0.123 C 
ATOM     18  C   UNL     1     -10.881  -2.286   4.232  0.00  0.00    +0.070 C 
ATOM     19  C   UNL     1     -11.009  -0.295   5.640  0.00  0.00    -0.010 C 
ENDBRANCH  16  17
ENDBRANCH  15  16
ENDBRANCH  11  15
ENDBRANCH  10  11
ENDBRANCH   9  10
ENDBRANCH   8   9
BRANCH  36  37
ATOM     37  C   UNL     1      -1.790   0.948   7.395  0.00  0.00    +0.117 C 
BRANCH  37  38
ATOM     38  C   UNL     1      -2.860   0.138   8.081  0.00  0.00    -0.071 C 
ATOM     39  C   UNL     1      -2.566  -0.566   9.147  0.00  0.00    -0.106 C 
ATOM     40  C   UNL     1      -3.656  -1.280   9.902  0.00  0.00    +0.070 C 
ATOM     41  C   UNL     1      -1.137  -0.661   9.616  0.00  0.00    +0.075 C 
ENDBRANCH  37  38
ENDBRANCH  36  37
TORSDOF 15
