REMARK  Name = ZINC95486170
REMARK  12 active torsions:
REMARK  status: ('A' for Active; 'I' for Inactive)
REMARK    1  A    between atoms: C1_1  and  C2_2
REMARK    2  A    between atoms: C4_6  and  O3_40
REMARK    3  A    between atoms: C6_9  and  C32_39
REMARK    4  A    between atoms: C7_10  and  C31_38
REMARK    5  A    between atoms: C10_13  and  C30_37
REMARK    6  A    between atoms: C11_14  and  C29_36
REMARK    7  A    between atoms: C14_17  and  C28_35
REMARK    8  A    between atoms: C15_18  and  C27_34
REMARK    9  A    between atoms: C17_20  and  C26_32
REMARK   10  A    between atoms: C21_27  and  C24_30
REMARK   11  A    between atoms: C21_27  and  C25_31
REMARK   12  A    between atoms: C26_32  and  O2_33
REMARK                            x       y       z     vdW  Elec       q    Type
REMARK                         _______ _______ _______ _____ _____    ______ ____
ROOT
ATOM      1  C   UNL     1      -0.252   1.875   4.436  0.00  0.00    +0.040 C 
ATOM      2  C   UNL     1      -0.318   0.940   3.215  0.00  0.00    -0.016 C 
ATOM      3  C   UNL     1      -0.018   1.760   1.984  0.00  0.00    +0.341 C 
ATOM      4  C   UNL     1       0.590   1.185   0.739  0.00  0.00    +0.140 C 
ATOM      7  C   UNL     1       1.432  -0.064   0.978  0.00  0.00    +0.060 C 
ATOM      8  C   UNL     1       0.812  -0.949   2.074  0.00  0.00    -0.020 C 
ATOM      9  C   UNL     1      -0.618  -1.224   1.572  0.00  0.00    +0.026 C 
ATOM     10  C   UNL     1       1.598  -2.255   2.206  0.00  0.00    -0.013 C 
ATOM     11  C   UNL     1       3.093  -1.864   2.223  0.00  0.00    +0.013 C 
ATOM     12  C   UNL     1       1.439  -3.125   0.950  0.00  0.00    +0.014 C 
ATOM     13  C   UNL     1       2.383  -4.327   1.053  0.00  0.00    +0.014 C 
ATOM     14  C   UNL     1       2.017  -5.192   2.255  0.00  0.00    -0.025 C 
ATOM     15  C   UNL     1       0.625  -5.805   1.941  0.00  0.00    +0.010 C 
ATOM     16  C   UNL     1       1.988  -4.399   3.555  0.00  0.00    -0.009 C 
ATOM     17  C   UNL     1       3.410  -4.087   4.058  0.00  0.00    +0.012 C 
ATOM     18  C   UNL     1       1.366  -5.305   4.630  0.00  0.00    +0.027 C 
ATOM     19  C   UNL     1       2.035  -6.680   4.705  0.00  0.00    -0.003 C 
ATOM     23  C   UNL     1       3.213  -6.858   3.781  0.00  0.00    +0.005 C 
ATOM     24  C   UNL     1       3.641  -8.335   3.652  0.00  0.00    +0.002 C 
ATOM     25  C   UNL     1       4.977  -8.351   2.906  0.00  0.00    +0.008 C 
ATOM     26  C   UNL     1       4.907  -7.682   1.540  0.00  0.00    -0.061 C 
ATOM     27  C   UNL     1       4.166  -8.588   0.552  0.00  0.00    +0.018 C 
ATOM     28  C   UNL     1       6.343  -7.487   1.019  0.00  0.00    +0.013 C 
ATOM     29  C   UNL     1       4.230  -6.308   1.587  0.00  0.00    +0.030 C 
ATOM     30  C   UNL     1       2.923  -6.409   2.354  0.00  0.00    -0.006 C 
ATOM     31  C   UNL     1       1.216  -3.079   3.431  0.00  0.00    -0.015 C 
ATOM     32  C   UNL     1      -0.290  -3.412   3.452  0.00  0.00    +0.015 C 
ATOM     33  C   UNL     1       1.430  -2.198   4.674  0.00  0.00    +0.019 C 
ATOM     34  C   UNL     1       0.486  -0.993   4.595  0.00  0.00    +0.016 C 
ATOM     35  O   UNL     1      -0.284   2.954   2.011  0.00  0.00    -0.458 OA
ATOM     36  C   UNL     1       0.773  -0.140   3.365  0.00  0.00    -0.026 C 
ATOM     37  C   UNL     1       2.078   0.636   3.621  0.00  0.00    +0.021 C 
ENDROOT
BRANCH   4   5
ATOM      5  O   UNL     1      -0.412   0.948  -0.254  0.00  0.00    -0.540 OA
ATOM      6  H   UNL     1      -0.892   1.742  -0.526  0.00  0.00    +0.382 HD
ENDBRANCH   4   5
BRANCH  19  20
ATOM     20  C   UNL     1       2.462  -6.929   6.160  0.00  0.00    +0.162 C 
BRANCH  20  21
ATOM     21  O   UNL     1       1.302  -7.012   6.989  0.00  0.00    -0.572 OA
ATOM     22  H   UNL     1       1.496  -7.168   7.924  0.00  0.00    +0.378 HD
ENDBRANCH  20  21
ENDBRANCH  19  20
TORSDOF 3
