REMARK  Name = ZINC06038016
REMARK  4 active torsions:
REMARK  status: ('A' for Active; 'I' for Inactive)
REMARK    1  A    between atoms: C1_1  and  C2_2
REMARK    2  A    between atoms: C6_9  and  C8_14
REMARK    3  A    between atoms: C9_15  and  O4_25
REMARK    4  A    between atoms: C11_18  and  C15_24
REMARK                            x       y       z     vdW  Elec       q    Type
REMARK                         _______ _______ _______ _____ _____    ______ ____
ROOT
ATOM      1  C   UNL     1      -0.019   1.526   0.010  0.00  0.00    +0.047 C 
ATOM      2  C   UNL     1       0.002  -0.004   0.002  0.00  0.00    +0.010 C 
ATOM      3  C   UNL     1       0.648  -0.519  -1.293  0.00  0.00    +0.056 C 
ATOM      4  C   UNL     1       1.581   0.456  -1.932  0.00  0.00    +0.164 C 
ATOM      5  C   UNL     1       3.040   0.508  -1.464  0.00  0.00    +0.029 C 
ATOM      6  C   UNL     1       3.034   0.672   0.057  0.00  0.00    +0.239 C 
ATOM      9  C   UNL     1       2.279  -0.470   0.651  0.00  0.00    -0.090 C 
ATOM     10  C   UNL     1       2.858  -1.684   0.792  0.00  0.00    -0.198 C 
ATOM     11  C   UNL     1       4.301  -1.962   0.462  0.00  0.00    +0.114 C 
ATOM     12  C   UNL     1       1.939  -2.694   1.295  0.00  0.00    +0.386 C 
ATOM     13  C   UNL     1       0.582  -2.033   1.441  0.00  0.00    +0.051 C 
ATOM     14  O   UNL     1       2.208  -3.849   1.550  0.00  0.00    -0.439 OA
ATOM     15  C   UNL     1       3.473   1.871  -2.083  0.00  0.00    -0.025 C 
ATOM     16  C   UNL     1       4.219   1.651  -3.400  0.00  0.00    +0.070 C 
ATOM     17  C   UNL     1       2.158   2.591  -2.325  0.00  0.00    +0.469 C 
ATOM     18  O   UNL     1       2.038   3.679  -2.835  0.00  0.00    -0.440 OA
ATOM     19  O   UNL     1       1.153   1.820  -1.859  0.00  0.00    -0.320 OA
ATOM     20  C   UNL     1       0.898  -0.537   1.161  0.00  0.00    +0.042 C 
ENDROOT
BRANCH   6   7
ATOM      7  O   UNL     1       4.377   0.669   0.547  0.00  0.00    -0.547 OA
ATOM      8  H   UNL     1       4.446   0.769   1.506  0.00  0.00    +0.385 HD
ENDBRANCH   6   7
TORSDOF 1
