REMARK  Name = ZINC04098318
REMARK  6 active torsions:
REMARK  status: ('A' for Active; 'I' for Inactive)
REMARK    1  A    between atoms: C1_1  and  C2_2
REMARK    2  A    between atoms: C6_6  and  C14_18
REMARK    3  A    between atoms: C6_6  and  C15_19
REMARK    4  A    between atoms: C10_11  and  C13_16
REMARK    5  A    between atoms: C11_12  and  C12_13
REMARK    6  A    between atoms: C11_12  and  O2_15
REMARK                            x       y       z     vdW  Elec       q    Type
REMARK                         _______ _______ _______ _____ _____    ______ ____
ROOT
ATOM      1  C   UNL     1       0.036   1.526   0.007  0.00  0.00    +0.038 C 
ATOM      2  C   UNL     1       0.046  -0.004  -0.001  0.00  0.00    -0.021 C 
ATOM      3  C   UNL     1      -1.390  -0.532   0.013  0.00  0.00    +0.033 C 
ATOM      4  C   UNL     1      -2.046  -0.268   1.367  0.00  0.00    +0.007 C 
ATOM      5  C   UNL     1      -1.274  -1.017   2.449  0.00  0.00    +0.018 C 
ATOM      6  C   UNL     1       0.174  -0.533   2.511  0.00  0.00    -0.050 C 
ATOM      7  C   UNL     1       0.923  -1.490   3.466  0.00  0.00    +0.016 C 
ATOM      8  C   UNL     1       0.218   0.860   3.137  0.00  0.00    +0.024 C 
ATOM      9  C   UNL     1       0.706  -0.473  -1.313  0.00  0.00    +0.135 C 
ATOM     14  C   UNL     1       2.188  -0.255  -1.268  0.00  0.00    -0.249 C 
ATOM     17  C   UNL     1       2.872  -0.023  -0.165  0.00  0.00    +0.083 C 
ATOM     18  C   UNL     1       2.238   0.050   1.198  0.00  0.00    +0.078 C 
ATOM     19  C   UNL     1       0.849  -0.591   1.154  0.00  0.00    +0.023 C 
ENDROOT
BRANCH   9  10
ATOM     10  O   UNL     1       0.440  -1.861  -1.511  0.00  0.00    -0.530 OA
ATOM     11  H   UNL     1       0.827  -2.224  -2.320  0.00  0.00    +0.382 HD
ENDBRANCH   9  10
BRANCH   9  12
ATOM     12  C   UNL     1       0.133   0.315  -2.463  0.00  0.00    +0.418 C 
ATOM     13  O   UNL     1       0.859   0.991  -3.152  0.00  0.00    -0.424 OA
ENDBRANCH   9  12
BRANCH  14  15
ATOM     15  C   UNL     1       2.924  -0.300  -2.533  0.00  0.00    +0.468 C 
ATOM     16  O   UNL     1       2.333  -0.511  -3.571  0.00  0.00    -0.450 OA
ENDBRANCH  14  15
TORSDOF 3
