REMARK  Name = ZINC95485881
REMARK  8 active torsions:
REMARK  status: ('A' for Active; 'I' for Inactive)
REMARK    1  A    between atoms: C1_1  and  C2_2
REMARK    2  A    between atoms: C5_5  and  C13_15
REMARK    3  A    between atoms: C8_8  and  O2_14
REMARK    4  A    between atoms: C10_10  and  O1_12
REMARK    5  A    between atoms: O1_12  and  C12_13
REMARK    6  A    between atoms: C16_18  and  O3_29
REMARK    7  A    between atoms: C20_22  and  C23_28
REMARK    8  A    between atoms: C21_25  and  C22_27
REMARK                            x       y       z     vdW  Elec       q    Type
REMARK                         _______ _______ _______ _____ _____    ______ ____
ROOT
ATOM      6  C   UNL     1      -0.007  -2.341  -4.198  0.00  0.00    -0.023 A 
ATOM      7  C   UNL     1      -0.979  -2.455  -5.191  0.00  0.00    +0.079 A 
ATOM      8  C   UNL     1      -0.883  -1.688  -6.333  0.00  0.00    +0.013 A 
ATOM      9  C   UNL     1       0.178  -0.810  -6.491  0.00  0.00    +0.140 A 
ATOM     12  C   UNL     1       1.152  -0.692  -5.502  0.00  0.00    -0.151 A 
ATOM     13  C   UNL     1       2.287   0.273  -5.723  0.00  0.00    +0.238 C 
ATOM     14  C   UNL     1       1.742   1.559  -6.348  0.00  0.00    +0.093 C 
ATOM     15  N   UNL     1       2.933   0.607  -4.446  0.00  0.00    -0.504 N 
ATOM     16  H   UNL     1       3.749   1.175  -4.620  0.00  0.00    +0.431 HD
ATOM     17  H   UNL     1       2.289   1.111  -3.854  0.00  0.00    +0.428 HD
ATOM     18  C   UNL     1       3.336  -0.642  -3.782  0.00  0.00    +0.177 C 
ATOM     19  C   UNL     1       4.050  -1.553  -4.783  0.00  0.00    +0.088 C 
ATOM     20  C   UNL     1       2.081  -1.341  -3.256  0.00  0.00    +0.128 C 
ATOM     21  C   UNL     1       1.057  -1.448  -4.357  0.00  0.00    -0.058 A 
ENDROOT
BRANCH   6   5
ATOM      1  C   UNL     1      -0.760   0.917  -0.275  0.00  0.00    +0.094 C 
ATOM      2  C   UNL     1      -0.635  -0.581  -0.382  0.00  0.00    -0.018 A 
ATOM      3  C   UNL     1      -0.434  -1.151  -1.603  0.00  0.00    -0.056 A 
ATOM      4  C   UNL     1      -0.316  -2.544  -1.714  0.00  0.00    +0.025 A 
ATOM      5  C   UNL     1      -0.106  -3.163  -2.970  0.00  0.00    -0.093 A 
ATOM     22  C   UNL     1       0.006  -4.540  -3.043  0.00  0.00    +0.082 A 
ATOM     23  C   UNL     1      -0.086  -5.322  -1.899  0.00  0.00    -0.030 A 
ATOM     24  C   UNL     1      -0.289  -4.747  -0.663  0.00  0.00    +0.169 A 
ATOM     27  C   UNL     1      -0.408  -3.347  -0.552  0.00  0.00    -0.109 A 
ATOM     28  C   UNL     1      -0.616  -2.731   0.698  0.00  0.00    +0.175 A 
ATOM     31  C   UNL     1      -0.722  -1.359   0.767  0.00  0.00    -0.101 A 
BRANCH  24  25
ATOM     25  O   UNL     1      -0.376  -5.527   0.445  0.00  0.00    -0.478 OA
ATOM     26  H   UNL     1       0.473  -5.688   0.879  0.00  0.00    +0.398 HD
ENDBRANCH  24  25
BRANCH  28  29
ATOM     29  O   UNL     1      -0.707  -3.483   1.825  0.00  0.00    -0.292 OA
ATOM     30  C   UNL     1      -0.919  -2.786   3.054  0.00  0.00    +0.249 C 
ENDBRANCH  28  29
ENDBRANCH   6   5
BRANCH   9  10
ATOM     10  O   UNL     1       0.268  -0.057  -7.619  0.00  0.00    -0.492 OA
ATOM     11  H   UNL     1      -0.249   0.760  -7.589  0.00  0.00    +0.400 HD
ENDBRANCH   9  10
TORSDOF 4
