REMARK  Name = ZINC95486055
REMARK  12 active torsions:
REMARK  status: ('A' for Active; 'I' for Inactive)
REMARK    1  A    between atoms: C1_1  and  C2_2
REMARK    2  A    between atoms: C2_2  and  C24_27
REMARK    3  A    between atoms: C3_3  and  C4_4
REMARK    4  A    between atoms: C4_4  and  C5_5
REMARK    5  A    between atoms: C5_5  and  C23_26
REMARK    6  A    between atoms: C6_6  and  C7_7
REMARK    7  A    between atoms: C7_7  and  O1_8
REMARK    8  A    between atoms: O1_8  and  C8_9
REMARK    9  A    between atoms: C11_12  and  C14_15
REMARK   10  A    between atoms: C14_15  and  C15_17
REMARK   11  A    between atoms: C16_18  and  C17_19
REMARK   12  A    between atoms: C20_22  and  O3_25
REMARK                            x       y       z     vdW  Elec       q    Type
REMARK                         _______ _______ _______ _____ _____    ______ ____
ROOT
ATOM     11  C   UNL     1       2.629  -2.565   5.814  0.00  0.00    +0.164 A 
ATOM     12  C   UNL     1       3.520  -2.660   4.752  0.00  0.00    -0.090 A 
ATOM     13  C   UNL     1       4.825  -3.037   4.978  0.00  0.00    +0.118 A 
ATOM     14  C   UNL     1       5.253  -3.324   6.277  0.00  0.00    -0.203 A 
ATOM     27  C   UNL     1       4.353  -3.227   7.343  0.00  0.00    +0.105 A 
ATOM     28  C   UNL     1       3.051  -2.844   7.109  0.00  0.00    -0.027 A 
ENDROOT
BRANCH  14  15
ATOM     15  C   UNL     1       6.652  -3.728   6.524  0.00  0.00    +0.429 C 
ATOM     26  O   UNL     1       7.434  -3.813   5.595  0.00  0.00    -0.468 OA
BRANCH  15  16
ATOM     16  C   UNL     1       7.084  -4.019   7.844  0.00  0.00    -0.111 C 
ATOM     17  C   UNL     1       8.364  -4.390   8.069  0.00  0.00    +0.140 C 
BRANCH  17  18
ATOM     18  C   UNL     1       8.812  -4.691   9.436  0.00  0.00    -0.096 A 
ATOM     19  C   UNL     1       7.912  -4.601  10.506  0.00  0.00    +0.055 A 
ATOM     20  C   UNL     1       8.337  -4.884  11.784  0.00  0.00    -0.015 A 
ATOM     21  C   UNL     1       9.656  -5.259  12.014  0.00  0.00    +0.123 A 
ATOM     24  C   UNL     1      10.553  -5.350  10.956  0.00  0.00    -0.015 A 
ATOM     25  C   UNL     1      10.137  -5.075   9.673  0.00  0.00    +0.062 A 
BRANCH  21  22
ATOM     22  O   UNL     1      10.069  -5.538  13.277  0.00  0.00    -0.498 OA
ATOM     23  H   UNL     1       9.968  -6.466  13.528  0.00  0.00    +0.395 HD
ENDBRANCH  21  22
ENDBRANCH  17  18
ENDBRANCH  15  16
ENDBRANCH  14  15
BRANCH  11  10
ATOM     10  O   UNL     1       1.343  -2.194   5.588  0.00  0.00    -0.306 OA
BRANCH  10   9
ATOM      9  C   UNL     1       0.976  -1.922   4.234  0.00  0.00    +0.234 C 
BRANCH   9   8
ATOM      6  C   UNL     1      -0.846  -0.483   3.479  0.00  0.00    -0.089 C 
ATOM      7  C   UNL     1      -2.281  -0.024   3.509  0.00  0.00    +0.087 C 
ATOM      8  C   UNL     1      -0.478  -1.528   4.177  0.00  0.00    -0.051 C 
BRANCH   6   5
ATOM      5  C   UNL     1       0.165   0.261   2.644  0.00  0.00    +0.091 C 
BRANCH   5   4
ATOM      1  C   UNL     1      -0.131   1.997   0.443  0.00  0.00    +0.074 C 
ATOM      2  C   UNL     1      -0.032   0.510   0.224  0.00  0.00    -0.123 C 
ATOM      3  C   UNL     1      -0.158  -0.057  -1.167  0.00  0.00    +0.075 C 
ATOM      4  C   UNL     1       0.162  -0.291   1.242  0.00  0.00    -0.058 C 
ENDBRANCH   5   4
ENDBRANCH   6   5
ENDBRANCH   9   8
ENDBRANCH  10   9
ENDBRANCH  11  10
TORSDOF 9
