REMARK  Name = ZINC95485905
REMARK  6 active torsions:
REMARK  status: ('A' for Active; 'I' for Inactive)
REMARK    1  A    between atoms: C1_1  and  C2_2
REMARK    2  A    between atoms: C9_11  and  C28_36
REMARK    3  A    between atoms: C14_17  and  C24_30
REMARK    4  A    between atoms: C18_22  and  C23_29
REMARK    5  A    between atoms: C21_25  and  O1_28
REMARK    6  A    between atoms: C26_33  and  C27_35
REMARK                            x       y       z     vdW  Elec       q    Type
REMARK                         _______ _______ _______ _____ _____    ______ ____
ROOT
ATOM      1  C   UNL     1       0.844   1.695  -0.950  0.00  0.00    +0.011 C 
ATOM      2  C   UNL     1       0.712   0.172  -0.883  0.00  0.00    -0.014 C 
ATOM      3  C   UNL     1      -0.721  -0.209  -1.156  0.00  0.00    +0.045 C 
ATOM      4  C   UNL     1      -1.625  -0.005   0.055  0.00  0.00    -0.037 C 
ATOM      5  C   UNL     1      -1.723  -1.232   0.979  0.00  0.00    +0.001 C 
ATOM      6  C   UNL     1      -1.045   0.059   1.451  0.00  0.00    -0.089 C 
ATOM      7  C   UNL     1      -1.790   0.818   2.560  0.00  0.00    +0.043 C 
ATOM      8  C   UNL     1      -0.975   0.782   3.855  0.00  0.00    +0.021 C 
ATOM      9  C   UNL     1      -0.233  -0.536   4.026  0.00  0.00    -0.001 C 
ATOM     10  C   UNL     1      -1.263  -1.672   3.942  0.00  0.00    +0.022 C 
ATOM     11  C   UNL     1       0.752  -0.728   2.901  0.00  0.00    -0.083 C 
ATOM     12  C   UNL     1       1.826  -1.462   3.007  0.00  0.00    -0.059 C 
ATOM     13  C   UNL     1       2.159  -2.060   4.370  0.00  0.00    +0.058 C 
ATOM     14  C   UNL     1       1.865  -0.913   5.343  0.00  0.00    +0.005 C 
ATOM     15  C   UNL     1       2.599  -1.001   6.657  0.00  0.00    -0.032 C 
ATOM     16  C   UNL     1       2.332  -2.329   7.386  0.00  0.00    +0.021 C 
ATOM     17  C   UNL     1       4.118  -0.968   6.412  0.00  0.00    +0.018 C 
ATOM     18  C   UNL     1       4.566   0.379   5.857  0.00  0.00    -0.017 C 
ATOM     19  C   UNL     1       4.213   1.474   6.868  0.00  0.00    +0.157 C 
ATOM     22  C   UNL     1       2.693   1.498   7.025  0.00  0.00    +0.030 C 
ATOM     23  C   UNL     1       2.198   0.158   7.571  0.00  0.00    -0.001 C 
ATOM     24  C   UNL     1       0.676   0.242   7.711  0.00  0.00    +0.011 C 
ATOM     25  C   UNL     1       0.031   0.471   6.341  0.00  0.00    +0.022 C 
ATOM     26  C   UNL     1       0.374  -0.682   5.413  0.00  0.00    -0.030 C 
ATOM     27  C   UNL     1      -0.337  -1.919   5.974  0.00  0.00    +0.010 C 
ATOM     28  C   UNL     1       0.467   0.068   1.643  0.00  0.00    +0.066 C 
ATOM     29  C   UNL     1       1.269  -0.314   0.440  0.00  0.00    -0.001 C 
ATOM     30  C   UNL     1       2.672   0.312   0.570  0.00  0.00    +0.014 C 
ENDROOT
BRANCH  19  20
ATOM     20  O   UNL     1       4.669   2.738   6.385  0.00  0.00    -0.568 OA
ATOM     21  H   UNL     1       5.624   2.782   6.240  0.00  0.00    +0.377 HD
ENDBRANCH  19  20
TORSDOF 1
