REMARK  Name = ZINC95486204
REMARK  8 active torsions:
REMARK  status: ('A' for Active; 'I' for Inactive)
REMARK    1  A    between atoms: C1_1  and  C2_2
REMARK    2  A    between atoms: C5_5  and  C13_15
REMARK    3  A    between atoms: C8_8  and  O2_14
REMARK    4  A    between atoms: C10_10  and  O1_12
REMARK    5  A    between atoms: O1_12  and  C12_13
REMARK    6  A    between atoms: C19_21  and  C23_27
REMARK    7  A    between atoms: C19_21  and  O3_28
REMARK    8  A    between atoms: C20_23  and  C22_26
REMARK                            x       y       z     vdW  Elec       q    Type
REMARK                         _______ _______ _______ _____ _____    ______ ____
ROOT
ATOM      1  C   UNL     1      -0.018   1.503   0.010  0.00  0.00    +0.094 C 
ATOM      2  C   UNL     1       0.002  -0.004   0.002  0.00  0.00    -0.032 A 
ATOM      3  C   UNL     1       0.005  -0.668  -1.188  0.00  0.00    -0.026 A 
ATOM      4  C   UNL     1       0.025  -2.071  -1.207  0.00  0.00    +0.017 A 
ATOM      5  C   UNL     1       0.029  -2.785  -2.429  0.00  0.00    -0.059 A 
ATOM     21  C   UNL     1       0.049  -4.169  -2.411  0.00  0.00    +0.060 A 
ATOM     22  C   UNL     1       0.064  -4.864  -1.208  0.00  0.00    -0.027 A 
ATOM     23  C   UNL     1       0.060  -4.194  -0.004  0.00  0.00    +0.148 A 
ATOM     26  C   UNL     1       0.041  -2.785   0.015  0.00  0.00    -0.102 A 
ATOM     27  C   UNL     1       0.036  -2.073   1.231  0.00  0.00    +0.159 A 
ATOM     30  C   UNL     1       0.023  -0.696   1.209  0.00  0.00    -0.097 A 
ENDROOT
BRANCH   5   6
ATOM      6  C   UNL     1       0.013  -2.057  -3.718  0.00  0.00    -0.047 A 
ATOM      7  C   UNL     1      -0.923  -1.047  -3.942  0.00  0.00    +0.031 A 
ATOM      8  C   UNL     1      -0.927  -0.374  -5.144  0.00  0.00    +0.005 A 
ATOM      9  C   UNL     1      -0.009  -0.696  -6.135  0.00  0.00    -0.068 A 
ATOM     10  C   UNL     1       0.916  -1.696  -5.922  0.00  0.00    -0.105 A 
ATOM     11  C   UNL     1       1.922  -2.086  -6.974  0.00  0.00    +0.336 C 
ATOM     14  C   UNL     1       1.472  -3.384  -7.647  0.00  0.00    +0.042 C 
ATOM     15  N   UNL     1       2.042  -1.032  -7.986  0.00  0.00    -0.692 NA
ATOM     16  H   UNL     1       2.508  -0.220  -7.609  0.00  0.00    +0.348 HD
ATOM     17  C   UNL     1       0.714  -0.680  -8.514  0.00  0.00    +0.173 C 
ATOM     18  C   UNL     1       0.872   0.207  -9.751  0.00  0.00    +0.043 C 
ATOM     19  C   UNL     1      -0.055   0.075  -7.430  0.00  0.00    +0.048 C 
ATOM     20  C   UNL     1       0.935  -2.373  -4.713  0.00  0.00    +0.059 A 
BRANCH  11  12
ATOM     12  O   UNL     1       3.194  -2.293  -6.356  0.00  0.00    -0.553 OA
ATOM     13  H   UNL     1       3.894  -2.547  -6.973  0.00  0.00    +0.386 HD
ENDBRANCH  11  12
ENDBRANCH   5   6
BRANCH  23  24
ATOM     24  O   UNL     1       0.074  -4.889   1.162  0.00  0.00    -0.481 OA
ATOM     25  H   UNL     1       0.961  -5.079   1.496  0.00  0.00    +0.392 HD
ENDBRANCH  23  24
BRANCH  27  28
ATOM     28  O   UNL     1       0.051  -2.739   2.414  0.00  0.00    -0.295 OA
ATOM     29  C   UNL     1       0.046  -1.948   3.604  0.00  0.00    +0.240 C 
ENDBRANCH  27  28
TORSDOF 4
