REMARK  Name = ZINC95486164
REMARK  10 active torsions:
REMARK  status: ('A' for Active; 'I' for Inactive)
REMARK    1  A    between atoms: C1_1  and  C2_2
REMARK    2  A    between atoms: C4_4  and  O4_30
REMARK    3  A    between atoms: C7_7  and  C8_8
REMARK    4  A    between atoms: C9_9  and  O2_24
REMARK    5  A    between atoms: C11_11  and  O1_23
REMARK    6  A    between atoms: C15_15  and  C19_22
REMARK    7  A    between atoms: N1_17  and  C18_21
REMARK    8  A    between atoms: C16_18  and  C17_20
REMARK    9  A    between atoms: C23_28  and  O3_29
REMARK   10  A    between atoms: O4_30  and  C24_31
REMARK                            x       y       z     vdW  Elec       q    Type
REMARK                         _______ _______ _______ _____ _____    ______ ____
ROOT
ATOM     16  C   UNL     1       0.263  -0.209   2.975  0.00  0.00    -0.045 A 
ATOM     17  C   UNL     1       1.384   0.114   3.746  0.00  0.00    +0.168 A 
ATOM     20  C   UNL     1       1.225   0.843   4.911  0.00  0.00    -0.016 A 
ATOM     21  C   UNL     1      -0.040   1.247   5.307  0.00  0.00    +0.158 A 
ATOM     24  C   UNL     1      -1.159   0.926   4.542  0.00  0.00    -0.163 A 
ATOM     25  C   UNL     1      -2.511   1.386   5.020  0.00  0.00    +0.239 C 
ATOM     26  C   UNL     1      -2.397   2.812   5.561  0.00  0.00    +0.092 C 
ATOM     27  N   UNL     1      -3.479   1.376   3.914  0.00  0.00    -0.383 N 
ATOM     28  H   UNL     1      -3.216   2.059   3.220  0.00  0.00    +0.423 HD
ATOM     29  C   UNL     1      -4.817   1.689   4.433  0.00  0.00    +0.324 C 
ATOM     30  C   UNL     1      -3.486   0.036   3.308  0.00  0.00    +0.169 C 
ATOM     31  C   UNL     1      -4.688  -0.102   2.371  0.00  0.00    +0.094 C 
ATOM     32  C   UNL     1      -2.192  -0.147   2.514  0.00  0.00    +0.133 C 
ATOM     33  C   UNL     1      -1.009   0.208   3.377  0.00  0.00    -0.045 A 
ENDROOT
BRANCH  16  15
ATOM      1  C   UNL     1       0.706   1.164   0.489  0.00  0.00    +0.093 C 
ATOM      2  C   UNL     1       0.638  -0.341   0.523  0.00  0.00    -0.009 A 
ATOM      3  C   UNL     1       0.796  -1.062  -0.654  0.00  0.00    -0.102 A 
ATOM      4  C   UNL     1       0.739  -2.439  -0.654  0.00  0.00    +0.181 A 
ATOM      7  C   UNL     1       0.517  -3.131   0.553  0.00  0.00    -0.106 A 
ATOM      8  C   UNL     1       0.355  -2.403   1.756  0.00  0.00    +0.027 A 
ATOM      9  C   UNL     1       0.135  -3.093   2.957  0.00  0.00    -0.014 A 
ATOM     10  C   UNL     1       0.079  -4.454   2.960  0.00  0.00    +0.059 A 
ATOM     11  C   UNL     1       0.237  -5.180   1.784  0.00  0.00    -0.027 A 
ATOM     12  C   UNL     1       0.454  -4.538   0.584  0.00  0.00    +0.154 A 
ATOM     15  C   UNL     1       0.424  -0.989   1.727  0.00  0.00    -0.107 A 
BRANCH   4   5
ATOM      5  O   UNL     1       0.895  -3.127  -1.814  0.00  0.00    -0.291 OA
ATOM      6  C   UNL     1       1.117  -2.358  -2.999  0.00  0.00    +0.248 C 
ENDBRANCH   4   5
BRANCH  12  13
ATOM     13  O   UNL     1       0.607  -5.256  -0.559  0.00  0.00    -0.480 OA
ATOM     14  H   UNL     1       1.523  -5.499  -0.751  0.00  0.00    +0.397 HD
ENDBRANCH  12  13
ENDBRANCH  16  15
BRANCH  17  18
ATOM     18  O   UNL     1       2.621  -0.287   3.354  0.00  0.00    -0.480 OA
ATOM     19  H   UNL     1       3.078   0.347   2.784  0.00  0.00    +0.401 HD
ENDBRANCH  17  18
BRANCH  21  22
ATOM     22  O   UNL     1      -0.190   1.962   6.453  0.00  0.00    -0.489 OA
ATOM     23  H   UNL     1      -0.050   2.913   6.344  0.00  0.00    +0.401 HD
ENDBRANCH  21  22
TORSDOF 5
