REMARK  Name = ZINC05158952
REMARK  9 active torsions:
REMARK  status: ('A' for Active; 'I' for Inactive)
REMARK    1  A    between atoms: C1_1  and  C2_2
REMARK    2  A    between atoms: C2_2  and  C20_27
REMARK    3  A    between atoms: C3_3  and  C4_4
REMARK    4  A    between atoms: C4_4  and  C5_5
REMARK    5  A    between atoms: C6_6  and  O6_26
REMARK    6  A    between atoms: C10_10  and  O1_11
REMARK    7  A    between atoms: C12_14  and  C14_18
REMARK    8  A    between atoms: C17_21  and  O5_25
REMARK    9  A    between atoms: C19_23  and  O4_24
REMARK                            x       y       z     vdW  Elec       q    Type
REMARK                         _______ _______ _______ _____ _____    ______ ____
ROOT
ATOM      6  C   UNL     1       2.701  -0.874   0.474  0.00  0.00    -0.171 A 
ATOM      7  C   UNL     1       1.627  -1.756   0.471  0.00  0.00    +0.196 A 
ATOM     10  C   UNL     1       0.358  -1.329   0.838  0.00  0.00    -0.048 A 
ATOM     11  C   UNL     1       0.147  -0.013   1.211  0.00  0.00    +0.199 A 
ATOM     12  C   UNL     1       1.230   0.885   1.208  0.00  0.00    -0.285 A 
ATOM     13  C   UNL     1       0.998   2.283   1.588  0.00  0.00    +0.411 C 
ATOM     14  C   UNL     1      -0.339   2.599   2.234  0.00  0.00    +0.003 C 
ATOM     25  C   UNL     1      -1.407   1.785   1.488  0.00  0.00    +0.281 C 
ATOM     26  O   UNL     1       1.832   3.143   1.395  0.00  0.00    -0.421 OA
ATOM     27  O   UNL     1      -1.090   0.396   1.578  0.00  0.00    -0.299 OA
ATOM     28  C   UNL     1       2.512   0.446   0.841  0.00  0.00    +0.225 A 
ENDROOT
BRANCH  14  15
ATOM     15  C   UNL     1      -0.313   2.201   3.687  0.00  0.00    -0.122 A 
ATOM     16  C   UNL     1      -0.087   0.884   4.039  0.00  0.00    +0.066 A 
ATOM     17  C   UNL     1      -0.058   0.518   5.371  0.00  0.00    -0.016 A 
ATOM     18  C   UNL     1      -0.266   1.471   6.359  0.00  0.00    +0.132 A 
ATOM     21  C   UNL     1      -0.498   2.792   6.008  0.00  0.00    -0.033 A 
ATOM     22  C   UNL     1      -0.522   3.158   4.671  0.00  0.00    +0.140 A 
BRANCH  18  19
ATOM     19  O   UNL     1      -0.242   1.109   7.668  0.00  0.00    -0.495 OA
ATOM     20  H   UNL     1      -1.104   0.844   8.019  0.00  0.00    +0.395 HD
ENDBRANCH  18  19
BRANCH  22  23
ATOM     23  O   UNL     1      -0.749   4.452   4.324  0.00  0.00    -0.490 OA
ATOM     24  H   UNL     1      -1.683   4.666   4.195  0.00  0.00    +0.393 HD
ENDBRANCH  22  23
ENDBRANCH  14  15
BRANCH   7   8
ATOM      8  O   UNL     1       1.821  -3.049   0.106  0.00  0.00    -0.485 OA
ATOM      9  H   UNL     1       1.706  -3.211  -0.840  0.00  0.00    +0.400 HD
ENDBRANCH   7   8
BRANCH  28  29
ATOM     29  O   UNL     1       3.558   1.309   0.847  0.00  0.00    -0.473 OA
ATOM     30  H   UNL     1       3.693   1.770   0.008  0.00  0.00    +0.400 HD
ENDBRANCH  28  29
BRANCH   6   5
ATOM      5  C   UNL     1       4.072  -1.357   0.077  0.00  0.00    +0.134 C 
BRANCH   5   4
ATOM      1  C   UNL     1       6.230   0.169  -0.910  0.00  0.00    +0.076 C 
ATOM      2  C   UNL     1       5.294  -0.524  -1.866  0.00  0.00    -0.123 C 
ATOM      3  C   UNL     1       5.552  -0.463  -3.350  0.00  0.00    +0.074 C 
ATOM      4  C   UNL     1       4.256  -1.180  -1.408  0.00  0.00    -0.063 C 
ENDBRANCH   5   4
ENDBRANCH   6   5
TORSDOF 7
