REMARK  Name = ZINC14642669
REMARK  13 active torsions:
REMARK  status: ('A' for Active; 'I' for Inactive)
REMARK    1  A    between atoms: C1_1  and  O1_2
REMARK    2  A    between atoms: O1_2  and  C2_3
REMARK    3  A    between atoms: C4_5  and  C9_12
REMARK    4  A    between atoms: C6_7  and  O3_10
REMARK    5  A    between atoms: C7_8  and  O2_9
REMARK    6  A    between atoms: O3_10  and  C8_11
REMARK    7  A    between atoms: C9_12  and  O5_14
REMARK    8  A    between atoms: O5_14  and  C10_15
REMARK    9  A    between atoms: C13_19  and  O10_36
REMARK   10  A    between atoms: C15_21  and  O9_35
REMARK   11  A    between atoms: C18_25  and  C19_27
REMARK   12  A    between atoms: C22_30  and  O8_34
REMARK   13  A    between atoms: C23_31  and  O7_33
REMARK                            x       y       z     vdW  Elec       q    Type
REMARK                         _______ _______ _______ _____ _____    ______ ____
ROOT
ATOM      8  C   UNL     1       1.416   2.039  -0.001  0.00  0.00    +0.174 C 
ATOM      9  C   UNL     1      -0.018   1.504   0.010  0.00  0.00    +0.109 C 
ATOM     10  C   UNL     1       0.002  -0.004   0.002  0.00  0.00    -0.194 A 
ATOM     11  C   UNL     1      -1.146  -0.690   0.383  0.00  0.00    +0.162 A 
ATOM     14  C   UNL     1      -1.164  -2.075   0.384  0.00  0.00    -0.062 A 
ATOM     15  C   UNL     1      -0.032  -2.781   0.004  0.00  0.00    +0.159 A 
ATOM     18  C   UNL     1       1.112  -2.099  -0.375  0.00  0.00    -0.040 A 
ATOM     19  C   UNL     1       1.132  -0.708  -0.374  0.00  0.00    +0.171 A 
ATOM     20  O   UNL     1       2.278  -0.077  -0.743  0.00  0.00    -0.291 OA
ATOM     21  C   UNL     1       2.196   1.304  -1.098  0.00  0.00    +0.255 C 
ENDROOT
BRANCH  21  22
ATOM     22  C   UNL     1       3.583   1.882  -1.209  0.00  0.00    -0.090 A 
ATOM     23  C   UNL     1       4.582   1.448  -0.358  0.00  0.00    +0.068 A 
ATOM     24  C   UNL     1       5.857   1.972  -0.459  0.00  0.00    +0.005 A 
ATOM     25  C   UNL     1       6.133   2.943  -1.408  0.00  0.00    +0.094 A 
ATOM     28  C   UNL     1       5.127   3.384  -2.262  0.00  0.00    +0.081 A 
ATOM     31  C   UNL     1       3.852   2.850  -2.159  0.00  0.00    +0.023 A 
BRANCH  25  26
ATOM     26  O   UNL     1       7.386   3.463  -1.506  0.00  0.00    -0.487 OA
ATOM     27  H   UNL     1       7.532   4.244  -0.954  0.00  0.00    +0.391 HD
ENDBRANCH  25  26
BRANCH  28  29
ATOM     29  O   UNL     1       5.393   4.337  -3.195  0.00  0.00    -0.485 OA
ATOM     30  H   UNL     1       5.254   5.242  -2.884  0.00  0.00    +0.389 HD
ENDBRANCH  28  29
ENDBRANCH  21  22
BRANCH  11  12
ATOM     12  O   UNL     1      -2.255   0.002   0.755  0.00  0.00    -0.491 OA
ATOM     13  H   UNL     1      -2.856   0.205   0.025  0.00  0.00    +0.395 HD
ENDBRANCH  11  12
BRANCH  15  16
ATOM     16  O   UNL     1      -0.047  -4.140   0.002  0.00  0.00    -0.492 OA
ATOM     17  H   UNL     1      -0.330  -4.529  -0.836  0.00  0.00    +0.397 HD
ENDBRANCH  15  16
BRANCH   8   7
ATOM      7  O   UNL     1       2.038   1.797   1.289  0.00  0.00    -0.327 OA
BRANCH   7   6
ATOM      6  C   UNL     1       1.906   2.759   2.222  0.00  0.00    +0.514 C 
ATOM     32  O   UNL     1       1.288   3.773   1.966  0.00  0.00    -0.497 OA
BRANCH   6   5
ATOM      3  C   UNL     1       2.945   3.410   5.773  0.00  0.00    +0.132 A 
ATOM      4  C   UNL     1       2.376   3.579   4.524  0.00  0.00    -0.016 A 
ATOM      5  C   UNL     1       2.512   2.582   3.555  0.00  0.00    -0.057 A 
ATOM     33  C   UNL     1       3.219   1.414   3.853  0.00  0.00    -0.021 A 
ATOM     34  C   UNL     1       3.791   1.252   5.101  0.00  0.00    +0.131 A 
ATOM     37  C   UNL     1       3.654   2.248   6.065  0.00  0.00    +0.080 A 
BRANCH   3   2
ATOM      1  C   UNL     1       2.074   5.547   6.349  0.00  0.00    +0.249 C 
ATOM      2  O   UNL     1       2.813   4.381   6.716  0.00  0.00    -0.298 OA
ENDBRANCH   3   2
BRANCH  34  35
ATOM     35  O   UNL     1       4.484   0.118   5.389  0.00  0.00    -0.298 OA
ATOM     36  C   UNL     1       4.585  -0.862   4.354  0.00  0.00    +0.249 C 
ENDBRANCH  34  35
BRANCH  37  38
ATOM     38  O   UNL     1       4.212   2.085   7.293  0.00  0.00    -0.469 OA
ATOM     39  H   UNL     1       3.631   1.656   7.935  0.00  0.00    +0.390 HD
ENDBRANCH  37  38
ENDBRANCH   6   5
ENDBRANCH   7   6
ENDBRANCH   8   7
TORSDOF 11
