REMARK  Name = ZINC95486172
REMARK  14 active torsions:
REMARK  status: ('A' for Active; 'I' for Inactive)
REMARK    1  A    between atoms: C1_1  and  C2_2
REMARK    2  A    between atoms: C2_2  and  C4_4
REMARK    3  A    between atoms: C7_8  and  C33_42
REMARK    4  A    between atoms: C8_9  and  C32_41
REMARK    5  A    between atoms: C11_12  and  C31_40
REMARK    6  A    between atoms: C12_13  and  C30_39
REMARK    7  A    between atoms: C16_18  and  C29_38
REMARK    8  A    between atoms: C18_20  and  O5_37
REMARK    9  A    between atoms: C19_22  and  C28_36
REMARK   10  A    between atoms: C20_23  and  C27_34
REMARK   11  A    between atoms: C23_26  and  O3_33
REMARK   12  A    between atoms: C24_28  and  C25_29
REMARK   13  A    between atoms: C24_28  and  C26_30
REMARK   14  A    between atoms: C27_34  and  O4_35
REMARK                            x       y       z     vdW  Elec       q    Type
REMARK                         _______ _______ _______ _____ _____    ______ ____
ROOT
ATOM      3  C   UNL     1      -0.982   2.520  -3.582  0.00  0.00    +0.014 C 
ATOM      4  C   UNL     1      -0.983   3.697  -4.589  0.00  0.00    +0.001 C 
ATOM      5  C   UNL     1       0.421   3.661  -5.281  0.00  0.00    +0.011 C 
ATOM      6  C   UNL     1       1.286   3.138  -4.105  0.00  0.00    -0.026 C 
ATOM      7  C   UNL     1       1.216   4.283  -3.072  0.00  0.00    +0.016 C 
ATOM      8  C   UNL     1       2.720   2.773  -4.402  0.00  0.00    -0.005 C 
ATOM      9  C   UNL     1       2.742   2.128  -5.805  0.00  0.00    +0.006 C 
ATOM     10  C   UNL     1       3.613   4.018  -4.564  0.00  0.00    -0.004 C 
ATOM     11  C   UNL     1       5.024   3.563  -4.971  0.00  0.00    +0.022 C 
ATOM     12  C   UNL     1       5.614   2.684  -3.873  0.00  0.00    +0.026 C 
ATOM     13  C   UNL     1       4.769   1.454  -3.595  0.00  0.00    -0.003 C 
ATOM     14  C   UNL     1       4.785   0.408  -4.714  0.00  0.00    +0.007 C 
ATOM     15  C   UNL     1       5.356   0.725  -2.376  0.00  0.00    -0.001 C 
ATOM     16  C   UNL     1       6.848   0.471  -2.504  0.00  0.00    +0.175 C 
ATOM     19  C   UNL     1       7.701   1.682  -2.883  0.00  0.00    +0.015 C 
ATOM     20  C   UNL     1       9.037   1.074  -3.419  0.00  0.00    +0.003 C 
ATOM     21  C   UNL     1       8.081   2.493  -1.659  0.00  0.00    -0.113 C 
ATOM     25  C   UNL     1       9.177   1.707  -0.894  0.00  0.00    +0.012 C 
ATOM     26  C   UNL     1       8.687   3.859  -1.982  0.00  0.00    +0.167 C 
ATOM     29  C   UNL     1       7.799   4.603  -2.979  0.00  0.00    -0.005 C 
ATOM     30  C   UNL     1       7.804   3.794  -4.270  0.00  0.00    +0.005 C 
ATOM     31  C   UNL     1       7.100   2.442  -4.056  0.00  0.00    -0.007 C 
ATOM     35  C   UNL     1       3.325   1.896  -3.307  0.00  0.00    -0.021 C 
ATOM     36  C   UNL     1       3.420   2.710  -1.989  0.00  0.00    +0.020 C 
ATOM     37  C   UNL     1       2.433   0.708  -2.955  0.00  0.00    +0.008 C 
ATOM     38  C   UNL     1       1.031   1.199  -2.528  0.00  0.00    +0.021 C 
ATOM     39  C   UNL     1       0.425   1.924  -3.700  0.00  0.00    -0.032 C 
ATOM     40  C   UNL     1       0.258   0.881  -4.831  0.00  0.00    +0.013 C 
ENDROOT
BRANCH   3   2
ATOM      1  C   UNL     1      -1.694   1.845  -1.179  0.00  0.00    +0.067 C 
ATOM      2  C   UNL     1      -1.379   2.908  -2.200  0.00  0.00    -0.102 C 
ATOM     41  C   UNL     1      -1.455   4.174  -1.871  0.00  0.00    -0.010 C 
ENDBRANCH   3   2
BRANCH  21  22
ATOM     22  C   UNL     1       6.940   2.701  -0.699  0.00  0.00    +0.530 C 
ATOM     23  O   UNL     1       6.246   3.699  -0.785  0.00  0.00    -0.672 OA
ATOM     24  O   UNL     1       6.711   1.871   0.164  0.00  0.00    -0.706 OA
ENDBRANCH  21  22
BRANCH  16  17
ATOM     17  O   UNL     1       7.111  -0.613  -3.401  0.00  0.00    -0.570 OA
ATOM     18  H   UNL     1       6.716  -1.453  -3.130  0.00  0.00    +0.365 HD
ENDBRANCH  16  17
BRANCH  26  27
ATOM     27  O   UNL     1       8.791   4.626  -0.778  0.00  0.00    -0.547 OA
ATOM     28  H   UNL     1       9.174   5.505  -0.904  0.00  0.00    +0.356 HD
ENDBRANCH  26  27
BRANCH  31  32
ATOM     32  C   UNL     1       7.406   1.664  -5.353  0.00  0.00    +0.171 C 
BRANCH  32  33
ATOM     33  O   UNL     1       6.843   2.356  -6.469  0.00  0.00    -0.565 OA
ATOM     34  H   UNL     1       6.997   1.923  -7.319  0.00  0.00    +0.360 HD
ENDBRANCH  32  33
ENDBRANCH  31  32
TORSDOF 6
