REMARK  Name = ZINC95486349
REMARK  14 active torsions:
REMARK  status: ('A' for Active; 'I' for Inactive)
REMARK    1  A    between atoms: C1_1  and  C2_2
REMARK    2  A    between atoms: C2_2  and  C3_4
REMARK    3  A    between atoms: C2_2  and  C10_14
REMARK    4  A    between atoms: C3_4  and  C4_5
REMARK    5  A    between atoms: C4_5  and  C5_6
REMARK    6  A    between atoms: C5_6  and  C6_7
REMARK    7  A    between atoms: C5_6  and  C7_9
REMARK    8  A    between atoms: C5_6  and  O2_12
REMARK    9  A    between atoms: C7_9  and  C8_10
REMARK   10  A    between atoms: C7_9  and  C9_11
REMARK   11  A    between atoms: O2_12  and  O3_13
REMARK   12  A    between atoms: C14_20  and  C28_38
REMARK   13  A    between atoms: C22_30  and  C27_37
REMARK   14  A    between atoms: C25_33  and  O4_36
REMARK                            x       y       z     vdW  Elec       q    Type
REMARK                         _______ _______ _______ _____ _____    ______ ____
ROOT
ATOM      3  C   UNL     1      -0.528  -0.426   2.026  0.00  0.00    -0.002 C 
ATOM      4  C   UNL     1      -1.885  -0.191   1.317  0.00  0.00    +0.007 C 
ATOM      5  C   UNL     1      -2.533  -1.591   1.134  0.00  0.00    +0.010 C 
ATOM      6  C   UNL     1      -1.325  -2.534   1.160  0.00  0.00    -0.006 C 
ATOM      7  C   UNL     1      -1.623  -3.979   1.516  0.00  0.00    +0.009 C 
ATOM      8  C   UNL     1      -2.480  -4.611   0.414  0.00  0.00    +0.058 C 
ATOM      9  C   UNL     1      -2.627  -6.080   0.683  0.00  0.00    -0.061 C 
ATOM     10  C   UNL     1      -1.752  -6.769   1.356  0.00  0.00    -0.092 C 
ATOM     11  C   UNL     1      -0.494  -6.175   1.990  0.00  0.00    -0.009 C 
ATOM     12  C   UNL     1      -0.596  -6.242   3.515  0.00  0.00    +0.024 C 
ATOM     13  C   UNL     1       0.712  -7.020   1.570  0.00  0.00    +0.031 C 
ATOM     14  C   UNL     1       0.471  -8.479   1.962  0.00  0.00    +0.032 C 
ATOM     15  C   UNL     1      -0.743  -9.022   1.207  0.00  0.00    +0.163 C 
ATOM     18  C   UNL     1      -2.006  -8.254   1.557  0.00  0.00    +0.026 C 
ATOM     19  C   UNL     1      -0.277  -4.725   1.592  0.00  0.00    -0.004 C 
ATOM     20  C   UNL     1       0.703  -4.066   2.558  0.00  0.00    +0.011 C 
ATOM     21  C   UNL     1       0.895  -2.574   2.245  0.00  0.00    +0.023 C 
ATOM     22  C   UNL     1      -0.474  -1.924   2.309  0.00  0.00    -0.056 C 
ATOM     23  C   UNL     1      -1.132  -2.222   3.658  0.00  0.00    +0.021 C 
ENDROOT
BRANCH   3   2
ATOM      1  C   UNL     1       0.455  -0.685  -0.256  0.00  0.00    +0.017 C 
ATOM      2  C   UNL     1       0.627  -0.018   1.110  0.00  0.00    -0.009 C 
BRANCH   2  24
ATOM     24  C   UNL     1       0.628   1.503   0.938  0.00  0.00    +0.022 C 
BRANCH  24  25
ATOM     25  C   UNL     1       1.876   1.927   0.161  0.00  0.00    +0.073 C 
BRANCH  25  26
ATOM     26  C   UNL     1       1.833   3.436  -0.088  0.00  0.00    +0.055 C 
BRANCH  26  30
ATOM     30  C   UNL     1       0.634   3.773  -0.977  0.00  0.00    -0.013 C 
ATOM     31  C   UNL     1       0.687   2.922  -2.248  0.00  0.00    +0.027 C 
ATOM     32  C   UNL     1       0.678   5.255  -1.353  0.00  0.00    +0.031 C 
ENDBRANCH  26  30
BRANCH  26  33
ATOM     33  C   UNL     1       3.103   3.869  -0.773  0.00  0.00    +0.441 C 
ATOM     34  O   UNL     1       3.955   3.054  -1.035  0.00  0.00    -0.441 OA
ENDBRANCH  26  33
BRANCH  26  27
ATOM     27  O   UNL     1       1.708   4.121   1.160  0.00  0.00    -0.189 OA
BRANCH  27  28
ATOM     28  O   UNL     1       1.817   5.582   1.053  0.00  0.00    -0.405 OA
ATOM     29  H   UNL     1       1.732   6.046   1.898  0.00  0.00    +0.395 HD
ENDBRANCH  27  28
ENDBRANCH  26  27
ENDBRANCH  25  26
ENDBRANCH  24  25
ENDBRANCH   2  24
ENDBRANCH   3   2
BRANCH  15  16
ATOM     16  O   UNL     1      -0.540  -8.862  -0.199  0.00  0.00    -0.565 OA
ATOM     17  H   UNL     1      -1.272  -9.186  -0.741  0.00  0.00    +0.374 HD
ENDBRANCH  15  16
TORSDOF 9
