REMARK  Name = ZINC85802256
REMARK  12 active torsions:
REMARK  status: ('A' for Active; 'I' for Inactive)
REMARK    1  A    between atoms: C1_1  and  C2_2
REMARK    2  A    between atoms: C2_2  and  C37_46
REMARK    3  A    between atoms: C3_3  and  C4_4
REMARK    4  A    between atoms: C4_4  and  C5_5
REMARK    5  A    between atoms: C8_8  and  C23_26
REMARK    6  A    between atoms: C18_21  and  C21_24
REMARK    7  A    between atoms: C18_21  and  C22_25
REMARK    8  A    between atoms: C26_29  and  O6_35
REMARK    9  A    between atoms: C27_30  and  O5_34
REMARK   10  A    between atoms: C28_31  and  O4_32
REMARK   11  A    between atoms: O4_32  and  C29_33
REMARK   12  A    between atoms: C32_39  and  O9_45
REMARK                            x       y       z     vdW  Elec       q    Type
REMARK                         _______ _______ _______ _____ _____    ______ ____
ROOT
ATOM      6  C   UNL     1      -0.864  -0.562   3.381  0.00  0.00    -0.091 A 
ATOM      7  C   UNL     1      -2.149  -0.064   3.471  0.00  0.00    +0.095 A 
ATOM      8  C   UNL     1      -3.073  -0.631   4.327  0.00  0.00    +0.019 A 
ATOM      9  C   UNL     1      -2.715  -1.724   5.112  0.00  0.00    +0.050 A 
ATOM     33  C   UNL     1      -1.410  -2.238   5.020  0.00  0.00    -0.207 A 
ATOM     34  C   UNL     1      -0.993  -3.403   5.822  0.00  0.00    +0.434 A 
ATOM     35  O   UNL     1      -1.660  -3.822   6.750  0.00  0.00    -0.429 OA
ATOM     36  C   UNL     1       0.280  -4.042   5.416  0.00  0.00    -0.194 A 
ATOM     37  C   UNL     1       0.638  -5.299   5.908  0.00  0.00    +0.095 A 
ATOM     38  C   UNL     1       1.825  -5.870   5.508  0.00  0.00    +0.103 A 
ATOM     39  O   UNL     1       2.206  -7.093   5.962  0.00  0.00    -0.298 OA
ATOM     40  C   UNL     1       2.943  -7.920   5.061  0.00  0.00    +0.141 C 
ATOM     41  C   UNL     1       2.005  -8.435   3.968  0.00  0.00    +0.037 C 
ATOM     42  C   UNL     1       3.524  -9.110   5.828  0.00  0.00    +0.086 C 
ATOM     43  C   UNL     1       4.065  -7.143   4.426  0.00  0.00    -0.021 C 
ATOM     44  C   UNL     1       3.932  -5.836   4.205  0.00  0.00    +0.033 C 
ATOM     45  C   UNL     1       2.667  -5.186   4.612  0.00  0.00    -0.061 A 
ATOM     46  C   UNL     1       2.314  -3.934   4.127  0.00  0.00    +0.051 A 
ATOM     47  C   UNL     1       1.119  -3.349   4.526  0.00  0.00    +0.135 A 
ATOM     48  O   UNL     1       0.782  -2.129   4.059  0.00  0.00    -0.220 OA
ATOM     49  C   UNL     1      -0.477  -1.655   4.149  0.00  0.00    +0.164 A 
ENDROOT
BRANCH   9  10
ATOM     10  C   UNL     1      -3.696  -2.337   6.033  0.00  0.00    -0.087 A 
ATOM     11  C   UNL     1      -3.807  -1.872   7.350  0.00  0.00    +0.210 A 
ATOM     12  C   UNL     1      -4.748  -2.468   8.204  0.00  0.00    -0.244 A 
ATOM     13  C   UNL     1      -4.867  -1.958   9.583  0.00  0.00    +0.442 A 
ATOM     14  C   UNL     1      -4.188  -0.676   9.857  0.00  0.00    -0.256 A 
ATOM     15  C   UNL     1      -4.442   0.039  11.032  0.00  0.00    +0.202 A 
ATOM     18  C   UNL     1      -3.792   1.242  11.251  0.00  0.00    -0.034 A 
ATOM     19  C   UNL     1      -2.898   1.727  10.312  0.00  0.00    +0.110 A 
ATOM     20  C   UNL     1      -2.639   1.026   9.152  0.00  0.00    -0.007 A 
ATOM     21  C   UNL     1      -3.278  -0.185   8.908  0.00  0.00    +0.171 A 
ATOM     22  O   UNL     1      -5.488  -2.558  10.443  0.00  0.00    -0.415 OA
ATOM     23  C   UNL     1      -5.560  -3.517   7.752  0.00  0.00    +0.195 A 
ATOM     26  C   UNL     1      -5.440  -3.968   6.446  0.00  0.00    +0.035 A 
ATOM     29  O   UNL     1      -3.013  -0.871   7.779  0.00  0.00    -0.214 OA
ATOM     30  C   UNL     1      -4.519  -3.378   5.587  0.00  0.00    +0.169 A 
BRANCH  15  16
ATOM     16  O   UNL     1      -5.319  -0.442  11.950  0.00  0.00    -0.480 OA
ATOM     17  H   UNL     1      -4.915  -1.011  12.619  0.00  0.00    +0.404 HD
ENDBRANCH  15  16
BRANCH  23  24
ATOM     24  O   UNL     1      -6.460  -4.091   8.590  0.00  0.00    -0.460 OA
ATOM     25  H   UNL     1      -7.332  -3.674   8.576  0.00  0.00    +0.398 HD
ENDBRANCH  23  24
BRANCH  26  27
ATOM     27  O   UNL     1      -6.229  -4.985   6.002  0.00  0.00    -0.469 OA
ATOM     28  H   UNL     1      -7.066  -4.694   5.616  0.00  0.00    +0.390 HD
ENDBRANCH  26  27
BRANCH  30  31
ATOM     31  O   UNL     1      -4.413  -3.818   4.308  0.00  0.00    -0.320 OA
ATOM     32  C   UNL     1      -3.487  -4.878   4.061  0.00  0.00    +0.243 C 
ENDBRANCH  30  31
ENDBRANCH   9  10
BRANCH   6   5
ATOM      5  C   UNL     1       0.123   0.078   2.439  0.00  0.00    +0.125 C 
BRANCH   5   4
ATOM      1  C   UNL     1      -0.200   1.488   0.018  0.00  0.00    +0.074 C 
ATOM      2  C   UNL     1      -0.087  -0.015   0.009  0.00  0.00    -0.125 C 
ATOM      3  C   UNL     1      -0.212  -0.772  -1.289  0.00  0.00    +0.074 C 
ATOM      4  C   UNL     1       0.121  -0.664   1.128  0.00  0.00    -0.054 C 
ENDBRANCH   5   4
ENDBRANCH   6   5
TORSDOF 7
