REMARK  Name = ZINC95486155
REMARK  11 active torsions:
REMARK  status: ('A' for Active; 'I' for Inactive)
REMARK    1  A    between atoms: C1_1  and  C2_2
REMARK    2  A    between atoms: C6_6  and  O3_28
REMARK    3  A    between atoms: C8_8  and  C22_27
REMARK    4  A    between atoms: C9_9  and  C10_10
REMARK    5  A    between atoms: C11_11  and  O2_26
REMARK    6  A    between atoms: C13_13  and  O1_25
REMARK    7  A    between atoms: C17_17  and  C21_24
REMARK    8  A    between atoms: N1_19  and  C20_23
REMARK    9  A    between atoms: C18_20  and  C19_22
REMARK   10  A    between atoms: C23_29  and  O4_31
REMARK   11  A    between atoms: O4_31  and  C25_32
REMARK                            x       y       z     vdW  Elec       q    Type
REMARK                         _______ _______ _______ _____ _____    ______ ____
ROOT
ATOM     16  C   UNL     1      -0.217  -2.318  -4.207  0.00  0.00    -0.048 A 
ATOM     17  C   UNL     1      -1.343  -2.031  -4.984  0.00  0.00    +0.170 A 
ATOM     20  C   UNL     1      -1.200  -1.305  -6.154  0.00  0.00    -0.016 A 
ATOM     21  C   UNL     1       0.055  -0.870  -6.547  0.00  0.00    +0.159 A 
ATOM     24  C   UNL     1       1.180  -1.155  -5.775  0.00  0.00    -0.162 A 
ATOM     25  C   UNL     1       2.521  -0.661  -6.250  0.00  0.00    +0.236 C 
ATOM     26  C   UNL     1       2.370   0.758  -6.801  0.00  0.00    +0.091 C 
ATOM     27  N   UNL     1       3.483  -0.638  -5.141  0.00  0.00    -0.382 N 
ATOM     28  H   UNL     1       3.199   0.042  -4.452  0.00  0.00    +0.425 HD
ATOM     29  C   UNL     1       4.815  -0.292  -5.656  0.00  0.00    +0.325 C 
ATOM     30  C   UNL     1       3.525  -1.974  -4.526  0.00  0.00    +0.175 C 
ATOM     31  C   UNL     1       3.644  -3.042  -5.615  0.00  0.00    +0.089 C 
ATOM     32  C   UNL     1       2.233  -2.186  -3.736  0.00  0.00    +0.131 C 
ATOM     33  C   UNL     1       1.044  -1.869  -4.607  0.00  0.00    -0.040 A 
ENDROOT
BRANCH  16  15
ATOM      1  C   UNL     1      -1.059   1.086  -0.428  0.00  0.00    +0.094 C 
ATOM      2  C   UNL     1      -0.945  -0.416  -0.478  0.00  0.00    -0.015 A 
ATOM      3  C   UNL     1      -0.712  -1.032  -1.670  0.00  0.00    -0.058 A 
ATOM      4  C   UNL     1      -0.605  -2.429  -1.728  0.00  0.00    +0.030 A 
ATOM      5  C   UNL     1      -0.741  -3.189  -0.541  0.00  0.00    -0.113 A 
ATOM      6  C   UNL     1      -0.982  -2.527   0.678  0.00  0.00    +0.174 A 
ATOM      9  C   UNL     1      -0.634  -4.593  -0.599  0.00  0.00    +0.172 A 
ATOM     12  C   UNL     1      -0.399  -5.214  -1.806  0.00  0.00    -0.033 A 
ATOM     13  C   UNL     1      -0.264  -4.475  -2.974  0.00  0.00    -0.012 A 
ATOM     14  C   UNL     1      -0.005  -5.184  -4.279  0.00  0.00    +0.098 C 
ATOM     15  C   UNL     1      -0.362  -3.095  -2.954  0.00  0.00    -0.090 A 
ATOM     34  C   UNL     1      -1.076  -1.152   0.696  0.00  0.00    -0.104 A 
BRANCH   6   7
ATOM      7  O   UNL     1      -1.116  -3.237   1.828  0.00  0.00    -0.293 OA
ATOM      8  C   UNL     1      -1.359  -2.494   3.025  0.00  0.00    +0.248 C 
ENDBRANCH   6   7
BRANCH   9  10
ATOM     10  O   UNL     1      -0.763  -5.332   0.533  0.00  0.00    -0.480 OA
ATOM     11  H   UNL     1      -1.671  -5.607   0.722  0.00  0.00    +0.399 HD
ENDBRANCH   9  10
ENDBRANCH  16  15
BRANCH  17  18
ATOM     18  O   UNL     1      -2.571  -2.463  -4.595  0.00  0.00    -0.482 OA
ATOM     19  H   UNL     1      -3.047  -1.838  -4.031  0.00  0.00    +0.402 HD
ENDBRANCH  17  18
BRANCH  21  22
ATOM     22  O   UNL     1       0.191  -0.158  -7.697  0.00  0.00    -0.489 OA
ATOM     23  H   UNL     1       0.025   0.789  -7.596  0.00  0.00    +0.401 HD
ENDBRANCH  21  22
TORSDOF 5
