REMARK  Name = ZINC03872315
REMARK  9 active torsions:
REMARK  status: ('A' for Active; 'I' for Inactive)
REMARK    1  A    between atoms: C1_1  and  C2_2
REMARK    2  A    between atoms: C4_4  and  O3_28
REMARK    3  A    between atoms: C7_7  and  C8_8
REMARK    4  A    between atoms: C13_13  and  O1_14
REMARK    5  A    between atoms: C14_15  and  C18_21
REMARK    6  A    between atoms: C15_17  and  C17_20
REMARK    7  A    between atoms: C22_25  and  O2_26
REMARK    8  A    between atoms: O2_26  and  C23_27
REMARK    9  A    between atoms: O3_28  and  C24_29
REMARK                            x       y       z     vdW  Elec       q    Type
REMARK                         _______ _______ _______ _____ _____    ______ ____
ROOT
ATOM     16  C   UNL     1       0.002  -0.004   0.002  0.00  0.00    -0.026 A 
ATOM     17  C   UNL     1       1.225  -0.674  -0.014  0.00  0.00    +0.073 A 
ATOM     18  C   UNL     1       2.399   0.046  -0.024  0.00  0.00    +0.027 A 
ATOM     19  C   UNL     1       2.378   1.434  -0.017  0.00  0.00    -0.077 A 
ATOM     20  C   UNL     1       1.175   2.108   0.002  0.00  0.00    -0.154 A 
ATOM     21  C   UNL     1       1.107   3.612   0.022  0.00  0.00    +0.238 C 
ATOM     22  N   UNL     1       2.387   4.194  -0.402  0.00  0.00    -0.510 N 
ATOM     23  H   UNL     1       2.543   3.987  -1.396  0.00  0.00    +0.434 HD
ATOM     24  H   UNL     1       2.361   5.212  -0.265  0.00  0.00    +0.435 HD
ATOM     25  C   UNL     1       3.487   3.622   0.396  0.00  0.00    +0.170 C 
ATOM     26  C   UNL     1       4.768   4.420   0.144  0.00  0.00    +0.093 C 
ATOM     27  C   UNL     1       0.781   4.085   1.440  0.00  0.00    +0.093 C 
ATOM     28  C   UNL     1       3.695   2.169  -0.033  0.00  0.00    +0.130 C 
ATOM     29  C   UNL     1      -0.017   1.393   0.010  0.00  0.00    +0.146 A 
ENDROOT
BRANCH  16  15
ATOM      1  C   UNL     1      -1.190  -0.749   2.509  0.00  0.00    +0.094 C 
ATOM      2  C   UNL     1      -1.852  -1.133   1.210  0.00  0.00    +0.000 A 
ATOM      3  C   UNL     1      -3.042  -1.848   1.231  0.00  0.00    -0.112 A 
ATOM      4  C   UNL     1      -3.670  -2.213   0.059  0.00  0.00    +0.192 A 
ATOM      7  C   UNL     1      -3.102  -1.858  -1.181  0.00  0.00    -0.105 A 
ATOM      8  C   UNL     1      -1.892  -1.123  -1.209  0.00  0.00    +0.051 A 
ATOM      9  C   UNL     1      -1.324  -0.776  -2.443  0.00  0.00    -0.047 A 
ATOM     10  C   UNL     1      -1.942  -1.136  -3.603  0.00  0.00    +0.079 A 
ATOM     11  C   UNL     1      -3.134  -1.853  -3.587  0.00  0.00    -0.110 A 
ATOM     12  C   UNL     1      -3.720  -2.217  -2.394  0.00  0.00    +0.177 A 
ATOM     15  C   UNL     1      -1.267  -0.767   0.010  0.00  0.00    -0.119 A 
BRANCH   4   5
ATOM      5  O   UNL     1      -4.833  -2.912   0.099  0.00  0.00    -0.287 OA
ATOM      6  C   UNL     1      -5.350  -3.236   1.391  0.00  0.00    +0.246 C 
ENDBRANCH   4   5
BRANCH  12  13
ATOM     13  O   UNL     1      -4.884  -2.917  -2.389  0.00  0.00    -0.290 OA
ATOM     14  C   UNL     1      -5.450  -3.244  -3.659  0.00  0.00    +0.245 C 
ENDBRANCH  12  13
ENDBRANCH  16  15
BRANCH  29  30
ATOM     30  O   UNL     1      -1.204   2.055   0.019  0.00  0.00    -0.483 OA
ATOM     31  H   UNL     1      -1.543   2.241   0.905  0.00  0.00    +0.394 HD
ENDBRANCH  29  30
TORSDOF 4
