REMARK  Name = ZINC95486249
REMARK  7 active torsions:
REMARK  status: ('A' for Active; 'I' for Inactive)
REMARK    1  A    between atoms: C1_1  and  C2_2
REMARK    2  A    between atoms: C6_6  and  C20_26
REMARK    3  A    between atoms: C6_6  and  C21_27
REMARK    4  A    between atoms: C10_11  and  C19_25
REMARK    5  A    between atoms: C14_16  and  C17_21
REMARK    6  A    between atoms: C17_21  and  O3_23
REMARK    7  A    between atoms: O3_23  and  C18_24
REMARK                            x       y       z     vdW  Elec       q    Type
REMARK                         _______ _______ _______ _____ _____    ______ ____
ROOT
ATOM      1  C   UNL     1       1.006   1.228   0.386  0.00  0.00    +0.016 C 
ATOM      2  C   UNL     1       0.623  -0.254   0.202  0.00  0.00    -0.031 C 
ATOM      3  C   UNL     1      -0.897  -0.350   0.096  0.00  0.00    +0.020 C 
ATOM      4  C   UNL     1      -1.570   0.074   1.401  0.00  0.00    -0.002 C 
ATOM      5  C   UNL     1      -1.105  -0.824   2.543  0.00  0.00    +0.013 C 
ATOM      6  C   UNL     1       0.412  -0.753   2.704  0.00  0.00    -0.051 C 
ATOM      7  C   UNL     1       0.816   0.600   3.292  0.00  0.00    +0.020 C 
ATOM      8  C   UNL     1       0.811  -1.796   3.774  0.00  0.00    +0.013 C 
ATOM      9  C   UNL     1       1.279  -0.699  -1.119  0.00  0.00    -0.049 C 
ATOM     10  C   UNL     1       1.134   0.411  -2.154  0.00  0.00    +0.043 C 
ATOM     11  C   UNL     1       1.400   0.060  -3.631  0.00  0.00    +0.043 C 
ATOM     12  C   UNL     1       0.031  -0.308  -4.295  0.00  0.00    +0.037 C 
ATOM     17  C   UNL     1      -0.414  -1.635  -3.809  0.00  0.00    -0.007 C 
ATOM     18  C   UNL     1      -0.815  -1.686  -2.361  0.00  0.00    +0.213 C 
ATOM     19  O   UNL     1      -0.052  -2.669  -1.694  0.00  0.00    -0.347 OA
ATOM     20  C   UNL     1       1.266  -2.157  -1.383  0.00  0.00    +0.134 C 
ATOM     21  C   UNL     1       2.287  -2.571  -2.473  0.00  0.00    +0.016 C 
ATOM     22  C   UNL     1       1.763  -2.930  -0.135  0.00  0.00    +0.023 C 
ATOM     23  C   UNL     1       0.903  -2.559   1.068  0.00  0.00    +0.020 C 
ATOM     24  C   UNL     1       1.117  -1.073   1.392  0.00  0.00    +0.012 C 
ENDROOT
BRANCH  12  13
ATOM     13  C   UNL     1       0.201  -0.342  -5.793  0.00  0.00    +0.462 C 
ATOM     16  O   UNL     1       1.279  -0.103  -6.285  0.00  0.00    -0.503 OA
BRANCH  13  14
ATOM     14  O   UNL     1      -0.845  -0.638  -6.581  0.00  0.00    -0.353 OA
ATOM     15  C   UNL     1      -0.612  -0.652  -7.991  0.00  0.00    +0.257 C 
ENDBRANCH  13  14
ENDBRANCH  12  13
TORSDOF 2
