REMARK  Name = ZINC95486319
REMARK  8 active torsions:
REMARK  status: ('A' for Active; 'I' for Inactive)
REMARK    1  A    between atoms: C1_1  and  C2_2
REMARK    2  A    between atoms: C7_8  and  C12_16
REMARK    3  A    between atoms: C8_9  and  O1_15
REMARK    4  A    between atoms: C10_11  and  C11_14
REMARK    5  A    between atoms: C17_22  and  O3_31
REMARK    6  A    between atoms: C19_24  and  C22_30
REMARK    7  A    between atoms: C21_27  and  O2_29
REMARK    8  A    between atoms: O3_31  and  C23_32
REMARK                            x       y       z     vdW  Elec       q    Type
REMARK                         _______ _______ _______ _____ _____    ______ ____
ROOT
ATOM      1  C   UNL     1      -2.114   1.797   2.574  0.00  0.00    +0.093 C 
ATOM      2  C   UNL     1      -1.785   0.343   2.228  0.00  0.00    +0.167 C 
ATOM      3  C   UNL     1      -3.080  -0.437   1.998  0.00  0.00    +0.129 C 
ATOM      4  C   UNL     1      -2.776  -1.909   1.885  0.00  0.00    -0.076 A 
ATOM      5  C   UNL     1      -3.737  -2.746   1.339  0.00  0.00    +0.015 A 
ATOM      6  C   UNL     1      -3.498  -4.101   1.220  0.00  0.00    +0.117 A 
ATOM      7  C   UNL     1      -2.295  -4.628   1.648  0.00  0.00    -0.079 A 
ATOM     23  C   UNL     1      -1.332  -3.794   2.192  0.00  0.00    +0.134 A 
ATOM     26  C   UNL     1      -1.573  -2.428   2.310  0.00  0.00    -0.161 A 
ATOM     27  C   UNL     1      -0.496  -1.556   2.899  0.00  0.00    +0.236 C 
ATOM     28  C   UNL     1       0.577  -1.294   1.841  0.00  0.00    +0.092 C 
ATOM     29  N   UNL     1      -1.052  -0.276   3.344  0.00  0.00    -0.501 N 
ATOM     30  H   UNL     1      -1.683  -0.434   4.115  0.00  0.00    +0.429 HD
ATOM     31  H   UNL     1      -0.305   0.336   3.638  0.00  0.00    +0.431 HD
ENDROOT
BRANCH   7   8
ATOM      8  C   UNL     1      -2.031  -6.106   1.522  0.00  0.00    +0.112 C 
ATOM      9  C   UNL     1      -3.057  -6.864   2.324  0.00  0.00    -0.034 A 
ATOM     10  C   UNL     1      -3.395  -6.366   3.576  0.00  0.00    -0.037 A 
ATOM     11  C   UNL     1      -4.323  -7.015   4.364  0.00  0.00    +0.041 A 
ATOM     12  C   UNL     1      -4.924  -8.172   3.906  0.00  0.00    -0.078 A 
ATOM     13  C   UNL     1      -4.592  -8.671   2.658  0.00  0.00    +0.132 A 
ATOM     16  C   UNL     1      -3.657  -8.012   1.861  0.00  0.00    -0.086 A 
ATOM     17  C   UNL     1      -3.352  -8.599   0.508  0.00  0.00    +0.045 C 
ATOM     18  C   UNL     1      -4.489  -8.256  -0.458  0.00  0.00    +0.036 C 
ATOM     19  C   UNL     1      -2.041  -8.036  -0.039  0.00  0.00    +0.003 C 
ATOM     20  C   UNL     1      -2.098  -6.507   0.050  0.00  0.00    +0.176 C 
BRANCH  13  14
ATOM     14  O   UNL     1      -5.182  -9.809   2.207  0.00  0.00    -0.312 OA
ATOM     15  C   UNL     1      -6.132 -10.434   3.072  0.00  0.00    +0.242 C 
ENDBRANCH  13  14
BRANCH  20  21
ATOM     21  O   UNL     1      -3.321  -6.036  -0.522  0.00  0.00    -0.554 OA
ATOM     22  H   UNL     1      -3.428  -6.257  -1.457  0.00  0.00    +0.382 HD
ENDBRANCH  20  21
ENDBRANCH   7   8
BRANCH  23  24
ATOM     24  O   UNL     1      -0.148  -4.312   2.614  0.00  0.00    -0.491 OA
ATOM     25  H   UNL     1       0.537  -4.332   1.932  0.00  0.00    +0.396 HD
ENDBRANCH  23  24
TORSDOF 4
