REMARK  Name = ZINC02386253
REMARK  5 active torsions:
REMARK  status: ('A' for Active; 'I' for Inactive)
REMARK    1  A    between atoms: C1_1  and  O1_2
REMARK    2  A    between atoms: O1_2  and  C2_3
REMARK    3  A    between atoms: C4_5  and  C7_10
REMARK    4  A    between atoms: C8_11  and  C9_12
REMARK    5  A    between atoms: C12_15  and  O4_18
REMARK                            x       y       z     vdW  Elec       q    Type
REMARK                         _______ _______ _______ _____ _____    ______ ____
ROOT
ATOM      6  C   UNL     1      -2.195   5.351   3.788  0.00  0.00    +0.004 C 
ATOM      7  C   UNL     1      -2.292   6.689   3.934  0.00  0.00    +0.114 C 
ENDROOT
BRANCH   6   5
ATOM      3  C   UNL     1      -0.787   2.888   1.346  0.00  0.00    +0.245 A 
ATOM      4  C   UNL     1      -1.435   3.422   2.471  0.00  0.00    -0.086 A 
ATOM      5  C   UNL     1      -1.525   4.790   2.616  0.00  0.00    +0.215 A 
ATOM     16  O   UNL     1      -1.008   5.616   1.685  0.00  0.00    -0.271 OA
ATOM     17  C   UNL     1      -0.387   5.134   0.594  0.00  0.00    +0.515 A 
ATOM     18  O   UNL     1       0.072   5.906  -0.232  0.00  0.00    -0.483 OA
ATOM     19  C   UNL     1      -0.262   3.756   0.400  0.00  0.00    -0.235 A 
BRANCH   3   2
ATOM      1  C   UNL     1      -0.013   1.086   0.008  0.00  0.00    +0.264 C 
ATOM      2  O   UNL     1      -0.682   1.547   1.184  0.00  0.00    -0.296 OA
ENDBRANCH   3   2
ENDBRANCH   6   5
BRANCH   7   8
ATOM      8  C   UNL     1      -2.966   7.253   5.114  0.00  0.00    -0.092 A 
ATOM      9  C   UNL     1      -3.511   6.404   6.084  0.00  0.00    +0.053 A 
ATOM     10  C   UNL     1      -4.136   6.937   7.189  0.00  0.00    -0.014 A 
ATOM     11  C   UNL     1      -4.235   8.316   7.337  0.00  0.00    +0.123 A 
ATOM     14  C   UNL     1      -3.700   9.163   6.374  0.00  0.00    -0.014 A 
ATOM     15  C   UNL     1      -3.068   8.640   5.268  0.00  0.00    +0.062 A 
BRANCH  11  12
ATOM     12  O   UNL     1      -4.858   8.836   8.425  0.00  0.00    -0.499 OA
ATOM     13  H   UNL     1      -5.807   8.979   8.305  0.00  0.00    +0.396 HD
ENDBRANCH  11  12
ENDBRANCH   7   8
TORSDOF 4
