REMARK  Name = ZINC95486225
REMARK  4 active torsions:
REMARK  status: ('A' for Active; 'I' for Inactive)
REMARK    1  A    between atoms: C1_1  and  C2_2
REMARK    2  A    between atoms: C6_8  and  C15_22
REMARK    3  A    between atoms: C6_8  and  O4_23
REMARK    4  A    between atoms: C10_14  and  C14_21
REMARK                            x       y       z     vdW  Elec       q    Type
REMARK                         _______ _______ _______ _____ _____    ______ ____
ROOT
ATOM      1  C   UNL     1      -0.171   1.607  -0.152  0.00  0.00    +0.075 C 
ATOM      2  C   UNL     1      -0.121   0.078  -0.113  0.00  0.00    -0.019 C 
ATOM      3  C   UNL     1       0.677  -0.469  -1.304  0.00  0.00    -0.008 C 
ATOM      4  C   UNL     1      -0.080  -0.976  -2.467  0.00  0.00    +0.038 C 
ATOM      5  C   UNL     1       0.767  -1.506  -3.609  0.00  0.00    +0.008 C 
ATOM      6  C   UNL     1       1.081  -2.988  -3.451  0.00  0.00    +0.144 C 
ATOM      9  C   UNL     1      -0.070  -3.680  -2.718  0.00  0.00    +0.022 C 
ATOM     10  C   UNL     1       2.377  -3.137  -2.635  0.00  0.00    +0.060 C 
ATOM     11  C   UNL     1       3.650  -3.006  -3.453  0.00  0.00    +0.079 C 
ATOM     12  C   UNL     1       4.538  -2.176  -2.541  0.00  0.00    +0.385 C 
ATOM     13  C   UNL     1       3.711  -1.722  -1.432  0.00  0.00    -0.184 C 
ATOM     14  C   UNL     1       4.212  -0.816  -0.337  0.00  0.00    +0.118 C 
ATOM     15  O   UNL     1       5.716  -1.937  -2.706  0.00  0.00    -0.434 OA
ATOM     16  C   UNL     1       2.451  -2.188  -1.497  0.00  0.00    -0.057 C 
ATOM     17  C   UNL     1       1.403  -1.648  -0.616  0.00  0.00    +0.214 C 
ATOM     18  O   UNL     1       1.763  -1.103   0.646  0.00  0.00    -0.326 OA
ATOM     19  C   UNL     1       0.680  -0.404   1.094  0.00  0.00    +0.484 C 
ATOM     20  O   UNL     1       0.400  -0.199   2.251  0.00  0.00    -0.429 OA
ENDROOT
BRANCH   6   7
ATOM      7  O   UNL     1       1.255  -3.580  -4.740  0.00  0.00    -0.552 OA
ATOM      8  H   UNL     1       0.479  -3.513  -5.313  0.00  0.00    +0.383 HD
ENDBRANCH   6   7
TORSDOF 1
