REMARK  Name = ZINC95486238
REMARK  16 active torsions:
REMARK  status: ('A' for Active; 'I' for Inactive)
REMARK    1  A    between atoms: C1_1  and  C2_2
REMARK    2  A    between atoms: C1_1  and  C6_7
REMARK    3  A    between atoms: C2_2  and  C3_3
REMARK    4  A    between atoms: C3_3  and  C4_4
REMARK    5  A    between atoms: C4_4  and  C5_5
REMARK    6  A    between atoms: C5_5  and  O1_6
REMARK    7  A    between atoms: C6_7  and  C7_8
REMARK    8  A    between atoms: C7_8  and  C8_9
REMARK    9  A    between atoms: C8_9  and  C9_10
REMARK   10  A    between atoms: C9_10  and  C10_12
REMARK   11  A    between atoms: C10_12  and  C11_13
REMARK   12  A    between atoms: C11_13  and  C12_14
REMARK   13  A    between atoms: C12_14  and  C13_15
REMARK   14  A    between atoms: C13_15  and  C14_16
REMARK   15  A    between atoms: C14_16  and  C15_17
REMARK   16  A    between atoms: C15_17  and  C16_18
REMARK                            x       y       z     vdW  Elec       q    Type
REMARK                         _______ _______ _______ _____ _____    ______ ____
ROOT
ATOM      5  C   UNL     1       2.811   5.622   0.005  0.00  0.00    +0.352 C 
ATOM     15  O   UNL     1       1.757   6.211   0.019  0.00  0.00    -0.453 OA
ENDROOT
BRANCH   5   4
ATOM      4  C   UNL     1       2.831   4.115  -0.003  0.00  0.00    +0.020 C 
BRANCH   4   3
ATOM      3  C   UNL     1       1.396   3.585   0.008  0.00  0.00    +0.021 C 
BRANCH   3   2
ATOM      2  C   UNL     1       1.417   2.055  -0.000  0.00  0.00    +0.004 C 
BRANCH   2   1
ATOM      1  C   UNL     1      -0.019   1.526   0.010  0.00  0.00    +0.003 C 
BRANCH   1  16
ATOM     16  C   UNL     1       0.002  -0.004   0.002  0.00  0.00    +0.006 C 
BRANCH  16  17
ATOM     17  C   UNL     1      -1.433  -0.534   0.013  0.00  0.00    +0.009 C 
BRANCH  17  18
ATOM     18  C   UNL     1      -1.413  -2.063   0.004  0.00  0.00    +0.016 C 
BRANCH  18  19
ATOM     19  C   UNL     1      -2.848  -2.593   0.015  0.00  0.00    +0.163 C 
BRANCH  19  20
ATOM     20  O   UNL     1      -2.829  -4.022   0.007  0.00  0.00    -0.577 OA
ATOM     21  H   UNL     1      -3.707  -4.427   0.014  0.00  0.00    +0.380 HD
ENDBRANCH  19  20
ENDBRANCH  18  19
ENDBRANCH  17  18
ENDBRANCH  16  17
ENDBRANCH   1  16
ENDBRANCH   2   1
ENDBRANCH   3   2
ENDBRANCH   4   3
ENDBRANCH   5   4
BRANCH   5   6
ATOM      6  C   UNL     1       4.106   6.393  -0.003  0.00  0.00    +0.021 C 
BRANCH   6   7
ATOM      7  C   UNL     1       3.806   7.893   0.008  0.00  0.00    +0.018 C 
BRANCH   7   8
ATOM      8  C   UNL     1       5.120   8.676  -0.000  0.00  0.00    +0.003 C 
BRANCH   8   9
ATOM      9  C   UNL     1       4.820  10.176   0.011  0.00  0.00    -0.011 C 
BRANCH   9  10
ATOM     10  C   UNL     1       6.135  10.959   0.002  0.00  0.00    +0.022 C 
BRANCH  10  11
ATOM     11  C   UNL     1       5.835  12.460   0.013  0.00  0.00    -0.076 C 
BRANCH  11  12
ATOM     12  C   UNL     1       7.129  13.231   0.005  0.00  0.00    +0.487 C 
ATOM     13  O   UNL     1       7.113  14.450   0.012  0.00  0.00    -0.710 OA
ATOM     14  O   UNL     1       8.193  12.636  -0.008  0.00  0.00    -0.700 OA
ENDBRANCH  11  12
ENDBRANCH  10  11
ENDBRANCH   9  10
ENDBRANCH   8   9
ENDBRANCH   7   8
ENDBRANCH   6   7
ENDBRANCH   5   6
TORSDOF 16
