REMARK  Name = ZINC14691443
REMARK  16 active torsions:
REMARK  status: ('A' for Active; 'I' for Inactive)
REMARK    1  A    between atoms: C1_1  and  C2_2
REMARK    2  A    between atoms: C4_4  and  O3_30
REMARK    3  A    between atoms: C8_9  and  C11_12
REMARK    4  A    between atoms: C8_9  and  C12_13
REMARK    5  A    between atoms: C12_13  and  C13_14
REMARK    6  A    between atoms: C13_14  and  C14_15
REMARK    7  A    between atoms: C15_16  and  C16_17
REMARK    8  A    between atoms: C15_16  and  C17_18
REMARK    9  A    between atoms: C17_18  and  C18_19
REMARK   10  A    between atoms: C18_19  and  C19_20
REMARK   11  A    between atoms: C20_21  and  C21_22
REMARK   12  A    between atoms: C20_21  and  C27_28
REMARK   13  A    between atoms: C21_22  and  C22_23
REMARK   14  A    between atoms: C22_23  and  C23_24
REMARK   15  A    between atoms: C24_25  and  C25_26
REMARK   16  A    between atoms: C24_25  and  C26_27
REMARK                            x       y       z     vdW  Elec       q    Type
REMARK                         _______ _______ _______ _____ _____    ______ ____
ROOT
ATOM     13  C   UNL     1       4.669   3.212   2.247  0.00  0.00    +0.059 C 
ENDROOT
BRANCH  13  14
ATOM     14  C   UNL     1       4.446   3.369   3.729  0.00  0.00    -0.061 C 
ATOM     15  C   UNL     1       5.351   3.962   4.468  0.00  0.00    -0.122 C 
ATOM     29  C   UNL     1       6.560   4.587   3.822  0.00  0.00    +0.070 C 
BRANCH  15  16
ATOM     16  C   UNL     1       5.181   4.019   5.965  0.00  0.00    +0.052 C 
BRANCH  16  17
ATOM     17  C   UNL     1       5.943   2.859   6.609  0.00  0.00    +0.062 C 
BRANCH  17  18
ATOM     18  C   UNL     1       5.774   2.916   8.105  0.00  0.00    -0.077 C 
ATOM     19  C   UNL     1       5.281   1.867   8.760  0.00  0.00    -0.130 C 
BRANCH  19  20
ATOM     20  C   UNL     1       5.032   0.607   8.046  0.00  0.00    +0.496 C 
ATOM     21  O   UNL     1       6.063  -0.199   7.723  0.00  0.00    -0.761 OA
ATOM     22  O   UNL     1       3.897   0.292   7.748  0.00  0.00    -0.636 OA
ENDBRANCH  19  20
BRANCH  19  23
ATOM     23  C   UNL     1       4.979   1.972  10.232  0.00  0.00    +0.060 C 
BRANCH  23  24
ATOM     24  C   UNL     1       3.502   2.325  10.426  0.00  0.00    +0.061 C 
BRANCH  24  25
ATOM     25  C   UNL     1       3.200   2.430  11.899  0.00  0.00    -0.040 C 
ATOM     26  C   UNL     1       2.722   3.545  12.391  0.00  0.00    -0.156 C 
ATOM     27  C   UNL     1       2.527   3.690  13.879  0.00  0.00    +0.066 C 
ATOM     28  C   UNL     1       2.365   4.684  11.470  0.00  0.00    +0.070 C 
ENDBRANCH  24  25
ENDBRANCH  23  24
ENDBRANCH  19  23
ENDBRANCH  17  18
ENDBRANCH  16  17
ENDBRANCH  15  16
ENDBRANCH  13  14
BRANCH  13  12
ATOM     12  C   UNL     1       4.583   1.731   1.872  0.00  0.00    +0.017 C 
BRANCH  12  11
ATOM      1  C   UNL     1       1.611   4.109  -0.368  0.00  0.00    +0.104 C 
ATOM      2  C   UNL     1       1.440   2.612  -0.377  0.00  0.00    -0.094 A 
ATOM      3  C   UNL     1       0.172   2.060  -0.411  0.00  0.00    +0.020 A 
ATOM      4  C   UNL     1       0.005   0.682  -0.420  0.00  0.00    +0.077 A 
ATOM      7  C   UNL     1       1.110  -0.154  -0.388  0.00  0.00    +0.029 A 
ATOM      8  C   UNL     1       2.385   0.396  -0.347  0.00  0.00    -0.110 A 
ATOM      9  C   UNL     1       3.594  -0.454  -0.314  0.00  0.00    +0.030 C 
ATOM     10  C   UNL     1       4.754   0.110   0.010  0.00  0.00    -0.040 C 
ATOM     11  C   UNL     1       4.810   1.572   0.367  0.00  0.00    +0.152 C 
ATOM     30  C   UNL     1       6.189   2.126   0.004  0.00  0.00    +0.081 C 
ATOM     31  O   UNL     1       3.808   2.303  -0.339  0.00  0.00    -0.299 OA
ATOM     32  C   UNL     1       2.550   1.789  -0.350  0.00  0.00    +0.129 A 
BRANCH   4   5
ATOM      5  O   UNL     1      -1.246   0.150  -0.460  0.00  0.00    -0.496 OA
ATOM      6  H   UNL     1      -1.581  -0.001  -1.355  0.00  0.00    +0.386 HD
ENDBRANCH   4   5
ENDBRANCH  12  11
ENDBRANCH  13  12
TORSDOF 11
