REMARK  Name = ZINC57986567
REMARK  1 active torsions:
REMARK  status: ('A' for Active; 'I' for Inactive)
REMARK    1  A    between atoms: C1_1  and  C2_2
REMARK                            x       y       z     vdW  Elec       q    Type
REMARK                         _______ _______ _______ _____ _____    ______ ____
ROOT
ATOM      1  C   UNL     1      -0.018   1.503   0.010  0.00  0.00    +0.064 C 
ATOM      2  C   UNL     1       0.002  -0.004   0.002  0.00  0.00    -0.127 C 
ATOM      3  C   UNL     1       0.005  -0.605  -1.145  0.00  0.00    -0.061 C 
ATOM      4  C   UNL     1       0.013  -2.096  -1.313  0.00  0.00    +0.051 C 
ATOM      5  C   UNL     1       0.442  -2.771  -0.008  0.00  0.00    +0.006 C 
ATOM      6  C   UNL     1      -0.386  -2.179   1.140  0.00  0.00    +0.008 C 
ATOM      7  C   UNL     1       0.024  -0.715   1.324  0.00  0.00    +0.058 C 
ENDROOT
TORSDOF 0
