REMARK  Name = ZINC95486159
REMARK  13 active torsions:
REMARK  status: ('A' for Active; 'I' for Inactive)
REMARK    1  A    between atoms: C1_1  and  C2_2
REMARK    2  A    between atoms: C6_6  and  O1_8
REMARK    3  A    between atoms: O1_8  and  C8_9
REMARK    4  A    between atoms: C9_10  and  O4_32
REMARK    5  A    between atoms: C11_12  and  C26_31
REMARK    6  A    between atoms: C12_13  and  C13_14
REMARK    7  A    between atoms: C14_15  and  O3_29
REMARK    8  A    between atoms: C16_17  and  O2_27
REMARK    9  A    between atoms: C20_21  and  C23_26
REMARK   10  A    between atoms: C21_24  and  C22_25
REMARK   11  A    between atoms: O2_27  and  C24_28
REMARK   12  A    between atoms: O3_29  and  C25_30
REMARK   13  A    between atoms: O4_32  and  C27_33
REMARK                            x       y       z     vdW  Elec       q    Type
REMARK                         _______ _______ _______ _____ _____    ______ ____
ROOT
ATOM      1  C   UNL     1      -1.034   1.165  -0.385  0.00  0.00    +0.091 C 
ATOM      2  C   UNL     1      -0.827  -0.328  -0.370  0.00  0.00    -0.024 A 
ATOM      3  C   UNL     1      -0.590  -0.984  -1.540  0.00  0.00    -0.034 A 
ATOM      4  C   UNL     1      -0.396  -2.373  -1.538  0.00  0.00    +0.048 A 
ATOM      5  C   UNL     1      -0.448  -3.082  -0.314  0.00  0.00    -0.104 A 
ATOM      6  C   UNL     1      -0.252  -4.478  -0.311  0.00  0.00    +0.176 A 
ATOM      9  C   UNL     1      -0.011  -5.139  -1.495  0.00  0.00    -0.108 A 
ATOM     10  C   UNL     1       0.042  -4.449  -2.700  0.00  0.00    -0.005 A 
ATOM     11  C   UNL     1       0.308  -5.202  -3.978  0.00  0.00    +0.092 C 
ATOM     12  C   UNL     1      -0.695  -2.379   0.881  0.00  0.00    +0.172 A 
ATOM     15  C   UNL     1      -0.147  -3.079  -2.740  0.00  0.00    -0.077 A 
ATOM     32  C   UNL     1      -0.875  -1.014   0.839  0.00  0.00    -0.111 A 
ENDROOT
BRANCH  15  16
ATOM     16  C   UNL     1      -0.089  -2.356  -4.030  0.00  0.00    -0.098 A 
ATOM     17  C   UNL     1      -1.255  -2.174  -4.791  0.00  0.00    +0.202 A 
ATOM     20  C   UNL     1      -1.203  -1.498  -5.998  0.00  0.00    -0.170 A 
ATOM     21  C   UNL     1       0.001  -0.994  -6.466  0.00  0.00    +0.208 A 
ATOM     24  C   UNL     1       1.168  -1.171  -5.712  0.00  0.00    -0.187 A 
ATOM     25  C   UNL     1       2.464  -0.648  -6.174  0.00  0.00    +0.232 C 
ATOM     26  C   UNL     1       2.512   0.433  -7.223  0.00  0.00    +0.137 C 
ATOM     27  N   UNL     1       3.559  -1.106  -5.670  0.00  0.00    -0.524 NA
ATOM     28  C   UNL     1       3.567  -2.163  -4.664  0.00  0.00    +0.150 C 
ATOM     29  C   UNL     1       4.873  -2.088  -3.871  0.00  0.00    +0.052 C 
ATOM     30  C   UNL     1       2.388  -2.019  -3.703  0.00  0.00    +0.078 C 
ATOM     31  C   UNL     1       1.116  -1.849  -4.491  0.00  0.00    +0.028 A 
BRANCH  17  18
ATOM     18  O   UNL     1      -2.438  -2.663  -4.340  0.00  0.00    -0.297 OA
ATOM     19  C   UNL     1      -3.586  -2.444  -5.163  0.00  0.00    +0.241 C 
ENDBRANCH  17  18
BRANCH  21  22
ATOM     22  O   UNL     1       0.048  -0.332  -7.649  0.00  0.00    -0.299 OA
ATOM     23  C   UNL     1      -1.182  -0.190  -8.363  0.00  0.00    +0.240 C 
ENDBRANCH  21  22
ENDBRANCH  15  16
BRANCH   6   7
ATOM      7  O   UNL     1      -0.299  -5.169   0.857  0.00  0.00    -0.290 OA
ATOM      8  C   UNL     1      -0.091  -6.581   0.784  0.00  0.00    +0.238 C 
ENDBRANCH   6   7
BRANCH  12  13
ATOM     13  O   UNL     1      -0.750  -3.041   2.066  0.00  0.00    -0.291 OA
ATOM     14  C   UNL     1      -1.005  -2.259   3.235  0.00  0.00    +0.237 C 
ENDBRANCH  12  13
TORSDOF 5
