REMARK  Name = ZINC13359242
REMARK  12 active torsions:
REMARK  status: ('A' for Active; 'I' for Inactive)
REMARK    1  A    between atoms: C1_1  and  C2_2
REMARK    2  A    between atoms: C4_4  and  O4_31
REMARK    3  A    between atoms: C7_7  and  C8_8
REMARK    4  A    between atoms: C9_9  and  O2_23
REMARK    5  A    between atoms: C11_11  and  O1_21
REMARK    6  A    between atoms: C15_15  and  C18_20
REMARK    7  A    between atoms: C16_18  and  C17_19
REMARK    8  A    between atoms: O1_21  and  C19_22
REMARK    9  A    between atoms: O2_23  and  C20_24
REMARK   10  A    between atoms: C24_28  and  O3_29
REMARK   11  A    between atoms: O3_29  and  C25_30
REMARK   12  A    between atoms: O4_31  and  C26_32
REMARK                            x       y       z     vdW  Elec       q    Type
REMARK                         _______ _______ _______ _____ _____    ______ ____
ROOT
ATOM     16  C   UNL     1       2.420   0.021  -0.021  0.00  0.00    -0.099 A 
ATOM     17  C   UNL     1       1.207  -0.686  -0.013  0.00  0.00    +0.201 A 
ATOM     20  C   UNL     1       0.002  -0.004   0.002  0.00  0.00    -0.170 A 
ATOM     21  C   UNL     1      -0.017   1.383   0.010  0.00  0.00    +0.209 A 
ATOM     24  C   UNL     1       1.189   2.094   0.002  0.00  0.00    -0.187 A 
ATOM     25  C   UNL     1       1.210   3.565   0.011  0.00  0.00    +0.230 C 
ATOM     26  C   UNL     1      -0.008   4.336   0.451  0.00  0.00    +0.138 C 
ATOM     27  N   UNL     1       2.277   4.195  -0.359  0.00  0.00    -0.524 NA
ATOM     28  C   UNL     1       3.476   3.495  -0.809  0.00  0.00    +0.151 C 
ATOM     29  C   UNL     1       4.691   4.404  -0.613  0.00  0.00    +0.052 C 
ATOM     30  C   UNL     1       3.687   2.201  -0.025  0.00  0.00    +0.077 C 
ATOM     31  C   UNL     1       2.407   1.407  -0.014  0.00  0.00    +0.028 A 
ENDROOT
BRANCH  16  15
ATOM      1  C   UNL     1       3.629  -0.668  -2.536  0.00  0.00    +0.093 C 
ATOM      2  C   UNL     1       4.301  -1.048  -1.242  0.00  0.00    -0.007 A 
ATOM      3  C   UNL     1       5.509  -1.734  -1.271  0.00  0.00    -0.105 A 
ATOM      4  C   UNL     1       6.146  -2.095  -0.104  0.00  0.00    +0.174 A 
ATOM      7  C   UNL     1       5.570  -1.768   1.140  0.00  0.00    -0.099 A 
ATOM      8  C   UNL     1       4.342  -1.064   1.177  0.00  0.00    +0.043 A 
ATOM      9  C   UNL     1       3.772  -0.733   2.415  0.00  0.00    -0.031 A 
ATOM     10  C   UNL     1       4.403  -1.084   3.570  0.00  0.00    +0.066 A 
ATOM     11  C   UNL     1       5.613  -1.771   3.546  0.00  0.00    -0.113 A 
ATOM     12  C   UNL     1       6.198  -2.124   2.350  0.00  0.00    +0.169 A 
ATOM     15  C   UNL     1       3.708  -0.711  -0.038  0.00  0.00    -0.075 A 
BRANCH   4   5
ATOM      5  O   UNL     1       7.326  -2.765  -0.152  0.00  0.00    -0.290 OA
ATOM      6  C   UNL     1       7.851  -3.063  -1.447  0.00  0.00    +0.238 C 
ENDBRANCH   4   5
BRANCH  12  13
ATOM     13  O   UNL     1       7.378  -2.795   2.336  0.00  0.00    -0.291 OA
ATOM     14  C   UNL     1       7.954  -3.121   3.603  0.00  0.00    +0.237 C 
ENDBRANCH  12  13
ENDBRANCH  16  15
BRANCH  17  18
ATOM     18  O   UNL     1       1.215  -2.043  -0.019  0.00  0.00    -0.297 OA
ATOM     19  C   UNL     1      -0.054  -2.700  -0.010  0.00  0.00    +0.241 C 
ENDBRANCH  17  18
BRANCH  21  22
ATOM     22  O   UNL     1      -1.200   2.047   0.019  0.00  0.00    -0.299 OA
ATOM     23  C   UNL     1      -2.389   1.256   0.020  0.00  0.00    +0.239 C 
ENDBRANCH  21  22
TORSDOF 5
