REMARK  Name = ZINC85849252
REMARK  9 active torsions:
REMARK  status: ('A' for Active; 'I' for Inactive)
REMARK    1  A    between atoms: C1_1  and  N1_2
REMARK    2  A    between atoms: C6_7  and  O6_46
REMARK    3  A    between atoms: C7_8  and  O5_45
REMARK    4  A    between atoms: C22_25  and  O3_29
REMARK    5  A    between atoms: C23_26  and  O2_27
REMARK    6  A    between atoms: O2_27  and  C24_28
REMARK    7  A    between atoms: O3_29  and  C25_30
REMARK    8  A    between atoms: N2_33  and  C36_44
REMARK    9  A    between atoms: O6_46  and  C37_47
REMARK                            x       y       z     vdW  Elec       q    Type
REMARK                         _______ _______ _______ _____ _____    ______ ____
ROOT
ATOM      1  C   UNL     1      -0.018   1.465   0.010  0.00  0.00    +0.186 C 
ATOM      2  N   UNL     1       0.002  -0.004   0.002  0.00  0.00    -0.518 NA
ATOM      3  C   UNL     1       0.645  -0.515  -1.217  0.00  0.00    +0.214 C 
ATOM      4  C   UNL     1       2.022   0.126  -1.365  0.00  0.00    +0.048 C 
ATOM      5  C   UNL     1       2.786   0.124  -0.069  0.00  0.00    -0.017 A 
ATOM      6  C   UNL     1       4.148   0.391  -0.089  0.00  0.00    -0.085 A 
ATOM      7  C   UNL     1       4.871   0.399   1.094  0.00  0.00    +0.133 A 
ATOM     10  C   UNL     1       4.239   0.161   2.310  0.00  0.00    +0.016 A 
ATOM     13  C   UNL     1       2.875  -0.102   2.326  0.00  0.00    +0.151 A 
ATOM     14  O   UNL     1       2.196  -0.281   3.471  0.00  0.00    -0.249 OA
ATOM     15  C   UNL     1       2.572  -1.032   4.516  0.00  0.00    +0.120 A 
ATOM     16  C   UNL     1       2.532  -2.417   4.459  0.00  0.00    +0.002 A 
ATOM     17  C   UNL     1       2.716  -3.161   5.609  0.00  0.00    +0.025 A 
ATOM     18  C   UNL     1       2.947  -2.527   6.814  0.00  0.00    -0.082 A 
ATOM     19  C   UNL     1       3.072  -1.148   6.859  0.00  0.00    +0.015 A 
ATOM     20  C   UNL     1       3.098  -3.317   8.087  0.00  0.00    +0.093 C 
ATOM     21  C   UNL     1       2.215  -4.570   8.038  0.00  0.00    +0.245 C 
ATOM     22  N   UNL     1       2.836  -5.610   8.835  0.00  0.00    -0.570 NA
ATOM     23  C   UNL     1       3.038  -6.830   8.043  0.00  0.00    +0.202 C 
ATOM     24  C   UNL     1       2.283  -5.920  10.134  0.00  0.00    +0.196 C 
ATOM     25  C   UNL     1       1.629  -4.711  10.805  0.00  0.00    +0.094 C 
ATOM     26  C   UNL     1       0.550  -4.204   9.873  0.00  0.00    -0.028 A 
ATOM     27  C   UNL     1      -0.684  -3.801  10.322  0.00  0.00    -0.059 A 
ATOM     28  C   UNL     1      -1.669  -3.441   9.410  0.00  0.00    +0.133 A 
ATOM     31  C   UNL     1      -1.406  -3.514   8.046  0.00  0.00    +0.029 A 
ATOM     34  C   UNL     1      -0.156  -3.940   7.602  0.00  0.00    +0.142 A 
ATOM     35  O   UNL     1       0.111  -4.069   6.287  0.00  0.00    -0.259 OA
ATOM     36  C   UNL     1       0.069  -3.042   5.414  0.00  0.00    +0.139 A 
ATOM     37  C   UNL     1       0.139  -3.353   4.057  0.00  0.00    -0.017 A 
ATOM     38  C   UNL     1       0.136  -2.355   3.112  0.00  0.00    +0.023 A 
ATOM     39  C   UNL     1       0.057  -1.032   3.512  0.00  0.00    -0.062 A 
ATOM     40  C   UNL     1      -0.034  -0.715   4.851  0.00  0.00    +0.043 A 
ATOM     41  C   UNL     1       0.071   0.042   2.450  0.00  0.00    +0.104 C 
ATOM     42  C   UNL     1      -0.028  -1.718   5.808  0.00  0.00    -0.037 A 
ATOM     43  C   UNL     1       0.843  -4.231   8.524  0.00  0.00    -0.136 A 
ATOM     44  C   UNL     1       2.889  -0.402   5.715  0.00  0.00    +0.002 A 
ATOM     45  C   UNL     1       2.161  -0.148   1.129  0.00  0.00    -0.158 A 
ATOM     46  C   UNL     1       0.706  -0.527   1.180  0.00  0.00    +0.227 C 
ENDROOT
BRANCH   7   8
ATOM      8  O   UNL     1       6.209   0.642   1.065  0.00  0.00    -0.305 OA
ATOM      9  C   UNL     1       6.798   0.878  -0.216  0.00  0.00    +0.241 C 
ENDBRANCH   7   8
BRANCH  10  11
ATOM     11  O   UNL     1       4.948   0.185   3.471  0.00  0.00    -0.471 OA
ATOM     12  H   UNL     1       4.988   1.056   3.890  0.00  0.00    +0.381 HD
ENDBRANCH  10  11
BRANCH  28  29
ATOM     29  O   UNL     1      -2.885  -3.020   9.849  0.00  0.00    -0.302 OA
ATOM     30  C   UNL     1      -3.082  -2.971  11.264  0.00  0.00    +0.243 C 
ENDBRANCH  28  29
BRANCH  31  32
ATOM     32  O   UNL     1      -2.368  -3.169   7.147  0.00  0.00    -0.312 OA
ATOM     33  C   UNL     1      -3.242  -4.207   6.702  0.00  0.00    +0.221 C 
ENDBRANCH  31  32
TORSDOF 4
