REMARK  Name = ZINC95486105
REMARK  4 active torsions:
REMARK  status: ('A' for Active; 'I' for Inactive)
REMARK    1  A    between atoms: C2_2  and  C3_3
REMARK    2  A    between atoms: C4_4  and  C5_5
REMARK    3  A    between atoms: C6_6  and  C7_7
REMARK    4  A    between atoms: C10_10  and  C11_13
REMARK                            x       y       z     vdW  Elec       q    Type
REMARK                         _______ _______ _______ _____ _____    ______ ____
ROOT
ATOM      7  C   UNL     1       5.752  -3.220  -0.070  0.00  0.00    -0.015 C 
ATOM      8  C   UNL     1       6.924  -2.517  -0.072  0.00  0.00    +0.080 C 
ATOM      9  C   UNL     1       8.209  -3.017  -0.099  0.00  0.00    +0.061 C 
ATOM     10  C   UNL     1       8.622  -4.239  -0.541  0.00  0.00    -0.002 C 
ATOM     13  S   UNL     1       7.455  -5.397  -1.195  0.00  0.00    -0.009 S 
ATOM     14  S   UNL     1       5.770  -4.989  -0.080  0.00  0.00    -0.004 S 
ENDROOT
BRANCH   7   6
ATOM      5  C   UNL     1       3.478  -1.948  -0.042  0.00  0.00    -0.005 C 
ATOM      6  C   UNL     1       4.503  -2.522  -0.055  0.00  0.00    -0.086 C 
BRANCH   5   4
ATOM      3  C   UNL     1       1.252  -0.703  -0.014  0.00  0.00    -0.062 C 
ATOM      4  C   UNL     1       2.276  -1.276  -0.026  0.00  0.00    -0.083 C 
BRANCH   3   2
ATOM      1  C   UNL     1      -0.016   1.333   0.009  0.00  0.00    +0.095 C 
ATOM      2  C   UNL     1       0.002  -0.004   0.002  0.00  0.00    +0.070 C 
ENDBRANCH   3   2
ENDBRANCH   5   4
ENDBRANCH   7   6
BRANCH  10  11
ATOM     11  C   UNL     1      10.009  -4.588  -0.476  0.00  0.00    -0.160 C 
ATOM     12  C   UNL     1      11.146  -4.874  -0.423  0.00  0.00    +0.119 C 
ENDBRANCH  10  11
TORSDOF 4
