REMARK  Name = ZINC95485965
REMARK  18 active torsions:
REMARK  status: ('A' for Active; 'I' for Inactive)
REMARK    1  A    between atoms: C1_1  and  C2_2
REMARK    2  A    between atoms: C4_4  and  O4_37
REMARK    3  A    between atoms: C7_7  and  C8_8
REMARK    4  A    between atoms: C8_8  and  C9_9
REMARK    5  A    between atoms: C9_9  and  C10_10
REMARK    6  A    between atoms: C11_11  and  C12_12
REMARK    7  A    between atoms: C11_11  and  C13_13
REMARK    8  A    between atoms: C17_17  and  O1_18
REMARK    9  A    between atoms: C21_23  and  C22_24
REMARK   10  A    between atoms: C21_23  and  C28_30
REMARK   11  A    between atoms: C22_24  and  C23_25
REMARK   12  A    between atoms: C23_25  and  C24_26
REMARK   13  A    between atoms: C25_27  and  C26_28
REMARK   14  A    between atoms: C25_27  and  C27_29
REMARK   15  A    between atoms: C28_30  and  C29_31
REMARK   16  A    between atoms: C29_31  and  C30_32
REMARK   17  A    between atoms: C31_33  and  C32_34
REMARK   18  A    between atoms: C31_33  and  C33_35
REMARK                            x       y       z     vdW  Elec       q    Type
REMARK                         _______ _______ _______ _____ _____    ______ ____
ROOT
ATOM      1  C   UNL     1      -0.578   0.814   2.338  0.00  0.00    +0.098 C 
ATOM      2  C   UNL     1      -0.455  -0.345   3.294  0.00  0.00    -0.041 A 
ATOM      3  C   UNL     1       0.737  -1.059   3.353  0.00  0.00    -0.014 A 
ATOM      4  C   UNL     1       0.876  -2.124   4.217  0.00  0.00    +0.143 A 
ATOM      7  C   UNL     1      -0.204  -2.489   5.046  0.00  0.00    -0.123 A 
ATOM      8  C   UNL     1      -1.412  -1.752   4.981  0.00  0.00    +0.017 A 
ATOM      9  C   UNL     1      -2.490  -2.106   5.814  0.00  0.00    +0.018 A 
ATOM     10  C   UNL     1      -2.388  -3.153   6.678  0.00  0.00    -0.004 A 
ATOM     11  C   UNL     1      -1.201  -3.906   6.742  0.00  0.00    -0.211 A 
ATOM     12  C   UNL     1      -1.080  -5.062   7.639  0.00  0.00    +0.403 C 
ATOM     13  C   UNL     1      -2.110  -5.243   8.733  0.00  0.00    +0.040 C 
ATOM     14  C   UNL     1      -3.448  -4.849   8.136  0.00  0.00    +0.379 C 
ATOM     15  O   UNL     1      -4.378  -5.619   8.129  0.00  0.00    -0.420 OA
ATOM     16  O   UNL     1      -0.172  -5.857   7.506  0.00  0.00    -0.420 OA
ATOM     17  C   UNL     1      -3.577  -3.465   7.552  0.00  0.00    -0.066 C 
ATOM     30  C   UNL     1      -0.106  -3.573   5.935  0.00  0.00    +0.216 A 
ATOM     33  C   UNL     1      -1.512  -0.672   4.090  0.00  0.00    -0.092 A 
ENDROOT
BRANCH   4   5
ATOM      5  O   UNL     1       2.043  -2.816   4.268  0.00  0.00    -0.478 OA
ATOM      6  H   UNL     1       2.677  -2.469   4.910  0.00  0.00    +0.389 HD
ENDBRANCH   4   5
BRANCH  30  31
ATOM     31  O   UNL     1       1.040  -4.290   6.011  0.00  0.00    -0.458 OA
ATOM     32  H   UNL     1       1.671  -3.956   6.662  0.00  0.00    +0.393 HD
ENDBRANCH  30  31
BRANCH  17  18
ATOM     18  C   UNL     1      -4.856  -3.385   6.716  0.00  0.00    +0.062 C 
BRANCH  18  19
ATOM     19  C   UNL     1      -4.816  -4.450   5.620  0.00  0.00    +0.045 C 
BRANCH  19  20
ATOM     20  C   UNL     1      -6.124  -4.451   4.872  0.00  0.00    -0.053 C 
ATOM     21  C   UNL     1      -6.132  -4.352   3.566  0.00  0.00    -0.131 C 
ATOM     22  C   UNL     1      -7.441  -4.263   2.825  0.00  0.00    +0.071 C 
ATOM     23  C   UNL     1      -4.832  -4.326   2.804  0.00  0.00    +0.069 C 
ENDBRANCH  19  20
ENDBRANCH  18  19
ENDBRANCH  17  18
BRANCH  17  24
ATOM     24  C   UNL     1      -3.653  -2.441   8.687  0.00  0.00    +0.066 C 
BRANCH  24  25
ATOM     25  C   UNL     1      -4.778  -2.829   9.648  0.00  0.00    +0.048 C 
BRANCH  25  26
ATOM     26  C   UNL     1      -4.919  -1.768  10.710  0.00  0.00    -0.058 C 
ATOM     27  C   UNL     1      -4.891  -2.101  11.976  0.00  0.00    -0.128 C 
ATOM     28  C   UNL     1      -4.900  -1.031  13.037  0.00  0.00    +0.073 C 
ATOM     29  C   UNL     1      -4.849  -3.554  12.373  0.00  0.00    +0.071 C 
ENDBRANCH  25  26
ENDBRANCH  24  25
ENDBRANCH  17  24
BRANCH  33  34
ATOM     34  C   UNL     1      -2.790   0.122   4.010  0.00  0.00    +0.078 C 
BRANCH  34  35
ATOM     35  C   UNL     1      -3.692  -0.471   2.925  0.00  0.00    +0.059 C 
BRANCH  35  36
ATOM     36  C   UNL     1      -4.919   0.389   2.767  0.00  0.00    -0.059 C 
ATOM     37  C   UNL     1      -5.226   0.883   1.593  0.00  0.00    -0.128 C 
ATOM     38  C   UNL     1      -6.518   1.637   1.408  0.00  0.00    +0.071 C 
ATOM     39  C   UNL     1      -4.287   0.698   0.429  0.00  0.00    +0.071 C 
ENDBRANCH  35  36
ENDBRANCH  34  35
ENDBRANCH  33  34
TORSDOF 11
