REMARK  Name = ZINC95486031
REMARK  2 active torsions:
REMARK  status: ('A' for Active; 'I' for Inactive)
REMARK    1  A    between atoms: C1_1  and  C2_2
REMARK    2  A    between atoms: C9_11  and  C16_20
REMARK                            x       y       z     vdW  Elec       q    Type
REMARK                         _______ _______ _______ _____ _____    ______ ____
ROOT
ATOM      1  C   UNL     1       0.170   1.873   0.602  0.00  0.00    +0.038 C 
ATOM      2  C   UNL     1       0.009   0.358   0.570  0.00  0.00    +0.017 C 
ATOM      3  C   UNL     1       0.193  -0.175  -0.816  0.00  0.00    +0.005 C 
ATOM      4  C   UNL     1       1.233  -0.851  -1.269  0.00  0.00    -0.002 C 
ATOM      5  C   UNL     1       2.371  -1.138  -0.395  0.00  0.00    +0.026 C 
ATOM      6  C   UNL     1       2.949  -2.313  -0.113  0.00  0.00    -0.122 C 
ATOM      7  C   UNL     1       4.094  -2.168   0.691  0.00  0.00    +0.396 C 
ATOM      8  C   UNL     1       4.448  -0.691   0.676  0.00  0.00    +0.021 C 
ATOM      9  O   UNL     1       4.697  -3.050   1.264  0.00  0.00    -0.455 OA
ATOM     10  C   UNL     1       3.083  -0.020   0.373  0.00  0.00    -0.035 C 
ATOM     11  C   UNL     1       3.254   1.267  -0.449  0.00  0.00    +0.063 C 
ATOM     12  C   UNL     1       2.322   0.188   1.692  0.00  0.00    +0.022 C 
ATOM     13  C   UNL     1       3.079  -0.509   2.825  0.00  0.00    +0.011 C 
ATOM     14  C   UNL     1       2.336  -0.364   4.155  0.00  0.00    +0.006 C 
ATOM     15  C   UNL     1       0.950  -1.000   4.016  0.00  0.00    +0.003 C 
ATOM     16  C   UNL     1       0.182  -0.217   2.952  0.00  0.00    +0.011 C 
ATOM     17  C   UNL     1       0.893  -0.343   1.595  0.00  0.00    -0.006 C 
ENDROOT
TORSDOF 0
