REMARK  Name = ZINC95486220
REMARK  10 active torsions:
REMARK  status: ('A' for Active; 'I' for Inactive)
REMARK    1  A    between atoms: C1_1  and  C2_2
REMARK    2  A    between atoms: C5_7  and  C27_38
REMARK    3  A    between atoms: N1_13  and  C12_16
REMARK    4  A    between atoms: C12_16  and  C13_17
REMARK    5  A    between atoms: C13_17  and  O2_18
REMARK    6  A    between atoms: O2_18  and  C14_19
REMARK    7  A    between atoms: C14_19  and  C15_21
REMARK    8  A    between atoms: C24_32  and  O4_34
REMARK    9  A    between atoms: O4_34  and  C25_35
REMARK   10  A    between atoms: C25_35  and  C26_37
REMARK                            x       y       z     vdW  Elec       q    Type
REMARK                         _______ _______ _______ _____ _____    ______ ____
ROOT
ATOM      1  C   UNL     1      -0.019   1.527   0.010  0.00  0.00    +0.012 C 
ATOM      2  C   UNL     1       0.002  -0.004   0.002  0.00  0.00    -0.001 C 
ATOM      3  C   UNL     1      -1.438  -0.515  -0.066  0.00  0.00    +0.021 C 
ATOM      4  C   UNL     1      -1.709  -1.567   0.997  0.00  0.00    +0.026 C 
ATOM      5  C   UNL     1      -3.144  -2.095   0.900  0.00  0.00    -0.070 C 
ATOM      6  C   UNL     1      -3.439  -2.646  -0.498  0.00  0.00    +0.063 C 
ATOM      7  C   UNL     1      -3.322  -3.210   1.947  0.00  0.00    +0.041 C 
ATOM      8  C   UNL     1      -3.129  -2.608   3.340  0.00  0.00    +0.003 C 
ATOM      9  C   UNL     1      -1.720  -2.028   3.455  0.00  0.00    +0.038 C 
ATOM     10  C   UNL     1      -4.104  -0.989   1.246  0.00  0.00    +0.534 C 
ATOM     11  O   UNL     1      -5.232  -1.026   0.805  0.00  0.00    -0.526 OA
ATOM     12  N   UNL     1      -3.746   0.029   2.027  0.00  0.00    -0.600 N 
ATOM     19  C   UNL     1      -2.433   0.213   2.608  0.00  0.00    +0.252 C 
ATOM     20  C   UNL     1      -1.480  -0.966   2.386  0.00  0.00    -0.039 C 
ATOM     21  C   UNL     1      -0.060  -0.416   2.486  0.00  0.00    +0.005 C 
ATOM     22  C   UNL     1       0.704  -0.944   3.693  0.00  0.00    +0.030 C 
ATOM     23  C   UNL     1       2.024  -1.578   3.231  0.00  0.00    +0.037 C 
ATOM     24  C   UNL     1       2.822  -0.517   2.491  0.00  0.00    -0.140 C 
ATOM     25  C   UNL     1       2.053   0.257   1.426  0.00  0.00    +0.222 C 
ATOM     30  C   UNL     1       4.086  -0.281   2.747  0.00  0.00    +0.029 C 
ATOM     31  C   UNL     1       1.665  -2.673   2.213  0.00  0.00    +0.023 C 
ATOM     32  C   UNL     1       1.193  -1.991   0.929  0.00  0.00    +0.028 C 
ATOM     33  C   UNL     1       0.750  -0.554   1.206  0.00  0.00    -0.016 C 
ENDROOT
BRANCH  12  13
ATOM     13  C   UNL     1      -4.765   1.043   2.318  0.00  0.00    +0.305 C 
BRANCH  13  14
ATOM     14  C   UNL     1      -4.710   2.143   1.256  0.00  0.00    +0.192 C 
BRANCH  14  15
ATOM     15  O   UNL     1      -5.071   1.597  -0.014  0.00  0.00    -0.330 OA
BRANCH  15  16
ATOM     16  C   UNL     1      -5.072   2.438  -1.061  0.00  0.00    +0.457 C 
ATOM     17  C   UNL     1      -5.443   1.934  -2.432  0.00  0.00    +0.152 C 
ATOM     18  O   UNL     1      -4.776   3.598  -0.904  0.00  0.00    -0.518 OA
ENDBRANCH  15  16
ENDBRANCH  14  15
ENDBRANCH  13  14
ENDBRANCH  12  13
BRANCH  25  26
ATOM     26  O   UNL     1       2.811   0.313   0.220  0.00  0.00    -0.332 OA
BRANCH  26  27
ATOM     27  C   UNL     1       3.573   1.402   0.029  0.00  0.00    +0.456 C 
ATOM     28  C   UNL     1       4.402   1.531  -1.223  0.00  0.00    +0.154 C 
ATOM     29  O   UNL     1       3.594   2.278   0.861  0.00  0.00    -0.509 OA
ENDBRANCH  26  27
ENDBRANCH  25  26
TORSDOF 6
