REMARK  Name = ZINC00898052
REMARK  0 active torsions:
REMARK  status: ('A' for Active; 'I' for Inactive)
REMARK                            x       y       z     vdW  Elec       q    Type
REMARK                         _______ _______ _______ _____ _____    ______ ____
ROOT
ATOM      1  C   UNL     1       5.067  -3.174  -0.071  0.00  0.00    +0.012 A 
ATOM      2  C   UNL     1       5.637  -1.911  -0.069  0.00  0.00    +0.060 A 
ATOM      3  C   UNL     1       4.842  -0.784  -0.053  0.00  0.00    +0.029 A 
ATOM      4  C   UNL     1       3.458  -0.904  -0.038  0.00  0.00    +0.130 A 
ATOM      5  C   UNL     1       2.879  -2.189  -0.039  0.00  0.00    -0.087 A 
ATOM      6  C   UNL     1       1.421  -1.991  -0.023  0.00  0.00    -0.035 A 
ATOM      7  C   UNL     1       0.259  -2.752  -0.016  0.00  0.00    +0.065 A 
ATOM      8  C   UNL     1      -0.966  -2.094  -0.000  0.00  0.00    +0.256 A 
ATOM      9  N   UNL     1      -1.078  -0.778   0.008  0.00  0.00    -0.422 NA
ATOM     10  C   UNL     1       0.002  -0.004   0.002  0.00  0.00    +0.103 A 
ATOM     11  C   UNL     1      -0.018   1.464   0.010  0.00  0.00    +0.176 A 
ATOM     12  C   UNL     1       1.182   2.102   0.002  0.00  0.00    -0.027 A 
ATOM     13  C   UNL     1       2.410   1.398  -0.013  0.00  0.00    +0.544 A 
ATOM     14  O   UNL     1       3.457   2.021  -0.018  0.00  0.00    -0.499 OA
ATOM     15  C   UNL     1       1.253  -0.609  -0.014  0.00  0.00    +0.062 A 
ATOM     16  N   UNL     1       2.441   0.048  -0.022  0.00  0.00    -0.443 N 
ATOM     17  C   UNL     1       3.696  -3.315  -0.057  0.00  0.00    +0.077 A 
ENDROOT
TORSDOF 0
