REMARK  Name = ZINC95486024
REMARK  7 active torsions:
REMARK  status: ('A' for Active; 'I' for Inactive)
REMARK    1  A    between atoms: C1_1  and  N1_2
REMARK    2  A    between atoms: C7_8  and  O1_9
REMARK    3  A    between atoms: O1_9  and  C8_10
REMARK    4  A    between atoms: C12_15  and  O6_24
REMARK    5  A    between atoms: C15_18  and  O3_19
REMARK    6  A    between atoms: O3_19  and  C16_20
REMARK    7  A    between atoms: O6_24  and  C18_25
REMARK                            x       y       z     vdW  Elec       q    Type
REMARK                         _______ _______ _______ _____ _____    ______ ____
ROOT
ATOM      1  C   UNL     1       0.028   1.472   0.018  0.00  0.00    +0.339 C 
ATOM      2  N   UNL     1       0.048   0.007   0.004  0.00  0.00    -0.508 N 
ATOM      3  C   UNL     1      -0.031  -0.656  -1.206  0.00  0.00    +0.192 A 
ATOM      4  C   UNL     1       0.288  -2.021  -1.291  0.00  0.00    -0.173 A 
ATOM      5  C   UNL     1       0.699  -2.735  -0.067  0.00  0.00    +0.448 A 
ATOM      6  C   UNL     1       0.473  -2.048   1.214  0.00  0.00    -0.225 A 
ATOM      7  C   UNL     1       0.579  -2.737   2.430  0.00  0.00    +0.211 A 
ATOM     10  C   UNL     1       0.371  -2.066   3.619  0.00  0.00    -0.027 A 
ATOM     11  O   UNL     1       0.413  -2.496   4.916  0.00  0.00    -0.292 OA
ATOM     12  C   UNL     1       0.508  -1.301   5.712  0.00  0.00    +0.439 C 
ATOM     13  O   UNL     1      -0.125  -0.296   4.899  0.00  0.00    -0.292 OA
ATOM     14  C   UNL     1       0.040  -0.711   3.609  0.00  0.00    +0.105 A 
ATOM     15  C   UNL     1      -0.069  -0.021   2.408  0.00  0.00    +0.038 A 
ATOM     18  O   UNL     1       1.202  -3.843  -0.115  0.00  0.00    -0.442 OA
ATOM     19  C   UNL     1       0.210  -2.684  -2.517  0.00  0.00    +0.085 A 
ATOM     20  C   UNL     1      -0.183  -1.996  -3.643  0.00  0.00    +0.015 A 
ATOM     21  C   UNL     1      -0.502  -0.648  -3.564  0.00  0.00    -0.004 A 
ATOM     22  C   UNL     1      -0.429   0.025  -2.359  0.00  0.00    +0.075 A 
ATOM     25  C   UNL     1       0.151  -0.678   1.202  0.00  0.00    +0.244 A 
ENDROOT
BRANCH   7   8
ATOM      8  O   UNL     1       0.903  -4.057   2.440  0.00  0.00    -0.315 OA
ATOM      9  C   UNL     1       2.292  -4.384   2.510  0.00  0.00    +0.248 C 
ENDBRANCH   7   8
BRANCH  15  16
ATOM     16  O   UNL     1      -0.390   1.302   2.412  0.00  0.00    -0.314 OA
ATOM     17  C   UNL     1      -1.779   1.632   2.488  0.00  0.00    +0.225 C 
ENDBRANCH  15  16
BRANCH  22  23
ATOM     23  O   UNL     1      -0.744   1.346  -2.296  0.00  0.00    -0.311 OA
ATOM     24  C   UNL     1      -1.143   1.977  -3.514  0.00  0.00    +0.238 C 
ENDBRANCH  22  23
TORSDOF 3
