REMARK  Name = ZINC06119190
REMARK  0 active torsions:
REMARK  status: ('A' for Active; 'I' for Inactive)
REMARK                            x       y       z     vdW  Elec       q    Type
REMARK                         _______ _______ _______ _____ _____    ______ ____
ROOT
ATOM      1  C   UNL     1       1.644  -2.034  -0.032  0.00  0.00    -0.035 A 
ATOM      2  C   UNL     1       2.987  -2.037  -0.051  0.00  0.00    +0.209 A 
ATOM      3  O   UNL     1       3.457  -0.772  -0.052  0.00  0.00    -0.188 OA
ATOM      4  C   UNL     1       2.451   0.106  -0.033  0.00  0.00    +0.095 A 
ATOM      5  C   UNL     1       2.419   1.494  -0.022  0.00  0.00    +0.015 A 
ATOM      6  C   UNL     1       1.167   2.104   0.002  0.00  0.00    +0.163 A 
ATOM      7  O   UNL     1       1.129   3.467   0.032  0.00  0.00    -0.303 OA
ATOM      8  C   UNL     1       0.011   4.034   0.721  0.00  0.00    +0.263 C 
ATOM      9  C   UNL     1      -1.275   3.578   0.032  0.00  0.00    +0.017 C 
ATOM     10  C   UNL     1      -1.362   2.042   0.018  0.00  0.00    +0.245 C 
ATOM     11  O   UNL     1      -2.061   1.735   1.238  0.00  0.00    -0.285 OA
ATOM     12  C   UNL     1      -2.850   2.783   1.567  0.00  0.00    +0.124 A 
ATOM     13  C   UNL     1      -3.935   2.781   2.454  0.00  0.00    +0.041 A 
ATOM     14  C   UNL     1      -4.571   4.011   2.611  0.00  0.00    +0.072 A 
ATOM     15  O   UNL     1      -5.635   4.319   3.391  0.00  0.00    -0.303 OA
ATOM     16  C   UNL     1      -5.635   5.757   3.496  0.00  0.00    +0.435 C 
ATOM     17  O   UNL     1      -4.969   6.195   2.294  0.00  0.00    -0.305 OA
ATOM     18  C   UNL     1      -4.162   5.168   1.934  0.00  0.00    -0.003 A 
ATOM     19  C   UNL     1      -3.083   5.172   1.049  0.00  0.00    +0.123 A 
ATOM     20  C   UNL     1      -2.456   3.945   0.897  0.00  0.00    -0.177 A 
ATOM     21  C   UNL     1      -0.017   1.378   0.010  0.00  0.00    -0.178 A 
ATOM     22  C   UNL     1       0.002  -0.004   0.002  0.00  0.00    +0.140 A 
ATOM     23  C   UNL     1       1.244  -0.633  -0.019  0.00  0.00    -0.165 A 
ENDROOT
TORSDOF 0
