REMARK  Name = ZINC95486086
REMARK  19 active torsions:
REMARK  status: ('A' for Active; 'I' for Inactive)
REMARK    1  A    between atoms: C1_1  and  C2_2
REMARK    2  A    between atoms: C2_2  and  C3_3
REMARK    3  A    between atoms: C4_4  and  C5_5
REMARK    4  A    between atoms: C4_4  and  C6_6
REMARK    5  A    between atoms: C6_6  and  C7_7
REMARK    6  A    between atoms: C7_7  and  C8_8
REMARK    7  A    between atoms: C8_8  and  C9_9
REMARK    8  A    between atoms: C9_9  and  C10_11
REMARK    9  A    between atoms: C9_9  and  C11_12
REMARK   10  A    between atoms: C11_12  and  C12_13
REMARK   11  A    between atoms: C12_13  and  C13_14
REMARK   12  A    between atoms: C13_14  and  C14_15
REMARK   13  A    between atoms: C14_15  and  C15_17
REMARK   14  A    between atoms: C14_15  and  C16_18
REMARK   15  A    between atoms: C16_18  and  C17_19
REMARK   16  A    between atoms: C17_19  and  C18_20
REMARK   17  A    between atoms: C18_20  and  C19_21
REMARK   18  A    between atoms: C19_21  and  C20_22
REMARK   19  A    between atoms: C19_21  and  C21_23
REMARK                            x       y       z     vdW  Elec       q    Type
REMARK                         _______ _______ _______ _____ _____    ______ ____
ROOT
ATOM      9  C   UNL     1       2.426  -5.553   3.385  0.00  0.00    +0.005 C 
ENDROOT
BRANCH   9   8
ATOM      8  C   UNL     1       1.845  -5.046   2.063  0.00  0.00    -0.024 C 
ATOM     20  C   UNL     1       0.317  -5.110   2.120  0.00  0.00    +0.012 C 
BRANCH   8   7
ATOM      7  C   UNL     1       2.287  -3.600   1.833  0.00  0.00    +0.006 C 
BRANCH   7   6
ATOM      6  C   UNL     1       1.811  -3.134   0.455  0.00  0.00    +0.012 C 
BRANCH   6   5
ATOM      5  C   UNL     1       2.252  -1.688   0.225  0.00  0.00    +0.050 C 
BRANCH   5   4
ATOM      3  C   UNL     1       0.630  -0.622  -1.256  0.00  0.00    -0.058 C 
ATOM      4  C   UNL     1       1.784  -1.229  -1.132  0.00  0.00    -0.129 C 
ATOM     21  C   UNL     1       2.642  -1.470  -2.347  0.00  0.00    +0.070 C 
BRANCH   3   2
ATOM      1  C   UNL     1      -0.528   0.964   0.260  0.00  0.00    +0.013 C 
ATOM      2  C   UNL     1      -0.295  -0.512  -0.070  0.00  0.00    +0.040 C 
ENDBRANCH   3   2
ENDBRANCH   5   4
ENDBRANCH   6   5
ENDBRANCH   7   6
ENDBRANCH   8   7
ENDBRANCH   9   8
BRANCH   9  10
ATOM     10  C   UNL     1       2.089  -7.035   3.556  0.00  0.00    +0.003 C 
BRANCH  10  11
ATOM     11  C   UNL     1       2.670  -7.542   4.878  0.00  0.00    +0.005 C 
BRANCH  11  12
ATOM     12  C   UNL     1       2.332  -9.024   5.048  0.00  0.00    -0.024 C 
ATOM     19  C   UNL     1       0.817  -9.191   5.182  0.00  0.00    +0.012 C 
BRANCH  12  13
ATOM     13  C   UNL     1       3.017  -9.561   6.306  0.00  0.00    +0.005 C 
BRANCH  13  14
ATOM     14  C   UNL     1       2.784 -11.070   6.410  0.00  0.00    +0.003 C 
BRANCH  14  15
ATOM     15  C   UNL     1       3.469 -11.607   7.668  0.00  0.00    +0.005 C 
BRANCH  15  16
ATOM     16  C   UNL     1       3.235 -13.116   7.771  0.00  0.00    -0.031 C 
ATOM     17  C   UNL     1       3.812 -13.632   9.091  0.00  0.00    +0.012 C 
ATOM     18  C   UNL     1       3.926 -13.820   6.602  0.00  0.00    +0.012 C 
ENDBRANCH  15  16
ENDBRANCH  14  15
ENDBRANCH  13  14
ENDBRANCH  12  13
ENDBRANCH  11  12
ENDBRANCH  10  11
ENDBRANCH   9  10
TORSDOF 13
