REMARK  Name = ZINC95486113
REMARK  9 active torsions:
REMARK  status: ('A' for Active; 'I' for Inactive)
REMARK    1  A    between atoms: C1_1  and  C2_2
REMARK    2  A    between atoms: C6_7  and  C29_36
REMARK    3  A    between atoms: C6_7  and  O4_37
REMARK    4  A    between atoms: C9_10  and  O3_35
REMARK    5  A    between atoms: C10_12  and  C28_34
REMARK    6  A    between atoms: C14_17  and  C27_33
REMARK    7  A    between atoms: C18_21  and  C26_30
REMARK    8  A    between atoms: C21_25  and  C24_28
REMARK    9  A    between atoms: C21_25  and  C25_29
REMARK                            x       y       z     vdW  Elec       q    Type
REMARK                         _______ _______ _______ _____ _____    ______ ____
ROOT
ATOM      1  C   UNL     1      -1.496   2.387   0.492  0.00  0.00    +0.031 C 
ATOM      2  C   UNL     1      -1.372   0.884   0.178  0.00  0.00    +0.002 C 
ATOM      3  C   UNL     1      -1.765   0.638  -1.281  0.00  0.00    +0.009 C 
ATOM      4  C   UNL     1      -0.676   1.170  -2.219  0.00  0.00    +0.020 C 
ATOM      5  C   UNL     1       0.646   0.478  -1.904  0.00  0.00    +0.015 C 
ATOM      6  C   UNL     1       1.694   0.729  -2.971  0.00  0.00    +0.144 C 
ATOM      9  C   UNL     1       1.194   0.199  -4.325  0.00  0.00    -0.001 C 
ATOM     10  C   UNL     1       2.974  -0.042  -2.625  0.00  0.00    -0.012 C 
ATOM     11  C   UNL     1       3.466   0.377  -1.244  0.00  0.00    -0.013 C 
ATOM     12  C   UNL     1       2.411   0.083  -0.180  0.00  0.00    +0.164 C 
ATOM     15  C   UNL     1       1.104   0.831  -0.486  0.00  0.00    -0.022 C 
ATOM     16  C   UNL     1       1.378   2.317  -0.319  0.00  0.00    +0.043 C 
ATOM     17  C   UNL     1      -2.392   0.183   1.073  0.00  0.00    -0.116 C 
ATOM     18  C   UNL     1      -3.648   0.461   0.852  0.00  0.00    -0.015 C 
ATOM     19  C   UNL     1      -4.733  -0.075   1.746  0.00  0.00    +0.047 C 
ATOM     20  C   UNL     1      -4.144  -0.094   3.165  0.00  0.00    -0.112 C 
ATOM     24  C   UNL     1      -3.000  -1.099   3.176  0.00  0.00    +0.019 C 
ATOM     25  C   UNL     1      -3.516  -2.517   2.977  0.00  0.00    +0.017 C 
ATOM     26  C   UNL     1      -4.631  -2.879   3.964  0.00  0.00    -0.066 C 
ATOM     27  C   UNL     1      -5.185  -4.261   3.580  0.00  0.00    +0.006 C 
ATOM     28  C   UNL     1      -4.066  -2.960   5.382  0.00  0.00    +0.017 C 
ATOM     29  C   UNL     1      -5.762  -1.861   3.891  0.00  0.00    +0.002 C 
ATOM     30  C   UNL     1      -5.231  -0.461   4.170  0.00  0.00    +0.014 C 
ATOM     31  C   UNL     1      -1.921  -0.742   2.151  0.00  0.00    +0.013 C 
ATOM     32  C   UNL     1      -1.484  -2.060   1.500  0.00  0.00    +0.003 C 
ATOM     33  C   UNL     1      -0.710  -0.147   2.861  0.00  0.00    +0.009 C 
ATOM     34  C   UNL     1       0.368   0.385   1.922  0.00  0.00    +0.022 C 
ATOM     35  C   UNL     1       0.009   0.321   0.457  0.00  0.00    -0.001 C 
ENDROOT
BRANCH  20  21
ATOM     21  C   UNL     1      -3.643   1.287   3.517  0.00  0.00    +0.513 C 
ATOM     22  O   UNL     1      -3.011   1.462   4.544  0.00  0.00    -0.704 OA
ATOM     23  O   UNL     1      -3.870   2.226   2.773  0.00  0.00    -0.686 OA
ENDBRANCH  20  21
BRANCH   6   7
ATOM      7  O   UNL     1       1.990   2.116  -3.113  0.00  0.00    -0.544 OA
ATOM      8  H   UNL     1       2.656   2.309  -3.787  0.00  0.00    +0.367 HD
ENDBRANCH   6   7
BRANCH  12  13
ATOM     13  O   UNL     1       2.932   0.549   1.074  0.00  0.00    -0.553 OA
ATOM     14  H   UNL     1       3.760   0.124   1.338  0.00  0.00    +0.365 HD
ENDBRANCH  12  13
TORSDOF 3
