REMARK  Name = ZINC40431237
REMARK  8 active torsions:
REMARK  status: ('A' for Active; 'I' for Inactive)
REMARK    1  A    between atoms: C1_1  and  C2_2
REMARK    2  A    between atoms: C3_3  and  O3_33
REMARK    3  A    between atoms: C11_12  and  C28_32
REMARK    4  A    between atoms: C14_15  and  C27_31
REMARK    5  A    between atoms: C15_16  and  C26_30
REMARK    6  A    between atoms: C18_19  and  C25_29
REMARK    7  A    between atoms: C21_23  and  C24_27
REMARK    8  A    between atoms: C24_27  and  O2_28
REMARK                            x       y       z     vdW  Elec       q    Type
REMARK                         _______ _______ _______ _____ _____    ______ ____
ROOT
ATOM      1  C   UNL     1      -0.076   1.465  -0.676  0.00  0.00    +0.107 C 
ATOM      2  C   UNL     1       0.004  -0.026  -0.477  0.00  0.00    -0.069 C 
ATOM      3  C   UNL     1      -0.014  -0.836  -1.571  0.00  0.00    +0.009 C 
ATOM      6  C   UNL     1       0.068  -2.239  -1.411  0.00  0.00    +0.380 C 
ATOM      7  C   UNL     1       0.235  -2.790  -0.127  0.00  0.00    -0.110 C 
ATOM      8  C   UNL     1       0.255  -1.984   0.969  0.00  0.00    +0.025 C 
ATOM      9  C   UNL     1       0.488  -2.611   2.321  0.00  0.00    +0.002 C 
ATOM     10  C   UNL     1       1.980  -2.956   2.361  0.00  0.00    +0.069 C 
ATOM     11  C   UNL     1      -0.311  -3.908   2.418  0.00  0.00    +0.044 C 
ATOM     12  C   UNL     1      -0.389  -4.442   3.845  0.00  0.00    +0.026 C 
ATOM     13  C   UNL     1      -0.960  -3.387   4.798  0.00  0.00    -0.027 C 
ATOM     14  C   UNL     1      -2.278  -2.891   4.188  0.00  0.00    +0.025 C 
ATOM     15  C   UNL     1       0.020  -2.206   4.853  0.00  0.00    -0.015 C 
ATOM     16  C   UNL     1       1.383  -2.636   5.395  0.00  0.00    +0.046 C 
ATOM     17  C   UNL     1      -0.553  -1.138   5.784  0.00  0.00    +0.025 C 
ATOM     18  C   UNL     1      -0.664  -1.696   7.198  0.00  0.00    +0.019 C 
ATOM     19  C   UNL     1      -1.527  -2.957   7.259  0.00  0.00    -0.040 C 
ATOM     20  C   UNL     1      -1.213  -3.614   8.628  0.00  0.00    +0.013 C 
ATOM     21  C   UNL     1      -3.002  -2.574   7.265  0.00  0.00    +0.016 C 
ATOM     22  C   UNL     1      -3.886  -3.810   7.395  0.00  0.00    +0.018 C 
ATOM     23  C   UNL     1      -3.604  -4.800   6.270  0.00  0.00    -0.001 C 
ATOM     27  C   UNL     1      -2.130  -5.156   6.176  0.00  0.00    +0.018 C 
ATOM     28  C   UNL     1      -1.183  -3.965   6.181  0.00  0.00    +0.013 C 
ATOM     29  C   UNL     1       0.149  -1.673   3.441  0.00  0.00    -0.000 C 
ATOM     30  C   UNL     1      -0.050  -0.365   3.230  0.00  0.00    -0.052 C 
ATOM     31  C   UNL     1      -0.025   0.213   1.955  0.00  0.00    +0.153 C 
ATOM     32  O   UNL     1       0.002  -2.973  -2.387  0.00  0.00    -0.489 OA
ATOM     33  C   UNL     1       0.079  -0.590   0.818  0.00  0.00    -0.107 C 
ENDROOT
BRANCH   3   4
ATOM      4  O   UNL     1      -0.111  -0.293  -2.814  0.00  0.00    -0.465 OA
ATOM      5  H   UNL     1      -0.117  -0.945  -3.528  0.00  0.00    +0.402 HD
ENDBRANCH   3   4
BRANCH  23  24
ATOM     24  C   UNL     1      -4.404  -6.087   6.544  0.00  0.00    +0.158 C 
BRANCH  24  25
ATOM     25  O   UNL     1      -5.803  -5.792   6.521  0.00  0.00    -0.573 OA
ATOM     26  H   UNL     1      -6.369  -6.559   6.686  0.00  0.00    +0.379 HD
ENDBRANCH  24  25
ENDBRANCH  23  24
TORSDOF 3
