REMARK  Name = ZINC95486356
REMARK  5 active torsions:
REMARK  status: ('A' for Active; 'I' for Inactive)
REMARK    1  A    between atoms: C1_1  and  C2_2
REMARK    2  A    between atoms: C2_2  and  C21_28
REMARK    3  A    between atoms: C16_20  and  C20_25
REMARK    4  A    between atoms: C18_22  and  O3_24
REMARK    5  A    between atoms: C20_25  and  O4_26
REMARK                            x       y       z     vdW  Elec       q    Type
REMARK                         _______ _______ _______ _____ _____    ______ ____
ROOT
ATOM      1  C   UNL     1      -0.019   1.526   0.010  0.00  0.00    +0.083 C 
ATOM      2  C   UNL     1       0.002  -0.004   0.002  0.00  0.00    +0.146 C 
ATOM      3  C   UNL     1       0.730  -0.492  -1.252  0.00  0.00    +0.034 C 
ATOM      4  C   UNL     1      -1.413  -0.520  -0.013  0.00  0.00    -0.059 C 
ATOM      5  C   UNL     1      -1.694  -1.705   0.525  0.00  0.00    +0.057 C 
ATOM      6  C   UNL     1      -0.588  -2.472   1.137  0.00  0.00    -0.159 A 
ATOM      7  C   UNL     1       0.603  -1.799   1.441  0.00  0.00    +0.173 A 
ATOM      8  C   UNL     1       1.661  -2.480   2.015  0.00  0.00    -0.031 A 
ATOM      9  C   UNL     1       1.541  -3.837   2.280  0.00  0.00    +0.118 A 
ATOM     10  C   UNL     1       0.379  -4.500   1.982  0.00  0.00    -0.189 A 
ATOM     11  C   UNL     1       0.166  -5.961   2.204  0.00  0.00    +0.232 C 
ATOM     12  O   UNL     1       1.294  -6.825   2.236  0.00  0.00    -0.276 OA
ATOM     13  C   UNL     1       0.856  -8.037   1.788  0.00  0.00    +0.118 A 
ATOM     14  C   UNL     1      -0.268  -7.887   0.944  0.00  0.00    -0.161 A 
ATOM     15  C   UNL     1      -0.902  -8.973   0.384  0.00  0.00    -0.019 A 
ATOM     19  C   UNL     1      -0.388 -10.232   0.669  0.00  0.00    -0.002 A 
ATOM     20  C   UNL     1       0.721 -10.390   1.483  0.00  0.00    +0.142 A 
ATOM     23  C   UNL     1       1.365  -9.300   2.061  0.00  0.00    -0.009 A 
ATOM     24  C   UNL     1      -0.506  -6.426   0.864  0.00  0.00    -0.017 C 
ATOM     25  C   UNL     1      -1.915  -5.889   0.880  0.00  0.00    +0.274 C 
ATOM     26  O   UNL     1      -1.877  -4.486   1.174  0.00  0.00    -0.316 OA
ATOM     27  C   UNL     1      -0.717  -3.833   1.416  0.00  0.00    +0.189 A 
ATOM     28  O   UNL     1       0.694  -0.472   1.161  0.00  0.00    -0.300 OA
ENDROOT
BRANCH  20  21
ATOM     21  O   UNL     1       1.190 -11.642   1.727  0.00  0.00    -0.495 OA
ATOM     22  H   UNL     1       1.854 -11.943   1.091  0.00  0.00    +0.396 HD
ENDBRANCH  20  21
BRANCH  15  16
ATOM     16  C   UNL     1      -2.109  -8.803  -0.503  0.00  0.00    +0.249 C 
BRANCH  16  17
ATOM     17  O   UNL     1      -2.562 -10.085  -0.942  0.00  0.00    -0.566 OA
ATOM     18  H   UNL     1      -3.337 -10.052  -1.519  0.00  0.00    +0.388 HD
ENDBRANCH  16  17
ENDBRANCH  15  16
TORSDOF 3
