REMARK  Name = ZINC71791185
REMARK  11 active torsions:
REMARK  status: ('A' for Active; 'I' for Inactive)
REMARK    1  A    between atoms: C1_1  and  C2_2
REMARK    2  A    between atoms: C2_2  and  C3_3
REMARK    3  A    between atoms: C2_2  and  C4_4
REMARK    4  A    between atoms: C4_4  and  N1_5
REMARK    5  A    between atoms: C5_6  and  C6_8
REMARK    6  A    between atoms: C7_9  and  C8_10
REMARK    7  A    between atoms: C9_11  and  C10_12
REMARK    8  A    between atoms: C10_12  and  C11_13
REMARK    9  A    between atoms: C11_13  and  C12_14
REMARK   10  A    between atoms: C12_14  and  C13_15
REMARK   11  A    between atoms: C13_15  and  O2_16
REMARK                            x       y       z     vdW  Elec       q    Type
REMARK                         _______ _______ _______ _____ _____    ______ ____
ROOT
ATOM      7  C   UNL     1      -4.058  -0.123  -2.685  0.00  0.00    -0.094 C 
ATOM      8  C   UNL     1      -5.343  -0.484  -2.898  0.00  0.00    +0.105 C 
ENDROOT
BRANCH   7   6
ATOM      4  N   UNL     1      -2.105  -0.148  -1.230  0.00  0.00    -0.727 N 
ATOM      5  H   UNL     1      -1.628   0.366  -1.901  0.00  0.00    +0.401 HD
ATOM      6  C   UNL     1      -3.387  -0.508  -1.443  0.00  0.00    +0.545 C 
ATOM     17  O   UNL     1      -3.985  -1.153  -0.603  0.00  0.00    -0.548 OA
BRANCH   4   3
ATOM      3  C   UNL     1      -1.433  -0.534   0.013  0.00  0.00    +0.259 C 
BRANCH   3   2
ATOM      1  C   UNL     1      -0.019   1.526   0.010  0.00  0.00    +0.021 C 
ATOM      2  C   UNL     1       0.002  -0.004   0.002  0.00  0.00    -0.032 C 
ATOM     18  C   UNL     1       0.742  -0.511   1.242  0.00  0.00    +0.032 C 
ENDBRANCH   3   2
ENDBRANCH   4   3
ENDBRANCH   7   6
BRANCH   8   9
ATOM      9  C   UNL     1      -6.014  -0.099  -4.140  0.00  0.00    -0.037 C 
ATOM     10  C   UNL     1      -7.282  -0.456  -4.351  0.00  0.00    +0.008 C 
BRANCH  10  11
ATOM     11  C   UNL     1      -7.974  -0.059  -5.630  0.00  0.00    +0.056 C 
BRANCH  11  12
ATOM     12  C   UNL     1      -8.531  -1.308  -6.317  0.00  0.00    +0.021 C 
BRANCH  12  13
ATOM     13  C   UNL     1      -9.233  -0.905  -7.615  0.00  0.00    +0.019 C 
BRANCH  13  14
ATOM     14  C   UNL     1      -9.790  -2.154  -8.302  0.00  0.00    +0.165 C 
BRANCH  14  15
ATOM     15  O   UNL     1     -10.446  -1.778  -9.515  0.00  0.00    -0.577 OA
ATOM     16  H   UNL     1     -10.824  -2.521 -10.004  0.00  0.00    +0.381 HD
ENDBRANCH  14  15
ENDBRANCH  13  14
ENDBRANCH  12  13
ENDBRANCH  11  12
ENDBRANCH  10  11
ENDBRANCH   8   9
TORSDOF 9
