REMARK  Name = ZINC00058187
REMARK  2 active torsions:
REMARK  status: ('A' for Active; 'I' for Inactive)
REMARK    1  A    between atoms: C1_1  and  C2_2
REMARK    2  A    between atoms: C10_11  and  O2_12
REMARK                            x       y       z     vdW  Elec       q    Type
REMARK                         _______ _______ _______ _____ _____    ______ ____
ROOT
ATOM      1  C   UNL     1      -0.018   1.503   0.010  0.00  0.00    +0.129 C 
ATOM      2  C   UNL     1       0.002  -0.004   0.002  0.00  0.00    -0.112 C 
ATOM      3  C   UNL     1       0.006  -0.664  -1.166  0.00  0.00    +0.005 C 
ATOM      4  C   UNL     1       0.026  -2.141  -1.192  0.00  0.00    +0.417 C 
ATOM      5  C   UNL     1      -0.262  -2.887   0.048  0.00  0.00    -0.160 A 
ATOM      6  C   UNL     1      -0.266  -2.196   1.276  0.00  0.00    -0.111 A 
ATOM      7  C   UNL     1      -0.535  -2.880   2.452  0.00  0.00    +0.071 A 
ATOM      8  C   UNL     1      -0.800  -4.243   2.416  0.00  0.00    +0.064 A 
ATOM      9  C   UNL     1      -0.799  -4.926   1.219  0.00  0.00    +0.019 A 
ATOM     10  C   UNL     1      -0.530  -4.256   0.024  0.00  0.00    +0.165 A 
ATOM     13  O   UNL     1       0.277  -2.735  -2.222  0.00  0.00    -0.414 OA
ATOM     14  C   UNL     1       0.024  -0.744   1.280  0.00  0.00    +0.422 C 
ATOM     15  O   UNL     1       0.274  -0.168   2.320  0.00  0.00    -0.416 OA
ENDROOT
BRANCH  10  11
ATOM     11  O   UNL     1      -0.529  -4.931  -1.152  0.00  0.00    -0.480 OA
ATOM     12  H   UNL     1       0.332  -5.297  -1.395  0.00  0.00    +0.403 HD
ENDBRANCH  10  11
TORSDOF 1
