REMARK  Name = ZINC95485890
REMARK  7 active torsions:
REMARK  status: ('A' for Active; 'I' for Inactive)
REMARK    1  A    between atoms: C1_1  and  C2_2
REMARK    2  A    between atoms: C2_2  and  O2_4
REMARK    3  A    between atoms: O2_4  and  C3_5
REMARK    4  A    between atoms: C3_5  and  C4_6
REMARK    5  A    between atoms: C5_8  and  C25_39
REMARK    6  A    between atoms: C14_24  and  C24_38
REMARK    7  A    between atoms: C17_27  and  C20_33
REMARK                            x       y       z     vdW  Elec       q    Type
REMARK                         _______ _______ _______ _____ _____    ______ ____
ROOT
ATOM      5  C   UNL     1      -2.463  -2.721   0.011  0.00  0.00    +0.044 C 
ATOM      6  C   UNL     1      -3.188  -2.311  -1.282  0.00  0.00    -0.076 C 
ATOM      7  C   UNL     1      -2.359  -2.569  -2.542  0.00  0.00    +0.080 C 
ATOM      8  C   UNL     1      -4.485  -3.098  -1.212  0.00  0.00    -0.026 C 
ATOM      9  C   UNL     1      -5.358  -2.859  -2.463  0.00  0.00    +0.002 C 
ATOM     10  C   UNL     1      -6.302  -4.015  -2.284  0.00  0.00    +0.501 C 
ATOM     11  O   UNL     1      -5.630  -5.017  -1.621  0.00  0.00    -0.328 OA
ATOM     12  O   UNL     1      -7.451  -4.058  -2.658  0.00  0.00    -0.427 OA
ATOM     13  C   UNL     1      -5.817  -1.449  -2.341  0.00  0.00    +0.104 C 
ATOM     14  C   UNL     1      -4.995  -0.559  -1.758  0.00  0.00    -0.084 C 
ATOM     15  C   UNL     1      -4.283  -4.612  -1.341  0.00  0.00    +0.178 C 
ATOM     16  C   UNL     1      -3.634  -5.048  -0.037  0.00  0.00    +0.243 C 
ATOM     17  O   UNL     1      -3.124  -6.392  -0.243  0.00  0.00    -0.354 OA
ATOM     18  C   UNL     1      -1.746  -6.323  -0.634  0.00  0.00    +0.162 C 
ATOM     19  C   UNL     1      -1.384  -6.976  -1.973  0.00  0.00    +0.051 C 
ATOM     20  C   UNL     1      -0.222  -6.053  -2.428  0.00  0.00    +0.108 C 
ATOM     26  C   UNL     1      -0.504  -4.726  -1.756  0.00  0.00    +0.046 C 
ATOM     27  C   UNL     1      -1.409  -4.846  -0.839  0.00  0.00    -0.177 C 
ATOM     28  C   UNL     1      -3.697  -0.874  -1.182  0.00  0.00    +0.386 C 
ATOM     29  O   UNL     1      -3.026  -0.013  -0.652  0.00  0.00    -0.394 OA
ATOM     30  C   UNL     1      -2.348  -4.215   0.166  0.00  0.00    -0.008 C 
ATOM     31  C   UNL     1      -1.810  -4.521   1.564  0.00  0.00    +0.066 C 
ENDROOT
BRANCH  20  21
ATOM     21  C   UNL     1       1.103  -6.605  -1.967  0.00  0.00    -0.171 A 
ATOM     22  C   UNL     1       2.214  -6.919  -2.782  0.00  0.00    -0.058 A 
ATOM     23  C   UNL     1       3.179  -7.380  -1.965  0.00  0.00    +0.166 A 
ATOM     24  O   UNL     1       2.712  -7.362  -0.706  0.00  0.00    -0.174 OA
ATOM     25  C   UNL     1       1.456  -6.888  -0.700  0.00  0.00    +0.163 A 
ENDBRANCH  20  21
BRANCH   5   4
ATOM      4  C   UNL     1      -1.057  -2.117   0.001  0.00  0.00    +0.205 C 
BRANCH   4   3
ATOM      3  O   UNL     1      -1.151  -0.691   0.009  0.00  0.00    -0.310 OA
BRANCH   3   2
ATOM      1  C   UNL     1      -0.018   1.503   0.010  0.00  0.00    +0.150 C 
ATOM      2  C   UNL     1       0.002  -0.004   0.002  0.00  0.00    +0.454 C 
ATOM     32  O   UNL     1       1.057  -0.594  -0.011  0.00  0.00    -0.521 OA
ENDBRANCH   3   2
ENDBRANCH   4   3
ENDBRANCH   5   4
TORSDOF 4
