REMARK  Name = ZINC95486357
REMARK  16 active torsions:
REMARK  status: ('A' for Active; 'I' for Inactive)
REMARK    1  A    between atoms: C3_3  and  C7_8
REMARK    2  A    between atoms: C5_5  and  O1_7
REMARK    3  A    between atoms: C8_9  and  O5_21
REMARK    4  A    between atoms: C13_15  and  O4_19
REMARK    5  A    between atoms: C15_17  and  O3_18
REMARK    6  A    between atoms: O5_21  and  C17_22
REMARK    7  A    between atoms: C18_24  and  O14_48
REMARK    8  A    between atoms: C19_26  and  O13_47
REMARK    9  A    between atoms: C20_28  and  O8_35
REMARK   10  A    between atoms: C21_30  and  C22_33
REMARK   11  A    between atoms: C22_33  and  O7_34
REMARK   12  A    between atoms: O8_35  and  C23_36
REMARK   13  A    between atoms: C23_36  and  C24_38
REMARK   14  A    between atoms: C26_40  and  O12_46
REMARK   15  A    between atoms: C27_41  and  O11_45
REMARK   16  A    between atoms: C28_42  and  O10_44
REMARK                            x       y       z     vdW  Elec       q    Type
REMARK                         _______ _______ _______ _____ _____    ______ ____
ROOT
ATOM      7  C   UNL     1       2.894   0.237   1.749  0.00  0.00    +0.300 C 
ATOM      8  C   UNL     1       2.410  -0.577   2.952  0.00  0.00    +0.153 C 
ATOM     11  C   UNL     1       1.172  -1.383   2.547  0.00  0.00    +0.179 C 
ATOM     14  C   UNL     1       1.523  -2.270   1.349  0.00  0.00    +0.182 C 
ATOM     30  C   UNL     1       2.042  -1.391   0.208  0.00  0.00    +0.197 C 
ATOM     34  O   UNL     1       3.174  -0.645   0.660  0.00  0.00    -0.366 OA
ENDROOT
BRANCH   8   9
ATOM      9  O   UNL     1       2.076   0.308   4.024  0.00  0.00    -0.549 OA
ATOM     10  H   UNL     1       2.814   0.854   4.328  0.00  0.00    +0.396 HD
ENDBRANCH   8   9
BRANCH  11  12
ATOM     12  O   UNL     1       0.755  -2.200   3.643  0.00  0.00    -0.539 OA
ATOM     13  H   UNL     1       0.523  -1.702   4.439  0.00  0.00    +0.392 HD
ENDBRANCH  11  12
BRANCH   7   6
ATOM      6  O   UNL     1       4.082   0.949   2.103  0.00  0.00    -0.283 OA
BRANCH   6   5
ATOM      4  C   UNL     1       5.782   1.576   0.616  0.00  0.00    -0.008 C 
ATOM      5  C   UNL     1       4.583   1.811   1.179  0.00  0.00    +0.004 C 
ATOM     35  C   UNL     1       3.815   3.005   0.790  0.00  0.00    +0.418 C 
ATOM     36  C   UNL     1       4.204   3.697  -0.454  0.00  0.00    -0.200 A 
ATOM     37  C   UNL     1       5.451   3.433  -1.026  0.00  0.00    -0.000 A 
ATOM     38  C   UNL     1       5.802   4.066  -2.189  0.00  0.00    -0.022 A 
ATOM     39  C   UNL     1       4.935   4.968  -2.795  0.00  0.00    +0.166 A 
ATOM     42  C   UNL     1       3.699   5.244  -2.229  0.00  0.00    -0.044 A 
ATOM     43  C   UNL     1       3.326   4.611  -1.055  0.00  0.00    +0.194 A 
ATOM     46  O   UNL     1       2.890   3.409   1.472  0.00  0.00    -0.426 OA
ATOM     47  C   UNL     1       6.422   2.483  -0.384  0.00  0.00    +0.185 C 
BRANCH   4   3
ATOM      1  C   UNL     1       7.397  -1.806   0.463  0.00  0.00    +0.026 A 
ATOM      2  C   UNL     1       6.716  -0.668   0.086  0.00  0.00    +0.031 A 
ATOM      3  C   UNL     1       6.508   0.360   1.013  0.00  0.00    -0.042 A 
ATOM     48  C   UNL     1       6.993   0.226   2.317  0.00  0.00    +0.018 A 
ATOM     49  C   UNL     1       7.675  -0.922   2.682  0.00  0.00    +0.105 A 
ATOM     52  C   UNL     1       7.876  -1.936   1.754  0.00  0.00    -0.011 A 
BRANCH  49  50
ATOM     50  O   UNL     1       8.149  -1.057   3.948  0.00  0.00    -0.499 OA
ATOM     51  H   UNL     1       7.555  -1.538   4.541  0.00  0.00    +0.392 HD
ENDBRANCH  49  50
ENDBRANCH   4   3
BRANCH  39  40
ATOM     40  O   UNL     1       5.302   5.585  -3.947  0.00  0.00    -0.494 OA
ATOM     41  H   UNL     1       5.048   5.106  -4.747  0.00  0.00    +0.401 HD
ENDBRANCH  39  40
BRANCH  43  44
ATOM     44  O   UNL     1       2.121   4.873  -0.491  0.00  0.00    -0.481 OA
ATOM     45  H   UNL     1       2.133   5.604   0.142  0.00  0.00    +0.404 HD
ENDBRANCH  43  44
ENDBRANCH   6   5
ENDBRANCH   7   6
BRANCH  14  15
ATOM     15  O   UNL     1       0.357  -2.974   0.918  0.00  0.00    -0.333 OA
BRANCH  15  16
ATOM     16  C   UNL     1       0.126  -4.177   1.480  0.00  0.00    +0.514 C 
ATOM     29  O   UNL     1       0.895  -4.616   2.312  0.00  0.00    -0.470 OA
BRANCH  16  17
ATOM     17  C   UNL     1      -1.059  -4.961   1.084  0.00  0.00    -0.099 A 
ATOM     18  C   UNL     1      -1.940  -4.460   0.122  0.00  0.00    +0.070 A 
ATOM     19  C   UNL     1      -3.050  -5.196  -0.247  0.00  0.00    +0.086 A 
ATOM     22  C   UNL     1      -3.290  -6.437   0.338  0.00  0.00    +0.094 A 
ATOM     25  C   UNL     1      -2.414  -6.938   1.297  0.00  0.00    +0.089 A 
ATOM     28  C   UNL     1      -1.299  -6.209   1.665  0.00  0.00    +0.081 A 
BRANCH  19  20
ATOM     20  O   UNL     1      -3.908  -4.709  -1.183  0.00  0.00    -0.478 OA
ATOM     21  H   UNL     1      -3.685  -4.960  -2.090  0.00  0.00    +0.392 HD
ENDBRANCH  19  20
BRANCH  22  23
ATOM     23  O   UNL     1      -4.382  -7.159  -0.026  0.00  0.00    -0.472 OA
ATOM     24  H   UNL     1      -4.227  -7.759  -0.768  0.00  0.00    +0.392 HD
ENDBRANCH  22  23
BRANCH  25  26
ATOM     26  O   UNL     1      -2.651  -8.150   1.867  0.00  0.00    -0.478 OA
ATOM     27  H   UNL     1      -2.249  -8.892   1.396  0.00  0.00    +0.393 HD
ENDBRANCH  25  26
ENDBRANCH  16  17
ENDBRANCH  15  16
ENDBRANCH  14  15
BRANCH  30  31
ATOM     31  C   UNL     1       2.451  -2.275  -0.972  0.00  0.00    +0.221 C 
BRANCH  31  32
ATOM     32  O   UNL     1       2.824  -1.450  -2.078  0.00  0.00    -0.560 OA
ATOM     33  H   UNL     1       3.095  -1.945  -2.863  0.00  0.00    +0.384 HD
ENDBRANCH  31  32
ENDBRANCH  30  31
TORSDOF 16
