REMARK  Name = ZINC95486079
REMARK  9 active torsions:
REMARK  status: ('A' for Active; 'I' for Inactive)
REMARK    1  A    between atoms: C1_1  and  C2_2
REMARK    2  A    between atoms: C2_2  and  C25_30
REMARK    3  A    between atoms: C3_3  and  C4_4
REMARK    4  A    between atoms: C4_4  and  C5_5
REMARK    5  A    between atoms: C18_22  and  O3_29
REMARK    6  A    between atoms: C19_23  and  C20_24
REMARK    7  A    between atoms: C20_24  and  C21_25
REMARK    8  A    between atoms: C22_26  and  C23_27
REMARK    9  A    between atoms: C22_26  and  C24_28
REMARK                            x       y       z     vdW  Elec       q    Type
REMARK                         _______ _______ _______ _____ _____    ______ ____
ROOT
ATOM      6  C   UNL     1      -1.568  -0.784   1.057  0.00  0.00    -0.033 A 
ATOM      7  C   UNL     1      -2.782  -0.303   1.511  0.00  0.00    -0.015 A 
ATOM      8  C   UNL     1      -3.409  -0.919   2.583  0.00  0.00    +0.073 A 
ATOM      9  C   UNL     1      -2.819  -1.995   3.189  0.00  0.00    -0.163 A 
ATOM     10  C   UNL     1      -1.579  -2.484   2.751  0.00  0.00    +0.145 A 
ATOM     11  O   UNL     1      -0.976  -3.517   3.387  0.00  0.00    -0.324 OA
ATOM     12  C   UNL     1      -1.723  -4.528   4.076  0.00  0.00    +0.273 C 
ATOM     13  C   UNL     1      -3.197  -4.248   3.919  0.00  0.00    -0.017 C 
ATOM     14  C   UNL     1      -4.176  -4.911   4.813  0.00  0.00    -0.161 A 
ATOM     15  C   UNL     1      -4.265  -6.188   5.323  0.00  0.00    +0.089 A 
ATOM     16  C   UNL     1      -5.351  -6.475   6.139  0.00  0.00    -0.033 A 
ATOM     17  C   UNL     1      -6.308  -5.518   6.430  0.00  0.00    +0.142 A 
ATOM     20  C   UNL     1      -6.223  -4.218   5.926  0.00  0.00    -0.109 A 
ATOM     26  C   UNL     1      -5.138  -3.919   5.112  0.00  0.00    +0.118 A 
ATOM     27  O   UNL     1      -4.824  -2.736   4.510  0.00  0.00    -0.272 OA
ATOM     28  C   UNL     1      -3.414  -2.750   4.331  0.00  0.00    +0.222 C 
ATOM     29  C   UNL     1      -0.971  -1.870   1.665  0.00  0.00    -0.009 A 
ENDROOT
BRANCH  17  18
ATOM     18  O   UNL     1      -7.356  -5.850   7.229  0.00  0.00    -0.491 OA
ATOM     19  H   UNL     1      -7.196  -5.699   8.170  0.00  0.00    +0.393 HD
ENDBRANCH  17  18
BRANCH   6   5
ATOM      5  C   UNL     1      -0.893  -0.121  -0.116  0.00  0.00    +0.110 C 
BRANCH   5   4
ATOM      1  C   UNL     1      -2.117   1.425  -2.131  0.00  0.00    +0.074 C 
ATOM      2  C   UNL     1      -1.972  -0.065  -2.306  0.00  0.00    -0.126 C 
ATOM      3  C   UNL     1      -2.538  -0.739  -3.529  0.00  0.00    +0.074 C 
ATOM      4  C   UNL     1      -1.353  -0.773  -1.395  0.00  0.00    -0.054 C 
ENDBRANCH   5   4
ENDBRANCH   6   5
BRANCH  20  21
ATOM     21  C   UNL     1      -7.270  -3.181   6.247  0.00  0.00    +0.125 C 
BRANCH  21  22
ATOM     22  C   UNL     1      -8.364  -3.236   5.212  0.00  0.00    -0.051 C 
ATOM     23  C   UNL     1      -8.674  -2.162   4.529  0.00  0.00    -0.125 C 
ATOM     24  C   UNL     1      -9.666  -2.248   3.398  0.00  0.00    +0.073 C 
ATOM     25  C   UNL     1      -8.037  -0.840   4.874  0.00  0.00    +0.074 C 
ENDBRANCH  21  22
ENDBRANCH  20  21
TORSDOF 5
