REMARK  Name = ZINC33829963
REMARK  9 active torsions:
REMARK  status: ('A' for Active; 'I' for Inactive)
REMARK    1  A    between atoms: C1_1  and  C2_2
REMARK    2  A    between atoms: C5_5  and  C29_33
REMARK    3  A    between atoms: C5_5  and  C30_34
REMARK    4  A    between atoms: C8_9  and  C28_32
REMARK    5  A    between atoms: C13_14  and  C16_17
REMARK    6  A    between atoms: C20_22  and  C27_31
REMARK    7  A    between atoms: C23_25  and  O1_30
REMARK    8  A    between atoms: C24_27  and  C25_28
REMARK    9  A    between atoms: C24_27  and  C26_29
REMARK                            x       y       z     vdW  Elec       q    Type
REMARK                         _______ _______ _______ _____ _____    ______ ____
ROOT
ATOM      1  C   UNL     1      -2.152   0.205   0.895  0.00  0.00    +0.007 C 
ATOM      2  C   UNL     1      -1.631  -1.255   0.803  0.00  0.00    -0.035 C 
ATOM      3  C   UNL     1      -2.844  -2.162   0.601  0.00  0.00    +0.006 C 
ATOM      4  C   UNL     1      -3.846  -1.932   1.726  0.00  0.00    +0.020 C 
ATOM      5  C   UNL     1      -3.242  -2.228   3.090  0.00  0.00    -0.117 C 
ATOM      9  C   UNL     1      -3.325  -3.733   3.379  0.00  0.00    +0.010 C 
ATOM     10  C   UNL     1      -1.837  -1.712   3.295  0.00  0.00    +0.027 C 
ATOM     11  C   UNL     1      -0.748  -1.294  -0.436  0.00  0.00    +0.003 C 
ATOM     12  C   UNL     1       0.271  -2.422  -0.441  0.00  0.00    +0.017 C 
ATOM     13  C   UNL     1       1.075  -2.430   0.854  0.00  0.00    -0.005 C 
ATOM     14  C   UNL     1       1.805  -1.094   0.987  0.00  0.00    +0.021 C 
ATOM     15  C   UNL     1       2.123  -3.524   0.819  0.00  0.00    -0.095 C 
ATOM     16  C   UNL     1       2.671  -3.861  -0.547  0.00  0.00    +0.042 C 
ATOM     17  C   UNL     1       3.186  -5.301  -0.566  0.00  0.00    +0.028 C 
ATOM     18  C   UNL     1       4.227  -5.435   0.551  0.00  0.00    +0.014 C 
ATOM     19  C   UNL     1       3.510  -5.291   1.882  0.00  0.00    -0.003 C 
ATOM     20  C   UNL     1       4.515  -5.049   3.017  0.00  0.00    +0.018 C 
ATOM     21  C   UNL     1       2.694  -6.550   2.191  0.00  0.00    +0.028 C 
ATOM     22  C   UNL     1       3.573  -7.794   2.158  0.00  0.00    -0.021 C 
ATOM     23  C   UNL     1       4.207  -7.956   0.781  0.00  0.00    +0.165 C 
ATOM     26  C   UNL     1       5.018  -6.722   0.397  0.00  0.00    -0.041 C 
ATOM     27  C   UNL     1       5.457  -6.895  -1.073  0.00  0.00    +0.024 C 
ATOM     28  C   UNL     1       6.319  -6.692   1.210  0.00  0.00    +0.027 C 
ATOM     29  C   UNL     1       2.525  -4.124   1.899  0.00  0.00    -0.106 C 
ATOM     30  C   UNL     1       2.019  -3.752   3.272  0.00  0.00    +0.048 C 
ATOM     31  C   UNL     1       0.984  -2.642   3.307  0.00  0.00    +0.008 C 
ATOM     32  C   UNL     1       0.134  -2.650   2.032  0.00  0.00    -0.022 C 
ATOM     33  C   UNL     1      -0.508  -4.037   1.896  0.00  0.00    +0.020 C 
ATOM     34  C   UNL     1      -0.919  -1.558   2.101  0.00  0.00    -0.001 C 
ENDROOT
BRANCH   5   6
ATOM      6  C   UNL     1      -4.133  -1.544   4.127  0.00  0.00    +0.495 C 
ATOM      7  O   UNL     1      -3.667  -0.693   4.866  0.00  0.00    -0.696 OA
ATOM      8  O   UNL     1      -5.310  -1.849   4.216  0.00  0.00    -0.700 OA
ENDBRANCH   5   6
BRANCH  23  24
ATOM     24  O   UNL     1       3.194  -8.200  -0.198  0.00  0.00    -0.557 OA
ATOM     25  H   UNL     1       2.672  -8.997  -0.033  0.00  0.00    +0.372 HD
ENDBRANCH  23  24
TORSDOF 2
