REMARK  Name = ZINC95485973
REMARK  13 active torsions:
REMARK  status: ('A' for Active; 'I' for Inactive)
REMARK    1  A    between atoms: C1_1  and  C2_2
REMARK    2  A    between atoms: C2_2  and  C26_33
REMARK    3  A    between atoms: C3_3  and  C4_4
REMARK    4  A    between atoms: C4_4  and  C5_5
REMARK    5  A    between atoms: C5_5  and  C6_6
REMARK    6  A    between atoms: C7_7  and  O7_32
REMARK    7  A    between atoms: C12_13  and  O6_30
REMARK    8  A    between atoms: C13_14  and  O5_28
REMARK    9  A    between atoms: C14_15  and  O4_27
REMARK   10  A    between atoms: C19_22  and  C22_25
REMARK   11  A    between atoms: C19_22  and  C23_26
REMARK   12  A    between atoms: O5_28  and  C24_29
REMARK   13  A    between atoms: O6_30  and  C25_31
REMARK                            x       y       z     vdW  Elec       q    Type
REMARK                         _______ _______ _______ _____ _____    ______ ____
ROOT
ATOM      7  C   UNL     1      -0.876   0.170   4.707  0.00  0.00    -0.166 A 
ATOM      8  C   UNL     1      -0.009  -0.212   5.717  0.00  0.00    +0.242 A 
ATOM     11  C   UNL     1      -0.008   0.477   6.937  0.00  0.00    -0.285 A 
ATOM     12  C   UNL     1       0.893   0.077   8.033  0.00  0.00    +0.448 A 
ATOM     13  C   UNL     1       0.605   0.667   9.356  0.00  0.00    -0.173 A 
ATOM     14  C   UNL     1       1.209   0.170  10.512  0.00  0.00    +0.038 A 
ATOM     15  C   UNL     1       0.917   0.737  11.735  0.00  0.00    +0.103 A 
ATOM     18  C   UNL     1       0.020   1.804  11.813  0.00  0.00    +0.103 A 
ATOM     21  C   UNL     1      -0.583   2.304  10.668  0.00  0.00    +0.107 A 
ATOM     24  C   UNL     1      -0.295   1.742   9.426  0.00  0.00    +0.107 A 
ATOM     25  O   UNL     1      -0.875   2.239   8.312  0.00  0.00    -0.209 OA
ATOM     26  O   UNL     1       1.820  -0.694   7.858  0.00  0.00    -0.431 OA
ATOM     27  C   UNL     1      -0.876   1.562   7.147  0.00  0.00    +0.217 A 
ATOM     28  C   UNL     1      -1.745   1.933   6.119  0.00  0.00    -0.169 A 
ATOM     29  C   UNL     1      -2.684   3.063   6.280  0.00  0.00    +0.059 C 
ATOM     30  C   UNL     1      -3.687   3.174   5.416  0.00  0.00    -0.048 C 
ATOM     31  C   UNL     1      -3.860   2.144   4.331  0.00  0.00    +0.145 C 
ATOM     32  C   UNL     1      -4.723   0.996   4.857  0.00  0.00    +0.038 C 
ATOM     33  C   UNL     1      -4.556   2.788   3.130  0.00  0.00    +0.088 C 
ATOM     34  O   UNL     1      -2.592   1.631   3.921  0.00  0.00    -0.287 OA
ATOM     35  C   UNL     1      -1.738   1.238   4.900  0.00  0.00    +0.220 A 
ENDROOT
BRANCH   8   9
ATOM      9  O   UNL     1       0.839  -1.253   5.525  0.00  0.00    -0.471 OA
ATOM     10  H   UNL     1       1.695  -1.000   5.155  0.00  0.00    +0.405 HD
ENDBRANCH   8   9
BRANCH  15  16
ATOM     16  O   UNL     1       1.502   0.257  12.865  0.00  0.00    -0.298 OA
ATOM     17  C   UNL     1       2.410  -0.836  12.712  0.00  0.00    +0.250 C 
ENDBRANCH  15  16
BRANCH  18  19
ATOM     19  O   UNL     1      -0.266   2.357  13.021  0.00  0.00    -0.309 OA
ATOM     20  C   UNL     1       0.560   3.441  13.450  0.00  0.00    +0.235 C 
ENDBRANCH  18  19
BRANCH  21  22
ATOM     22  O   UNL     1      -1.456   3.344  10.759  0.00  0.00    -0.463 OA
ATOM     23  H   UNL     1      -1.040   4.214  10.682  0.00  0.00    +0.392 HD
ENDBRANCH  21  22
BRANCH   7   6
ATOM      6  C   UNL     1      -0.879  -0.572   3.395  0.00  0.00    +0.104 C 
BRANCH   6   5
ATOM      5  C   UNL     1       0.123   0.078   2.439  0.00  0.00    +0.053 C 
BRANCH   5   4
ATOM      1  C   UNL     1      -0.201   1.487   0.018  0.00  0.00    +0.072 C 
ATOM      2  C   UNL     1      -0.087  -0.015   0.009  0.00  0.00    -0.129 C 
ATOM      3  C   UNL     1      -0.213  -0.772  -1.289  0.00  0.00    +0.072 C 
ATOM      4  C   UNL     1       0.121  -0.664   1.128  0.00  0.00    -0.059 C 
ENDBRANCH   5   4
ENDBRANCH   6   5
ENDBRANCH   7   6
TORSDOF 7
