REMARK  Name = ZINC95486059
REMARK  8 active torsions:
REMARK  status: ('A' for Active; 'I' for Inactive)
REMARK    1  A    between atoms: C1_1  and  C2_2
REMARK    2  A    between atoms: C4_4  and  O4_19
REMARK    3  A    between atoms: C5_5  and  C11_13
REMARK    4  A    between atoms: C12_14  and  C13_15
REMARK    5  A    between atoms: C13_15  and  C14_16
REMARK    6  A    between atoms: C13_15  and  C15_17
REMARK    7  A    between atoms: C13_15  and  O3_18
REMARK    8  A    between atoms: O4_19  and  C16_20
REMARK                            x       y       z     vdW  Elec       q    Type
REMARK                         _______ _______ _______ _____ _____    ______ ____
ROOT
ATOM      1  C   UNL     1      -0.018   1.503   0.010  0.00  0.00    +0.114 C 
ATOM      2  C   UNL     1       0.002  -0.004   0.002  0.00  0.00    +0.022 A 
ATOM      3  C   UNL     1       0.006  -0.679  -1.185  0.00  0.00    -0.086 A 
ATOM      4  C   UNL     1       0.025  -2.070  -1.209  0.00  0.00    +0.197 A 
ATOM      7  C   UNL     1       0.041  -2.797  -0.014  0.00  0.00    -0.113 A 
ATOM     15  C   UNL     1       0.037  -2.115   1.208  0.00  0.00    +0.198 A 
ATOM     16  O   UNL     1       0.052  -2.791   2.375  0.00  0.00    -0.264 OA
ATOM     17  C   UNL     1       0.064  -2.151   3.555  0.00  0.00    +0.509 A 
ATOM     18  O   UNL     1       0.082  -2.803   4.584  0.00  0.00    -0.460 OA
ATOM     19  C   UNL     1       0.045  -0.744   3.634  0.00  0.00    -0.092 A 
ATOM     20  C   UNL     1       0.025  -0.004   2.495  0.00  0.00    +0.164 A 
ATOM     21  C   UNL     1       0.023  -0.710   1.212  0.00  0.00    -0.199 A 
ENDROOT
BRANCH   4   5
ATOM      5  O   UNL     1       0.028  -2.724  -2.397  0.00  0.00    -0.296 OA
ATOM      6  C   UNL     1       0.011  -1.922  -3.580  0.00  0.00    +0.251 C 
ENDBRANCH   4   5
BRANCH   7   8
ATOM      8  C   UNL     1       0.060  -4.273  -0.042  0.00  0.00    +0.026 C 
ATOM      9  C   UNL     1      -0.815  -4.934  -0.789  0.00  0.00    -0.034 C 
BRANCH   9  10
ATOM     10  C   UNL     1      -0.795  -6.441  -0.817  0.00  0.00    +0.157 C 
ATOM     13  C   UNL     1      -0.545  -6.920  -2.248  0.00  0.00    +0.067 C 
ATOM     14  C   UNL     1      -2.141  -6.978  -0.327  0.00  0.00    +0.020 C 
BRANCH  10  11
ATOM     11  O   UNL     1       0.248  -6.920   0.034  0.00  0.00    -0.557 OA
ATOM     12  H   UNL     1       0.154  -6.653   0.959  0.00  0.00    +0.378 HD
ENDBRANCH  10  11
ENDBRANCH   9  10
ENDBRANCH   7   8
TORSDOF 4
