REMARK  Name = ZINC95486020
REMARK  12 active torsions:
REMARK  status: ('A' for Active; 'I' for Inactive)
REMARK    1  A    between atoms: C1_1  and  C2_2
REMARK    2  A    between atoms: C8_8  and  O4_34
REMARK    3  A    between atoms: C10_10  and  O3_33
REMARK    4  A    between atoms: C11_11  and  C12_12
REMARK    5  A    between atoms: C13_14  and  O2_31
REMARK    6  A    between atoms: C17_19  and  C21_26
REMARK    7  A    between atoms: N1_21  and  C20_25
REMARK    8  A    between atoms: C18_22  and  C19_24
REMARK    9  A    between atoms: C23_28  and  O1_29
REMARK   10  A    between atoms: O1_29  and  C24_30
REMARK   11  A    between atoms: O2_31  and  C25_32
REMARK   12  A    between atoms: O4_34  and  C26_35
REMARK                            x       y       z     vdW  Elec       q    Type
REMARK                         _______ _______ _______ _____ _____    ______ ____
ROOT
ATOM     16  C   UNL     1      -0.462   0.059   2.453  0.00  0.00    +0.087 C 
ATOM     17  C   UNL     1       0.817   0.063   3.287  0.00  0.00    +0.229 C 
ATOM     20  C   UNL     1       1.110  -1.332   3.793  0.00  0.00    -0.155 C 
ATOM     21  C   UNL     1       0.111  -2.119   4.163  0.00  0.00    -0.017 C 
ATOM     22  C   UNL     1      -1.279  -1.649   4.022  0.00  0.00    -0.174 C 
ATOM     23  C   UNL     1       0.338  -3.506   4.708  0.00  0.00    +0.087 C 
ATOM     24  C   UNL     1       1.746  -3.987   4.357  0.00  0.00    +0.120 C 
ATOM     25  C   UNL     1       2.059  -5.271   5.128  0.00  0.00    +0.037 C 
ATOM     26  N   UNL     1       2.701  -2.933   4.737  0.00  0.00    -0.522 NA
ATOM     27  C   UNL     1       4.080  -3.438   4.711  0.00  0.00    +0.186 C 
ATOM     28  C   UNL     1       2.549  -1.776   3.850  0.00  0.00    +0.175 C 
ATOM     29  C   UNL     1       3.411  -0.625   4.372  0.00  0.00    +0.040 C 
ATOM     30  C   UNL     1      -1.565  -0.618   3.226  0.00  0.00    +0.186 C 
ENDROOT
BRANCH  16  15
ATOM      1  C   UNL     1       1.431   1.091   0.546  0.00  0.00    +0.095 C 
ATOM      2  C   UNL     1       0.695  -0.188   0.243  0.00  0.00    -0.045 A 
ATOM      3  C   UNL     1       0.939  -0.841  -0.926  0.00  0.00    +0.004 A 
ATOM      4  C   UNL     1       0.258  -2.035  -1.218  0.00  0.00    +0.003 A 
ATOM      5  C   UNL     1       0.491  -2.730  -2.418  0.00  0.00    -0.024 A 
ATOM      6  C   UNL     1      -0.182  -3.885  -2.676  0.00  0.00    +0.059 A 
ATOM      7  C   UNL     1      -1.105  -4.396  -1.768  0.00  0.00    -0.103 A 
ATOM      8  C   UNL     1      -1.362  -3.744  -0.583  0.00  0.00    +0.157 A 
ATOM     11  C   UNL     1      -0.679  -2.547  -0.288  0.00  0.00    -0.105 A 
ATOM     12  C   UNL     1      -0.912  -1.851   0.913  0.00  0.00    +0.167 A 
ATOM     15  C   UNL     1      -0.221  -0.687   1.166  0.00  0.00    -0.113 A 
BRANCH   8   9
ATOM      9  O   UNL     1      -2.265  -4.251   0.295  0.00  0.00    -0.298 OA
ATOM     10  C   UNL     1      -2.917  -5.468  -0.074  0.00  0.00    +0.239 C 
ENDBRANCH   8   9
BRANCH  12  13
ATOM     13  O   UNL     1      -1.807  -2.326   1.818  0.00  0.00    -0.467 OA
ATOM     14  H   UNL     1      -1.450  -3.009   2.402  0.00  0.00    +0.389 HD
ENDBRANCH  12  13
ENDBRANCH  16  15
BRANCH  17  18
ATOM     18  O   UNL     1       0.655   0.945   4.399  0.00  0.00    -0.366 OA
ATOM     19  C   UNL     1       1.131   2.271   4.165  0.00  0.00    +0.195 C 
ENDBRANCH  17  18
BRANCH  30  31
ATOM     31  O   UNL     1      -2.841  -0.180   3.114  0.00  0.00    -0.308 OA
ATOM     32  C   UNL     1      -3.833  -0.870   3.877  0.00  0.00    +0.241 C 
ENDBRANCH  30  31
TORSDOF 5
