REMARK  Name = ZINC95486338
REMARK  42 active torsions:
REMARK  status: ('A' for Active; 'I' for Inactive)
REMARK    1  A    between atoms: C1_1  and  O1_2
REMARK    2  A    between atoms: O1_2  and  C2_3
REMARK    3  A    between atoms: C4_5  and  C10_14
REMARK    4  A    between atoms: C7_8  and  O2_9
REMARK    5  A    between atoms: O2_9  and  C8_10
REMARK    6  A    between atoms: C8_10  and  C9_11
REMARK    7  A    between atoms: C11_15  and  C12_16
REMARK    8  A    between atoms: C12_16  and  O6_18
REMARK    9  A    between atoms: O6_18  and  C13_19
REMARK   10  A    between atoms: C13_19  and  C14_20
REMARK   11  A    between atoms: C14_20  and  C15_21
REMARK   12  A    between atoms: C15_21  and  C16_22
REMARK   13  A    between atoms: C16_22  and  C17_23
REMARK   14  A    between atoms: C17_23  and  C18_24
REMARK   15  A    between atoms: C18_24  and  C19_25
REMARK   16  A    between atoms: C19_25  and  C20_26
REMARK   17  A    between atoms: C20_26  and  C21_27
REMARK   18  A    between atoms: C21_27  and  C22_28
REMARK   19  A    between atoms: C22_28  and  C23_29
REMARK   20  A    between atoms: C23_29  and  C24_30
REMARK   21  A    between atoms: C24_30  and  C25_31
REMARK   22  A    between atoms: C25_31  and  C26_32
REMARK   23  A    between atoms: C26_32  and  C27_33
REMARK   24  A    between atoms: C27_33  and  C28_34
REMARK   25  A    between atoms: C28_34  and  C29_35
REMARK   26  A    between atoms: C29_35  and  C30_36
REMARK   27  A    between atoms: C30_36  and  C31_37
REMARK   28  A    between atoms: C31_37  and  C32_38
REMARK   29  A    between atoms: C32_38  and  C33_39
REMARK   30  A    between atoms: C33_39  and  C34_40
REMARK   31  A    between atoms: C34_40  and  C35_41
REMARK   32  A    between atoms: C35_41  and  C36_42
REMARK   33  A    between atoms: C36_42  and  O8_44
REMARK   34  A    between atoms: O8_44  and  C37_45
REMARK   35  A    between atoms: C37_45  and  C38_46
REMARK   36  A    between atoms: C38_46  and  C39_48
REMARK   37  A    between atoms: C38_46  and  O12_54
REMARK   38  A    between atoms: C39_48  and  O9_49
REMARK   39  A    between atoms: O9_49  and  C40_50
REMARK   40  A    between atoms: C40_50  and  C41_51
REMARK   41  A    between atoms: O12_54  and  C42_55
REMARK   42  A    between atoms: C42_55  and  C43_56
REMARK                            x       y       z     vdW  Elec       q    Type
REMARK                         _______ _______ _______ _____ _____    ______ ____
ROOT
ATOM     20  C   UNL     1      10.897   1.008 -19.210  0.00  0.00    -0.000 C 
ENDROOT
BRANCH  20  19
ATOM     19  C   UNL     1      10.293   0.101 -18.136  0.00  0.00    -0.000 C 
BRANCH  19  18
ATOM     18  C   UNL     1       9.664   0.959 -17.037  0.00  0.00    -0.000 C 
BRANCH  18  17
ATOM     17  C   UNL     1       9.061   0.051 -15.963  0.00  0.00    -0.000 C 
BRANCH  17  16
ATOM     16  C   UNL     1       8.432   0.909 -14.864  0.00  0.00    +0.000 C 
BRANCH  16  15
ATOM     15  C   UNL     1       7.828   0.002 -13.791  0.00  0.00    +0.001 C 
BRANCH  15  14
ATOM     14  C   UNL     1       7.199   0.860 -12.691  0.00  0.00    +0.002 C 
BRANCH  14  13
ATOM     13  C   UNL     1       6.596  -0.048 -11.618  0.00  0.00    +0.008 C 
BRANCH  13  12
ATOM     12  C   UNL     1       5.967   0.811 -10.519  0.00  0.00    +0.013 C 
BRANCH  12  11
ATOM     11  C   UNL     1       5.363  -0.097  -9.445  0.00  0.00    +0.029 C 
BRANCH  11  10
ATOM     10  C   UNL     1       4.734   0.761  -8.346  0.00  0.00    +0.198 C 
BRANCH  10   9
ATOM      9  O   UNL     1       4.171  -0.087  -7.343  0.00  0.00    -0.352 OA
BRANCH   9   8
ATOM      8  C   UNL     1       3.572   0.518  -6.295  0.00  0.00    +0.506 C 
ATOM     49  O   UNL     1       3.531   1.732  -6.236  0.00  0.00    -0.524 OA
BRANCH   8   7
ATOM      6  C   UNL     1       2.393   0.342  -4.215  0.00  0.00    +0.174 C 
ATOM      7  C   UNL     1       2.992  -0.263  -5.264  0.00  0.00    -0.097 C 
BRANCH   6   5
ATOM      3  C   UNL     1       0.606  -0.608  -1.056  0.00  0.00    +0.084 A 
ATOM      4  C   UNL     1       1.170   0.158  -2.058  0.00  0.00    -0.003 A 
ATOM      5  C   UNL     1       1.791  -0.467  -3.146  0.00  0.00    -0.118 A 
ATOM     50  C   UNL     1       1.837  -1.864  -3.212  0.00  0.00    +0.059 A 
ATOM     51  C   UNL     1       1.272  -2.620  -2.209  0.00  0.00    -0.053 A 
ATOM     52  C   UNL     1       0.661  -1.999  -1.127  0.00  0.00    +0.143 A 
BRANCH   3   2
ATOM      1  C   UNL     1      -0.017   1.425   0.010  0.00  0.00    +0.229 C 
ATOM      2  O   UNL     1       0.002  -0.004   0.002  0.00  0.00    -0.296 OA
ENDBRANCH   3   2
BRANCH  52  53
ATOM     53  O   UNL     1       0.110  -2.750  -0.139  0.00  0.00    -0.263 OA
BRANCH  53  54
ATOM     54  C   UNL     1       0.202  -4.169  -0.274  0.00  0.00    +0.113 C 
BRANCH  54  55
ATOM     55  C   UNL     1      -0.459  -4.830   0.908  0.00  0.00    +0.502 C 
ATOM     56  O   UNL     1      -0.491  -6.047   0.987  0.00  0.00    -0.687 OA
ATOM     57  O   UNL     1      -0.962  -4.149   1.785  0.00  0.00    -0.668 OA
ENDBRANCH  54  55
ENDBRANCH  53  54
ENDBRANCH  52  53
ENDBRANCH   6   5
ENDBRANCH   8   7
ENDBRANCH   9   8
ENDBRANCH  10   9
ENDBRANCH  11  10
ENDBRANCH  12  11
ENDBRANCH  13  12
ENDBRANCH  14  13
ENDBRANCH  15  14
ENDBRANCH  16  15
ENDBRANCH  17  16
ENDBRANCH  18  17
ENDBRANCH  19  18
ENDBRANCH  20  19
BRANCH  20  21
ATOM     21  C   UNL     1      11.526   0.150 -20.309  0.00  0.00    -0.000 C 
BRANCH  21  22
ATOM     22  C   UNL     1      12.129   1.058 -21.382  0.00  0.00    -0.000 C 
BRANCH  22  23
ATOM     23  C   UNL     1      12.758   0.199 -22.482  0.00  0.00    -0.000 C 
BRANCH  23  24
ATOM     24  C   UNL     1      13.362   1.107 -23.555  0.00  0.00    -0.000 C 
BRANCH  24  25
ATOM     25  C   UNL     1      13.991   0.249 -24.654  0.00  0.00    -0.001 C 
BRANCH  25  26
ATOM     26  C   UNL     1      14.594   1.157 -25.728  0.00  0.00    +0.000 C 
BRANCH  26  27
ATOM     27  C   UNL     1      15.223   0.298 -26.827  0.00  0.00    -0.001 C 
BRANCH  27  28
ATOM     28  C   UNL     1      15.827   1.206 -27.901  0.00  0.00    +0.002 C 
BRANCH  28  29
ATOM     29  C   UNL     1      16.456   0.347 -29.000  0.00  0.00    +0.004 C 
BRANCH  29  30
ATOM     30  C   UNL     1      17.059   1.255 -30.073  0.00  0.00    +0.009 C 
BRANCH  30  31
ATOM     31  C   UNL     1      17.688   0.397 -31.173  0.00  0.00    +0.033 C 
BRANCH  31  32
ATOM     32  C   UNL     1      18.292   1.305 -32.246  0.00  0.00    +0.096 C 
BRANCH  32  33
ATOM     33  C   UNL     1      18.911   0.459 -33.329  0.00  0.00    +0.459 C 
ATOM     48  O   UNL     1      18.874  -0.746 -33.250  0.00  0.00    -0.520 OA
BRANCH  33  34
ATOM     34  O   UNL     1      19.504   1.045 -34.381  0.00  0.00    -0.337 OA
BRANCH  34  35
ATOM     35  C   UNL     1      20.070   0.182 -35.370  0.00  0.00    +0.198 C 
BRANCH  35  36
ATOM     36  C   UNL     1      20.697   1.025 -36.483  0.00  0.00    +0.156 C 
BRANCH  36  37
ATOM     37  O   UNL     1      21.797   1.768 -35.956  0.00  0.00    -0.334 OA
BRANCH  37  38
ATOM     38  C   UNL     1      21.439   3.056 -35.449  0.00  0.00    +0.095 C 
BRANCH  38  39
ATOM     39  C   UNL     1      22.669   3.748 -34.922  0.00  0.00    +0.501 C 
ATOM     40  O   UNL     1      22.581   4.866 -34.442  0.00  0.00    -0.708 OA
ATOM     41  O   UNL     1      23.752   3.191 -34.974  0.00  0.00    -0.676 OA
ENDBRANCH  38  39
ENDBRANCH  37  38
ENDBRANCH  36  37
BRANCH  36  42
ATOM     42  C   UNL     1      21.192   0.105 -37.601  0.00  0.00    +0.164 C 
BRANCH  42  43
ATOM     43  O   UNL     1      21.671   0.895 -38.691  0.00  0.00    -0.343 OA
BRANCH  43  44
ATOM     44  C   UNL     1      22.160   0.129 -39.794  0.00  0.00    +0.081 C 
BRANCH  44  45
ATOM     45  C   UNL     1      22.636   1.059 -40.880  0.00  0.00    +0.499 C 
ATOM     46  O   UNL     1      23.094   0.605 -41.914  0.00  0.00    -0.708 OA
ATOM     47  O   UNL     1      22.565   2.266 -40.723  0.00  0.00    -0.668 OA
ENDBRANCH  44  45
ENDBRANCH  43  44
ENDBRANCH  42  43
ENDBRANCH  36  42
ENDBRANCH  35  36
ENDBRANCH  34  35
ENDBRANCH  33  34
ENDBRANCH  32  33
ENDBRANCH  31  32
ENDBRANCH  30  31
ENDBRANCH  29  30
ENDBRANCH  28  29
ENDBRANCH  27  28
ENDBRANCH  26  27
ENDBRANCH  25  26
ENDBRANCH  24  25
ENDBRANCH  23  24
ENDBRANCH  22  23
ENDBRANCH  21  22
ENDBRANCH  20  21
TORSDOF 41
