REMARK  Name = ZINC14826743
REMARK  1 active torsions:
REMARK  status: ('A' for Active; 'I' for Inactive)
REMARK    1  A    between atoms: C8_9  and  O6_24
REMARK                            x       y       z     vdW  Elec       q    Type
REMARK                         _______ _______ _______ _____ _____    ______ ____
ROOT
ATOM      1  C   UNL     1       2.492  -0.580   2.664  0.00  0.00    +0.142 A 
ATOM      2  C   UNL     1       2.228  -1.875   3.032  0.00  0.00    +0.018 A 
ATOM      3  C   UNL     1       1.202  -2.544   2.365  0.00  0.00    +0.111 A 
ATOM      4  C   UNL     1       0.459  -1.922   1.349  0.00  0.00    -0.015 A 
ATOM      5  O   UNL     1      -0.461  -2.798   0.882  0.00  0.00    -0.291 OA
ATOM      6  C   UNL     1      -0.544  -3.835   1.882  0.00  0.00    +0.441 C 
ATOM      7  C   UNL     1       0.721  -0.612   0.977  0.00  0.00    +0.203 A 
ATOM      8  O   UNL     1       0.002  -0.004   0.002  0.00  0.00    -0.267 OA
ATOM      9  C   UNL     1      -0.017   1.419   0.010  0.00  0.00    +0.175 C 
ATOM     10  C   UNL     1      -0.726   2.002  -1.210  0.00  0.00    +0.310 C 
ATOM     11  O   UNL     1      -0.794   3.421  -1.043  0.00  0.00    -0.294 OA
ATOM     12  C   UNL     1       0.305   4.091  -0.601  0.00  0.00    +0.167 A 
ATOM     13  C   UNL     1       0.274   5.487  -0.686  0.00  0.00    +0.023 A 
ATOM     14  C   UNL     1       1.369   6.189  -0.213  0.00  0.00    +0.087 A 
ATOM     15  O   UNL     1       1.600   7.521  -0.168  0.00  0.00    -0.299 OA
ATOM     16  C   UNL     1       3.019   7.661   0.055  0.00  0.00    +0.438 C 
ATOM     17  O   UNL     1       3.391   6.438   0.723  0.00  0.00    -0.301 OA
ATOM     18  C   UNL     1       2.476   5.520   0.334  0.00  0.00    -0.005 A 
ATOM     19  C   UNL     1       2.508   4.137   0.411  0.00  0.00    +0.128 A 
ATOM     20  C   UNL     1       1.405   3.436  -0.071  0.00  0.00    -0.205 A 
ATOM     21  C   UNL     1       1.431   1.934  -0.001  0.00  0.00    +0.116 C 
ATOM     24  C   UNL     1       2.071   1.450   1.283  0.00  0.00    +0.392 C 
ATOM     25  O   UNL     1       2.788   2.159   1.958  0.00  0.00    -0.412 OA
ATOM     26  O   UNL     1       0.744  -3.804   2.530  0.00  0.00    -0.295 OA
ATOM     27  C   UNL     1       1.761   0.055   1.657  0.00  0.00    -0.242 A 
ENDROOT
BRANCH  21  22
ATOM     22  O   UNL     1       2.131   1.397  -1.126  0.00  0.00    -0.513 OA
ATOM     23  H   UNL     1       3.052   1.684  -1.190  0.00  0.00    +0.391 HD
ENDBRANCH  21  22
TORSDOF 1
