REMARK  Name = ZINC14497261
REMARK  4 active torsions:
REMARK  status: ('A' for Active; 'I' for Inactive)
REMARK    1  A    between atoms: C1_1  and  O1_2
REMARK    2  A    between atoms: O1_2  and  C2_3
REMARK    3  A    between atoms: C2_3  and  C3_5
REMARK    4  A    between atoms: C3_5  and  O4_12
REMARK                            x       y       z     vdW  Elec       q    Type
REMARK                         _______ _______ _______ _____ _____    ______ ____
ROOT
ATOM      4  C   UNL     1      -1.854   3.361   0.043  0.00  0.00    +0.177 C 
ATOM      7  C   UNL     1      -1.514   2.570   1.270  0.00  0.00    -0.077 C 
ATOM      8  C   UNL     1      -0.698   1.561   1.254  0.00  0.00    +0.039 C 
ATOM      9  C   UNL     1      -0.013   1.086   0.008  0.00  0.00    +0.134 C 
ATOM     10  C   UNL     1      -0.722   1.574  -1.219  0.00  0.00    +0.120 C 
ATOM     11  C   UNL     1      -1.543   2.589  -1.204  0.00  0.00    +0.355 C 
ATOM     12  O   UNL     1      -2.140   2.961  -2.364  0.00  0.00    -0.524 OA
ENDROOT
BRANCH   4   3
ATOM      3  C   UNL     1      -3.324   3.694   0.064  0.00  0.00    +0.448 C 
ATOM     13  O   UNL     1      -4.108   3.005  -0.544  0.00  0.00    -0.479 OA
BRANCH   3   2
ATOM      1  C   UNL     1      -5.190   5.016   0.734  0.00  0.00    +0.276 C 
ATOM      2  O   UNL     1      -3.762   4.756   0.759  0.00  0.00    -0.355 OA
ENDBRANCH   3   2
ENDBRANCH   4   3
BRANCH   4   5
ATOM      5  O   UNL     1      -1.100   4.575   0.044  0.00  0.00    -0.512 OA
ATOM      6  H   UNL     1      -1.248   5.130   0.822  0.00  0.00    +0.400 HD
ENDBRANCH   4   5
TORSDOF 3
