REMARK  Name = ZINC95486326
REMARK  5 active torsions:
REMARK  status: ('A' for Active; 'I' for Inactive)
REMARK    1  A    between atoms: C1_1  and  O1_2
REMARK    2  A    between atoms: O1_2  and  C2_3
REMARK    3  A    between atoms: C8_10  and  C9_12
REMARK    4  A    between atoms: C15_18  and  O6_27
REMARK    5  A    between atoms: C16_19  and  C17_20
REMARK                            x       y       z     vdW  Elec       q    Type
REMARK                         _______ _______ _______ _____ _____    ______ ____
ROOT
ATOM      3  C   UNL     1       0.605  -0.606  -1.055  0.00  0.00    +0.225 A 
ATOM      4  C   UNL     1       1.169   0.166  -2.055  0.00  0.00    -0.093 A 
ATOM      5  C   UNL     1       1.787  -0.439  -3.139  0.00  0.00    +0.211 A 
ATOM      6  C   UNL     1       1.838  -1.843  -3.216  0.00  0.00    -0.288 A 
ATOM      7  C   UNL     1       1.270  -2.627  -2.207  0.00  0.00    +0.256 A 
ATOM     10  C   UNL     1       2.501  -2.459  -4.378  0.00  0.00    +0.426 A 
ATOM     11  C   UNL     1       3.048  -1.589  -5.353  0.00  0.00    -0.144 A 
ATOM     12  C   UNL     1       2.945  -0.245  -5.184  0.00  0.00    +0.203 A 
ATOM     19  O   UNL     1       2.574  -3.671  -4.497  0.00  0.00    -0.455 OA
ATOM     20  O   UNL     1       2.339   0.305  -4.121  0.00  0.00    -0.218 OA
ATOM     21  C   UNL     1       0.657  -2.005  -1.121  0.00  0.00    -0.101 A 
ENDROOT
BRANCH  21  22
ATOM     22  C   UNL     1       0.055  -2.822  -0.039  0.00  0.00    -0.274 C 
ATOM     23  C   UNL     1      -1.219  -3.284   0.015  0.00  0.00    +0.363 C 
ATOM     24  O   UNL     1      -1.438  -3.991   1.130  0.00  0.00    -0.220 OA
ATOM     25  C   UNL     1      -0.324  -4.052   1.903  0.00  0.00    -0.059 C 
ATOM     26  C   UNL     1      -0.198  -4.677   3.079  0.00  0.00    +0.199 C 
ATOM     27  C   UNL     1       0.725  -3.296   1.183  0.00  0.00    +0.401 C 
ATOM     28  O   UNL     1       1.879  -3.107   1.525  0.00  0.00    -0.428 OA
ENDBRANCH  21  22
BRANCH  12  13
ATOM     13  C   UNL     1       3.523   0.645  -6.212  0.00  0.00    -0.073 A 
ATOM     14  C   UNL     1       4.155   0.104  -7.333  0.00  0.00    +0.056 A 
ATOM     15  C   UNL     1       4.691   0.942  -8.289  0.00  0.00    +0.014 A 
ATOM     16  C   UNL     1       4.605   2.314  -8.139  0.00  0.00    +0.037 A 
ATOM     17  C   UNL     1       3.980   2.857  -7.030  0.00  0.00    +0.009 A 
ATOM     18  C   UNL     1       3.434   2.031  -6.069  0.00  0.00    +0.054 A 
ENDBRANCH  12  13
BRANCH   3   2
ATOM      1  C   UNL     1      -0.017   1.425   0.010  0.00  0.00    +0.255 C 
ATOM      2  O   UNL     1       0.002  -0.004   0.002  0.00  0.00    -0.294 OA
ENDBRANCH   3   2
BRANCH   7   8
ATOM      8  O   UNL     1       1.320  -3.981  -2.281  0.00  0.00    -0.466 OA
ATOM      9  H   UNL     1       2.102  -4.369  -1.867  0.00  0.00    +0.404 HD
ENDBRANCH   7   8
TORSDOF 4
