REMARK  Name = ZINC04245684
REMARK  10 active torsions:
REMARK  status: ('A' for Active; 'I' for Inactive)
REMARK    1  A    between atoms: C3_3  and  O10_36
REMARK    2  A    between atoms: C6_6  and  C7_7
REMARK    3  A    between atoms: C11_12  and  O9_35
REMARK    4  A    between atoms: C13_14  and  O8_34
REMARK    5  A    between atoms: C14_15  and  C16_18
REMARK    6  A    between atoms: C17_20  and  O7_33
REMARK    7  A    between atoms: C18_22  and  O6_32
REMARK    8  A    between atoms: C19_24  and  O5_31
REMARK    9  A    between atoms: C20_26  and  C21_29
REMARK   10  A    between atoms: C21_29  and  O4_30
REMARK                            x       y       z     vdW  Elec       q    Type
REMARK                         _______ _______ _______ _____ _____    ______ ____
ROOT
ATOM      9  C   UNL     1      -1.264  -0.761   0.011  0.00  0.00    +0.211 A 
ATOM     10  C   UNL     1      -1.213  -2.120   0.008  0.00  0.00    -0.148 A 
ATOM     11  C   UNL     1      -2.418  -2.863   0.017  0.00  0.00    +0.425 A 
ATOM     12  C   UNL     1      -3.681  -2.106   0.028  0.00  0.00    -0.267 A 
ATOM     13  C   UNL     1      -4.920  -2.759   0.037  0.00  0.00    +0.226 A 
ATOM     16  C   UNL     1      -6.083  -2.012   0.048  0.00  0.00    -0.057 A 
ATOM     17  C   UNL     1      -6.021  -0.623   0.049  0.00  0.00    +0.217 A 
ATOM     20  C   UNL     1      -4.798   0.030   0.040  0.00  0.00    -0.142 A 
ATOM     36  C   UNL     1      -3.621  -0.702   0.029  0.00  0.00    +0.208 A 
ATOM     37  O   UNL     1      -2.410  -4.084   0.016  0.00  0.00    -0.455 OA
ATOM     38  O   UNL     1      -2.422  -0.082   0.026  0.00  0.00    -0.212 OA
ENDROOT
BRANCH   9   8
ATOM      1  C   UNL     1      -0.017   1.394   0.010  0.00  0.00    +0.079 A 
ATOM      2  C   UNL     1       1.168   2.096   0.002  0.00  0.00    -0.012 A 
ATOM      3  C   UNL     1       2.380   1.418  -0.014  0.00  0.00    +0.135 A 
ATOM      6  C   UNL     1       2.404   0.028  -0.021  0.00  0.00    -0.006 A 
ATOM      7  C   UNL     1       1.224  -0.682  -0.013  0.00  0.00    +0.080 A 
ATOM      8  C   UNL     1       0.002  -0.004   0.002  0.00  0.00    -0.083 A 
BRANCH   3   4
ATOM      4  O   UNL     1       3.546   2.115  -0.022  0.00  0.00    -0.497 OA
ATOM      5  H   UNL     1       3.892   2.312   0.859  0.00  0.00    +0.398 HD
ENDBRANCH   3   4
ENDBRANCH   9   8
BRANCH  20  21
ATOM     21  C   UNL     1      -4.749   1.536   0.042  0.00  0.00    +0.242 C 
ATOM     22  C   UNL     1      -5.117   2.061  -1.349  0.00  0.00    +0.179 C 
ATOM     25  C   UNL     1      -5.123   3.592  -1.323  0.00  0.00    +0.117 C 
ATOM     28  C   UNL     1      -6.099   4.070  -0.244  0.00  0.00    +0.131 C 
ATOM     31  C   UNL     1      -5.693   3.468   1.104  0.00  0.00    +0.182 C 
ATOM     35  O   UNL     1      -5.678   2.043   1.002  0.00  0.00    -0.345 OA
BRANCH  22  23
ATOM     23  O   UNL     1      -4.157   1.601  -2.302  0.00  0.00    -0.549 OA
ATOM     24  H   UNL     1      -4.329   1.897  -3.207  0.00  0.00    +0.390 HD
ENDBRANCH  22  23
BRANCH  25  26
ATOM     26  O   UNL     1      -5.535   4.090  -2.598  0.00  0.00    -0.556 OA
ATOM     27  H   UNL     1      -5.562   5.055  -2.653  0.00  0.00    +0.383 HD
ENDBRANCH  25  26
BRANCH  28  29
ATOM     29  O   UNL     1      -6.060   5.496  -0.162  0.00  0.00    -0.553 OA
ATOM     30  H   UNL     1      -6.303   5.944  -0.985  0.00  0.00    +0.383 HD
ENDBRANCH  28  29
BRANCH  31  32
ATOM     32  C   UNL     1      -6.698   3.893   2.176  0.00  0.00    +0.220 C 
BRANCH  32  33
ATOM     33  O   UNL     1      -6.256   3.428   3.454  0.00  0.00    -0.567 OA
ATOM     34  H   UNL     1      -6.847   3.662   4.183  0.00  0.00    +0.384 HD
ENDBRANCH  32  33
ENDBRANCH  31  32
ENDBRANCH  20  21
BRANCH  13  14
ATOM     14  O   UNL     1      -4.978  -4.115   0.036  0.00  0.00    -0.471 OA
ATOM     15  H   UNL     1      -4.987  -4.509   0.918  0.00  0.00    +0.403 HD
ENDBRANCH  13  14
BRANCH  17  18
ATOM     18  O   UNL     1      -7.170   0.101   0.059  0.00  0.00    -0.480 OA
ATOM     19  H   UNL     1      -7.495   0.310   0.946  0.00  0.00    +0.406 HD
ENDBRANCH  17  18
TORSDOF 10
