REMARK  Name = ZINC43617259
REMARK  18 active torsions:
REMARK  status: ('A' for Active; 'I' for Inactive)
REMARK    1  A    between atoms: C1_1  and  C2_2
REMARK    2  A    between atoms: C2_2  and  C3_3
REMARK    3  A    between atoms: C3_3  and  C4_4
REMARK    4  A    between atoms: C4_4  and  C5_5
REMARK    5  A    between atoms: C5_5  and  C6_6
REMARK    6  A    between atoms: C6_6  and  C7_7
REMARK    7  A    between atoms: C7_7  and  C8_8
REMARK    8  A    between atoms: C8_8  and  C9_9
REMARK    9  A    between atoms: C9_9  and  C10_10
REMARK   10  A    between atoms: C10_10  and  C11_12
REMARK   11  A    between atoms: C10_10  and  O3_24
REMARK   12  A    between atoms: C12_13  and  C13_14
REMARK   13  A    between atoms: C14_15  and  C15_16
REMARK   14  A    between atoms: C15_16  and  C16_18
REMARK   15  A    between atoms: C15_16  and  O1_20
REMARK   16  A    between atoms: C16_18  and  C17_19
REMARK   17  A    between atoms: O1_20  and  C18_21
REMARK   18  A    between atoms: C18_21  and  C19_23
REMARK                            x       y       z     vdW  Elec       q    Type
REMARK                         _______ _______ _______ _____ _____    ______ ____
ROOT
ATOM     10  C   UNL     1       2.950  -8.097  -5.067  0.00  0.00    +0.349 C 
ENDROOT
BRANCH  10  11
ATOM     11  O   UNL     1       3.739  -8.569  -3.973  0.00  0.00    -0.544 OA
ATOM     12  H   UNL     1       4.659  -8.271  -3.995  0.00  0.00    +0.382 HD
ENDBRANCH  10  11
BRANCH  10  13
ATOM     13  C   UNL     1       3.531  -8.573  -6.333  0.00  0.00    -0.147 C 
ATOM     14  C   UNL     1       3.994  -8.953  -7.343  0.00  0.00    -0.063 C 
BRANCH  14  15
ATOM     15  C   UNL     1       4.538  -9.398  -8.527  0.00  0.00    -0.042 C 
ATOM     16  C   UNL     1       5.001  -9.777  -9.536  0.00  0.00    -0.125 C 
BRANCH  16  17
ATOM     17  C   UNL     1       5.582 -10.253 -10.802  0.00  0.00    +0.320 C 
BRANCH  17  22
ATOM     22  C   UNL     1       4.737  -9.748 -11.973  0.00  0.00    +0.032 C 
ATOM     23  C   UNL     1       5.266 -10.344 -13.279  0.00  0.00    +0.030 C 
ENDBRANCH  17  22
BRANCH  17  18
ATOM     18  O   UNL     1       6.917  -9.758 -10.930  0.00  0.00    -0.343 OA
BRANCH  18  19
ATOM     19  C   UNL     1       7.785 -10.516 -11.618  0.00  0.00    +0.462 C 
ATOM     20  C   UNL     1       9.210 -10.058 -11.794  0.00  0.00    +0.162 C 
ATOM     21  O   UNL     1       7.424 -11.565 -12.097  0.00  0.00    -0.503 OA
ENDBRANCH  18  19
ENDBRANCH  17  18
ENDBRANCH  16  17
ENDBRANCH  14  15
ENDBRANCH  10  13
BRANCH  10   9
ATOM      9  C   UNL     1       2.929  -6.567  -5.058  0.00  0.00    +0.004 C 
BRANCH   9   8
ATOM      8  C   UNL     1       2.213  -6.074  -3.800  0.00  0.00    +0.021 C 
BRANCH   8   7
ATOM      7  C   UNL     1       2.192  -4.544  -3.791  0.00  0.00    +0.002 C 
BRANCH   7   6
ATOM      6  C   UNL     1       1.476  -4.051  -2.532  0.00  0.00    +0.003 C 
BRANCH   6   5
ATOM      5  C   UNL     1       1.455  -2.521  -2.524  0.00  0.00    +0.000 C 
BRANCH   5   4
ATOM      4  C   UNL     1       0.739  -2.027  -1.265  0.00  0.00    +0.000 C 
BRANCH   4   3
ATOM      3  C   UNL     1       0.718  -0.498  -1.257  0.00  0.00    -0.001 C 
BRANCH   3   2
ATOM      1  C   UNL     1      -0.019   1.526   0.010  0.00  0.00    +0.006 C 
ATOM      2  C   UNL     1       0.002  -0.004   0.002  0.00  0.00    -0.006 C 
ENDBRANCH   3   2
ENDBRANCH   4   3
ENDBRANCH   5   4
ENDBRANCH   6   5
ENDBRANCH   7   6
ENDBRANCH   8   7
ENDBRANCH   9   8
ENDBRANCH  10   9
TORSDOF 15
