REMARK  Name = ZINC95486152
REMARK  5 active torsions:
REMARK  status: ('A' for Active; 'I' for Inactive)
REMARK    1  A    between atoms: C1_1  and  C2_2
REMARK    2  A    between atoms: C6_6  and  C19_24
REMARK    3  A    between atoms: C6_6  and  C20_25
REMARK    4  A    between atoms: C11_12  and  C12_14
REMARK    5  A    between atoms: C12_14  and  C13_15
REMARK                            x       y       z     vdW  Elec       q    Type
REMARK                         _______ _______ _______ _____ _____    ______ ____
ROOT
ATOM      1  C   UNL     1       0.060   1.527   0.000  0.00  0.00    +0.028 C 
ATOM      2  C   UNL     1       0.067  -0.010  -0.003  0.00  0.00    -0.030 C 
ATOM      3  C   UNL     1      -1.382  -0.498   0.043  0.00  0.00    +0.019 C 
ATOM      4  C   UNL     1      -2.019  -0.086   1.372  0.00  0.00    +0.006 C 
ATOM      5  C   UNL     1      -1.273  -0.769   2.513  0.00  0.00    +0.012 C 
ATOM      6  C   UNL     1       0.208  -0.396   2.525  0.00  0.00    -0.050 C 
ATOM      7  C   UNL     1       0.896  -1.373   3.509  0.00  0.00    +0.011 C 
ATOM      8  C   UNL     1       0.385   1.012   3.091  0.00  0.00    +0.023 C 
ATOM      9  C   UNL     1       0.705  -0.447  -1.331  0.00  0.00    +0.033 C 
ATOM     18  C   UNL     1       2.177  -0.030  -1.348  0.00  0.00    +0.026 C 
ATOM     19  C   UNL     1       2.566   1.240  -2.098  0.00  0.00    +0.185 C 
ATOM     20  O   UNL     1       2.841  -0.061  -2.618  0.00  0.00    -0.345 OA
ATOM     21  C   UNL     1       3.003  -0.435  -0.128  0.00  0.00    +0.045 C 
ATOM     22  C   UNL     1       2.288  -0.018   1.160  0.00  0.00    +0.032 C 
ATOM     23  C   UNL     1       0.862  -0.569   1.164  0.00  0.00    +0.008 C 
ENDROOT
BRANCH   9  10
ATOM     10  C   UNL     1       0.593  -1.953  -1.545  0.00  0.00    +0.078 C 
BRANCH  10  11
ATOM     11  C   UNL     1       1.123  -2.306  -2.911  0.00  0.00    +0.107 C 
ATOM     12  C   UNL     1       2.087  -3.216  -3.036  0.00  0.00    -0.232 C 
ATOM     13  C   UNL     1       2.766  -4.002  -1.925  0.00  0.00    +0.070 C 
ATOM     14  C   UNL     1       3.764  -4.898  -2.689  0.00  0.00    +0.249 C 
ATOM     15  O   UNL     1       3.299  -4.883  -4.049  0.00  0.00    -0.343 OA
ATOM     16  C   UNL     1       2.723  -3.685  -4.283  0.00  0.00    +0.514 C 
ATOM     17  O   UNL     1       2.729  -3.091  -5.343  0.00  0.00    -0.447 OA
ENDBRANCH  10  11
ENDBRANCH   9  10
TORSDOF 2
