REMARK  Name = ZINC95486246
REMARK  14 active torsions:
REMARK  status: ('A' for Active; 'I' for Inactive)
REMARK    1  A    between atoms: C1_1  and  C2_2
REMARK    2  A    between atoms: C2_2  and  C3_4
REMARK    3  A    between atoms: C2_2  and  C9_11
REMARK    4  A    between atoms: C3_4  and  C4_5
REMARK    5  A    between atoms: C4_5  and  C5_6
REMARK    6  A    between atoms: C6_7  and  C7_8
REMARK    7  A    between atoms: C6_7  and  C8_9
REMARK    8  A    between atoms: C8_9  and  O1_10
REMARK    9  A    between atoms: C12_15  and  C30_37
REMARK   10  A    between atoms: C13_16  and  C29_36
REMARK   11  A    between atoms: C21_26  and  C28_35
REMARK   12  A    between atoms: C24_29  and  O3_34
REMARK   13  A    between atoms: C25_31  and  C26_32
REMARK   14  A    between atoms: C25_31  and  C27_33
REMARK                            x       y       z     vdW  Elec       q    Type
REMARK                         _______ _______ _______ _____ _____    ______ ____
ROOT
ATOM      3  C   UNL     1       0.611   0.522  -0.687  0.00  0.00    +0.007 C 
ATOM      4  C   UNL     1       0.722  -1.023  -0.655  0.00  0.00    +0.017 C 
ATOM      5  C   UNL     1       2.239  -1.355  -0.705  0.00  0.00    +0.033 C 
ATOM      6  C   UNL     1       2.837  -0.108  -1.360  0.00  0.00    -0.044 C 
ATOM      7  C   UNL     1       2.530  -0.111  -2.859  0.00  0.00    +0.045 C 
ATOM      8  C   UNL     1       4.301   0.122  -1.142  0.00  0.00    -0.010 C 
ATOM      9  C   UNL     1       5.192  -1.079  -0.970  0.00  0.00    +0.076 C 
ATOM     10  C   UNL     1       6.556  -0.682  -0.408  0.00  0.00    +0.021 C 
ATOM     11  C   UNL     1       7.073   0.502  -1.229  0.00  0.00    +0.012 C 
ATOM     12  C   UNL     1       6.204   1.723  -0.918  0.00  0.00    +0.005 C 
ATOM     13  C   UNL     1       6.596   2.882  -1.837  0.00  0.00    +0.024 C 
ATOM     14  C   UNL     1       6.395   2.141   0.543  0.00  0.00    +0.026 C 
ATOM     15  C   UNL     1       7.869   2.449   0.808  0.00  0.00    -0.014 C 
ATOM     16  C   UNL     1       8.699   1.190   0.544  0.00  0.00    +0.169 C 
ATOM     19  C   UNL     1       8.535   0.782  -0.907  0.00  0.00    -0.044 C 
ATOM     20  C   UNL     1       9.043   1.913  -1.803  0.00  0.00    +0.030 C 
ATOM     21  C   UNL     1       9.361  -0.479  -1.168  0.00  0.00    +0.029 C 
ATOM     22  C   UNL     1       4.745   1.385  -1.127  0.00  0.00    -0.189 C 
ATOM     23  C   UNL     1       3.828   2.527  -1.296  0.00  0.00    +0.395 C 
ATOM     24  O   UNL     1       4.266   3.659  -1.304  0.00  0.00    -0.445 OA
ATOM     25  C   UNL     1       2.336   2.292  -1.460  0.00  0.00    +0.045 C 
ATOM     26  C   UNL     1       2.049   1.030  -0.659  0.00  0.00    -0.045 C 
ATOM     27  C   UNL     1       2.525   1.191   0.786  0.00  0.00    +0.034 C 
ENDROOT
BRANCH   3   2
ATOM      1  C   UNL     1      -0.254   2.551   0.487  0.00  0.00    +0.014 C 
ATOM      2  C   UNL     1      -0.153   1.025   0.539  0.00  0.00    -0.009 C 
BRANCH   2  28
ATOM     28  C   UNL     1      -1.558   0.420   0.548  0.00  0.00    +0.016 C 
BRANCH  28  29
ATOM     29  C   UNL     1      -2.279   0.823   1.836  0.00  0.00    +0.044 C 
BRANCH  29  30
ATOM     30  C   UNL     1      -3.663   0.228   1.844  0.00  0.00    -0.013 C 
ATOM     31  C   UNL     1      -4.029  -0.568   2.819  0.00  0.00    -0.156 C 
ATOM     35  C   UNL     1      -3.031  -0.977   3.871  0.00  0.00    +0.083 C 
BRANCH  31  32
ATOM     32  C   UNL     1      -5.447  -1.073   2.888  0.00  0.00    +0.222 C 
BRANCH  32  33
ATOM     33  O   UNL     1      -6.193  -0.550   1.787  0.00  0.00    -0.572 OA
ATOM     34  H   UNL     1      -7.117  -0.834   1.768  0.00  0.00    +0.382 HD
ENDBRANCH  32  33
ENDBRANCH  31  32
ENDBRANCH  29  30
ENDBRANCH  28  29
ENDBRANCH   2  28
ENDBRANCH   3   2
BRANCH  16  17
ATOM     17  O   UNL     1      10.076   1.458   0.819  0.00  0.00    -0.563 OA
ATOM     18  H   UNL     1      10.249   1.728   1.731  0.00  0.00    +0.375 HD
ENDBRANCH  16  17
TORSDOF 7
