REMARK  Name = ZINC95486082
REMARK  8 active torsions:
REMARK  status: ('A' for Active; 'I' for Inactive)
REMARK    1  A    between atoms: C1_1  and  C2_2
REMARK    2  A    between atoms: C2_2  and  C25_30
REMARK    3  A    between atoms: C3_3  and  C4_4
REMARK    4  A    between atoms: C4_4  and  C5_5
REMARK    5  A    between atoms: C7_7  and  C16_17
REMARK    6  A    between atoms: C11_12  and  C14_15
REMARK    7  A    between atoms: C11_12  and  C15_16
REMARK    8  A    between atoms: C22_25  and  O4_29
REMARK                            x       y       z     vdW  Elec       q    Type
REMARK                         _______ _______ _______ _____ _____    ______ ____
ROOT
ATOM      6  C   UNL     1      -0.864  -0.562   3.381  0.00  0.00    -0.103 A 
ATOM      7  C   UNL     1      -2.148  -0.066   3.473  0.00  0.00    +0.078 A 
ATOM      8  C   UNL     1      -3.055  -0.652   4.336  0.00  0.00    -0.123 A 
ATOM     22  C   UNL     1      -2.674  -1.732   5.108  0.00  0.00    +0.056 A 
ATOM     23  C   UNL     1      -1.386  -2.234   5.021  0.00  0.00    -0.157 A 
ATOM     24  C   UNL     1      -1.006  -3.411   5.883  0.00  0.00    +0.085 C 
ATOM     25  C   UNL     1       0.252  -4.079   5.314  0.00  0.00    +0.016 C 
ATOM     26  C   UNL     1       1.291  -2.982   5.047  0.00  0.00    +0.111 C 
ATOM     27  C   UNL     1       2.605  -3.618   4.589  0.00  0.00    +0.074 C 
ATOM     28  C   UNL     1       1.527  -2.173   6.324  0.00  0.00    +0.029 C 
ATOM     29  O   UNL     1       0.788  -2.126   4.020  0.00  0.00    -0.300 OA
ATOM     30  C   UNL     1      -0.479  -1.655   4.150  0.00  0.00    +0.153 A 
ENDROOT
BRANCH   8   9
ATOM      9  C   UNL     1      -4.458  -0.111   4.436  0.00  0.00    +0.241 C 
ATOM     10  C   UNL     1      -5.327  -0.735   3.335  0.00  0.00    +0.037 C 
ATOM     11  C   UNL     1      -6.715  -0.133   3.462  0.00  0.00    +0.402 C 
ATOM     12  C   UNL     1      -6.782   1.304   3.770  0.00  0.00    -0.265 A 
ATOM     13  C   UNL     1      -7.988   2.002   3.660  0.00  0.00    +0.134 A 
ATOM     14  C   UNL     1      -8.031   3.334   3.957  0.00  0.00    -0.051 A 
ATOM     15  C   UNL     1      -6.878   3.999   4.367  0.00  0.00    +0.181 A 
ATOM     18  C   UNL     1      -5.673   3.320   4.479  0.00  0.00    -0.045 A 
ATOM     19  C   UNL     1      -5.612   1.969   4.178  0.00  0.00    +0.201 A 
ATOM     20  O   UNL     1      -7.717  -0.802   3.318  0.00  0.00    -0.442 OA
ATOM     21  O   UNL     1      -4.436   1.307   4.275  0.00  0.00    -0.299 OA
BRANCH  15  16
ATOM     16  O   UNL     1      -6.933   5.322   4.662  0.00  0.00    -0.494 OA
ATOM     17  H   UNL     1      -7.136   5.511   5.588  0.00  0.00    +0.401 HD
ENDBRANCH  15  16
ENDBRANCH   8   9
BRANCH   6   5
ATOM      5  C   UNL     1       0.123   0.078   2.439  0.00  0.00    +0.118 C 
BRANCH   5   4
ATOM      1  C   UNL     1      -0.200   1.488   0.018  0.00  0.00    +0.072 C 
ATOM      2  C   UNL     1      -0.087  -0.015   0.009  0.00  0.00    -0.135 C 
ATOM      3  C   UNL     1      -0.213  -0.772  -1.289  0.00  0.00    +0.071 C 
ATOM      4  C   UNL     1       0.121  -0.664   1.128  0.00  0.00    -0.044 C 
ENDBRANCH   5   4
ENDBRANCH   6   5
TORSDOF 4
