REMARK  Name = ZINC95486334
REMARK  8 active torsions:
REMARK  status: ('A' for Active; 'I' for Inactive)
REMARK    1  A    between atoms: C1_1  and  C2_2
REMARK    2  A    between atoms: C6_6  and  C19_24
REMARK    3  A    between atoms: C6_6  and  C20_25
REMARK    4  A    between atoms: C11_12  and  C12_14
REMARK    5  A    between atoms: C12_14  and  C13_15
REMARK    6  A    between atoms: C14_16  and  C15_17
REMARK    7  A    between atoms: C14_16  and  C17_20
REMARK    8  A    between atoms: C15_17  and  C16_18
REMARK                            x       y       z     vdW  Elec       q    Type
REMARK                         _______ _______ _______ _____ _____    ______ ____
ROOT
ATOM      1  C   UNL     1       0.360   1.605  -0.202  0.00  0.00    +0.031 C 
ATOM      2  C   UNL     1       0.009   0.121  -0.286  0.00  0.00    -0.032 C 
ATOM      3  C   UNL     1      -1.509  -0.039  -0.398  0.00  0.00    +0.016 C 
ATOM      4  C   UNL     1      -2.178   0.389   0.908  0.00  0.00    +0.008 C 
ATOM      5  C   UNL     1      -1.705  -0.514   2.040  0.00  0.00    +0.012 C 
ATOM      6  C   UNL     1      -0.188  -0.445   2.208  0.00  0.00    -0.049 C 
ATOM      7  C   UNL     1       0.202   0.872   2.876  0.00  0.00    +0.024 C 
ATOM      8  C   UNL     1       0.196  -1.584   3.182  0.00  0.00    +0.012 C 
ATOM      9  C   UNL     1       0.652  -0.452  -1.565  0.00  0.00    +0.032 C 
ATOM     18  C   UNL     1       2.171  -0.351  -1.445  0.00  0.00    +0.034 C 
ATOM     19  C   UNL     1       2.914   0.840  -2.034  0.00  0.00    +0.187 C 
ATOM     20  O   UNL     1       2.929  -0.447  -2.656  0.00  0.00    -0.354 OA
ATOM     21  C   UNL     1       2.766  -1.013  -0.197  0.00  0.00    +0.049 C 
ATOM     22  C   UNL     1       2.049  -0.486   1.051  0.00  0.00    +0.033 C 
ATOM     23  C   UNL     1       0.541  -0.676   0.898  0.00  0.00    +0.005 C 
ENDROOT
BRANCH   9  10
ATOM     10  C   UNL     1       0.162   0.310  -2.793  0.00  0.00    +0.064 C 
BRANCH  10  11
ATOM     11  C   UNL     1       0.705  -0.342  -4.038  0.00  0.00    +0.097 C 
ATOM     12  C   UNL     1      -0.132  -0.871  -4.934  0.00  0.00    -0.232 C 
BRANCH  12  13
ATOM     13  C   UNL     1      -1.564  -0.940  -4.644  0.00  0.00    +0.464 C 
ATOM     14  O   UNL     1      -2.317  -1.468  -5.436  0.00  0.00    -0.452 OA
ENDBRANCH  12  13
BRANCH  12  15
ATOM     15  C   UNL     1       0.399  -1.396  -6.242  0.00  0.00    +0.064 C 
BRANCH  15  16
ATOM     16  C   UNL     1       0.642  -2.879  -6.127  0.00  0.00    +0.442 C 
ATOM     17  O   UNL     1       0.128  -3.638  -6.913  0.00  0.00    -0.453 OA
ENDBRANCH  15  16
ENDBRANCH  12  15
ENDBRANCH  10  11
ENDBRANCH   9  10
TORSDOF 5
