REMARK  Name = ZINC14618437
REMARK  9 active torsions:
REMARK  status: ('A' for Active; 'I' for Inactive)
REMARK    1  A    between atoms: C1_1  and  C2_2
REMARK    2  A    between atoms: C3_3  and  O7_30
REMARK    3  A    between atoms: C6_7  and  C7_9
REMARK    4  A    between atoms: C8_10  and  O6_28
REMARK    5  A    between atoms: C12_14  and  O3_15
REMARK    6  A    between atoms: O3_15  and  C13_16
REMARK    7  A    between atoms: C16_20  and  C17_22
REMARK    8  A    between atoms: O6_28  and  C23_29
REMARK    9  A    between atoms: O7_30  and  C24_31
REMARK                            x       y       z     vdW  Elec       q    Type
REMARK                         _______ _______ _______ _____ _____    ______ ____
ROOT
ATOM      9  C   UNL     1       4.861   1.123  -0.037  0.00  0.00    -0.161 A 
ATOM     10  C   UNL     1       4.755  -0.280  -0.044  0.00  0.00    +0.244 A 
ATOM     13  C   UNL     1       3.514  -0.889  -0.036  0.00  0.00    -0.085 A 
ATOM     14  C   UNL     1       2.357  -0.122  -0.021  0.00  0.00    +0.229 A 
ATOM     15  C   UNL     1       2.451   1.282  -0.014  0.00  0.00    -0.287 A 
ATOM     16  C   UNL     1       1.207   2.069   0.002  0.00  0.00    +0.426 A 
ATOM     17  C   UNL     1      -0.016   1.355   0.009  0.00  0.00    -0.136 A 
ATOM     18  C   UNL     1       0.002  -0.004   0.002  0.00  0.00    +0.203 A 
ATOM     25  O   UNL     1       1.228   3.289   0.007  0.00  0.00    -0.447 OA
ATOM     26  O   UNL     1       1.143  -0.711  -0.013  0.00  0.00    -0.216 OA
ATOM     27  C   UNL     1       3.702   1.907  -0.022  0.00  0.00    +0.269 A 
ENDROOT
BRANCH   9   8
ATOM      1  C   UNL     1       8.088   3.923  -2.402  0.00  0.00    +0.184 C 
ATOM      2  C   UNL     1       7.745   3.112  -1.179  0.00  0.00    +0.111 A 
ATOM      3  C   UNL     1       8.641   3.010  -0.174  0.00  0.00    -0.089 A 
ATOM      6  C   UNL     1       8.285   2.214   1.007  0.00  0.00    +0.392 A 
ATOM      7  C   UNL     1       7.017   1.596   1.025  0.00  0.00    -0.117 A 
ATOM      8  C   UNL     1       6.187   1.763  -0.045  0.00  0.00    +0.208 A 
ATOM     30  O   UNL     1       9.062   2.091   1.943  0.00  0.00    -0.474 OA
ATOM     31  O   UNL     1       6.556   2.496  -1.107  0.00  0.00    -0.195 OA
BRANCH   3   4
ATOM      4  O   UNL     1       9.849   3.633  -0.255  0.00  0.00    -0.302 OA
ATOM      5  C   UNL     1      10.922   2.894  -0.841  0.00  0.00    +0.223 C 
ENDBRANCH   3   4
ENDBRANCH   9   8
BRANCH  18  19
ATOM     19  C   UNL     1      -1.283  -0.731   0.010  0.00  0.00    -0.075 A 
ATOM     20  C   UNL     1      -2.488  -0.026   0.030  0.00  0.00    +0.057 A 
ATOM     21  C   UNL     1      -3.685  -0.711   0.032  0.00  0.00    +0.015 A 
ATOM     22  C   UNL     1      -3.693  -2.095   0.025  0.00  0.00    +0.039 A 
ATOM     23  C   UNL     1      -2.503  -2.801   0.010  0.00  0.00    +0.010 A 
ATOM     24  C   UNL     1      -1.299  -2.128   0.003  0.00  0.00    +0.055 A 
ENDBRANCH  18  19
BRANCH  10  11
ATOM     11  O   UNL     1       5.878  -1.039  -0.058  0.00  0.00    -0.292 OA
ATOM     12  C   UNL     1       5.702  -2.458  -0.064  0.00  0.00    +0.266 C 
ENDBRANCH  10  11
BRANCH  27  28
ATOM     28  O   UNL     1       3.792   3.259  -0.017  0.00  0.00    -0.312 OA
ATOM     29  C   UNL     1       3.846   3.900   1.260  0.00  0.00    +0.258 C 
ENDBRANCH  27  28
TORSDOF 5
