REMARK  Name = ZINC95485938
REMARK  10 active torsions:
REMARK  status: ('A' for Active; 'I' for Inactive)
REMARK    1  A    between atoms: C3_3  and  O11_42
REMARK    2  A    between atoms: C6_6  and  C7_7
REMARK    3  A    between atoms: C11_13  and  O10_41
REMARK    4  A    between atoms: C13_15  and  O9_40
REMARK    5  A    between atoms: C14_16  and  C16_19
REMARK    6  A    between atoms: C17_20  and  C22_27
REMARK    7  A    between atoms: C20_23  and  O4_26
REMARK    8  A    between atoms: C21_24  and  O3_25
REMARK    9  A    between atoms: C26_32  and  O8_39
REMARK   10  A    between atoms: C28_34  and  O7_38
REMARK                            x       y       z     vdW  Elec       q    Type
REMARK                         _______ _______ _______ _____ _____    ______ ____
ROOT
ATOM     21  C   UNL     1      -1.348  -3.799  -2.972  0.00  0.00    +0.005 A 
ATOM     22  C   UNL     1      -0.089  -4.423  -2.856  0.00  0.00    -0.046 A 
ATOM     38  C   UNL     1       0.832  -4.320  -3.901  0.00  0.00    +0.075 A 
ATOM     39  C   UNL     1       0.511  -3.612  -5.039  0.00  0.00    +0.019 A 
ATOM     40  C   UNL     1      -0.728  -2.995  -5.158  0.00  0.00    +0.112 A 
ATOM     43  C   UNL     1      -1.661  -3.090  -4.131  0.00  0.00    +0.093 A 
ENDROOT
BRANCH  21  20
ATOM      9  C   UNL     1      -1.558  -0.876   0.017  0.00  0.00    +0.239 C 
ATOM     10  C   UNL     1      -1.943  -1.293   1.445  0.00  0.00    +0.039 C 
ATOM     11  C   UNL     1      -3.188  -2.157   1.340  0.00  0.00    +0.404 C 
ATOM     12  C   UNL     1      -3.232  -3.112   0.227  0.00  0.00    -0.295 A 
ATOM     13  C   UNL     1      -4.209  -4.121   0.189  0.00  0.00    +0.232 A 
ATOM     16  C   UNL     1      -4.243  -5.005  -0.876  0.00  0.00    -0.072 A 
ATOM     17  C   UNL     1      -3.316  -4.899  -1.902  0.00  0.00    +0.234 A 
ATOM     20  C   UNL     1      -2.333  -3.901  -1.873  0.00  0.00    -0.140 A 
ATOM     46  C   UNL     1      -2.285  -3.002  -0.805  0.00  0.00    +0.228 A 
ATOM     47  O   UNL     1      -4.098  -2.062   2.137  0.00  0.00    -0.429 OA
ATOM     48  O   UNL     1      -1.330  -2.045  -0.771  0.00  0.00    -0.291 OA
BRANCH   9   8
ATOM      1  C   UNL     1      -0.391   1.336   0.082  0.00  0.00    +0.047 A 
ATOM      2  C   UNL     1       0.758   2.102   0.119  0.00  0.00    -0.010 A 
ATOM      3  C   UNL     1       2.001   1.486   0.133  0.00  0.00    +0.119 A 
ATOM      6  C   UNL     1       2.087   0.101   0.109  0.00  0.00    -0.009 A 
ATOM      7  C   UNL     1       0.934  -0.660   0.071  0.00  0.00    +0.061 A 
ATOM      8  C   UNL     1      -0.303  -0.043   0.058  0.00  0.00    -0.105 A 
BRANCH   3   4
ATOM      4  O   UNL     1       3.133   2.237   0.169  0.00  0.00    -0.499 OA
ATOM      5  H   UNL     1       3.443   2.438   1.063  0.00  0.00    +0.395 HD
ENDBRANCH   3   4
ENDBRANCH   9   8
BRANCH  13  14
ATOM     14  O   UNL     1      -5.114  -4.229   1.192  0.00  0.00    -0.478 OA
ATOM     15  H   UNL     1      -5.922  -3.717   1.049  0.00  0.00    +0.405 HD
ENDBRANCH  13  14
BRANCH  17  18
ATOM     18  O   UNL     1      -3.361  -5.769  -2.941  0.00  0.00    -0.480 OA
ATOM     19  H   UNL     1      -3.916  -5.476  -3.676  0.00  0.00    +0.403 HD
ENDBRANCH  17  18
ENDBRANCH  21  20
BRANCH  22  23
ATOM     23  C   UNL     1       0.252  -5.178  -1.640  0.00  0.00    +0.209 A 
ATOM     24  C   UNL     1       1.367  -4.826  -0.941  0.00  0.00    -0.139 A 
ATOM     25  C   UNL     1       1.711  -5.540   0.229  0.00  0.00    +0.424 A 
ATOM     26  C   UNL     1       0.825  -6.646   0.633  0.00  0.00    -0.268 A 
ATOM     27  C   UNL     1       1.089  -7.407   1.779  0.00  0.00    +0.218 A 
ATOM     30  C   UNL     1       0.234  -8.436   2.125  0.00  0.00    -0.057 A 
ATOM     31  C   UNL     1      -0.880  -8.713   1.340  0.00  0.00    +0.193 A 
ATOM     34  C   UNL     1      -1.147  -7.964   0.204  0.00  0.00    -0.028 A 
ATOM     35  C   UNL     1      -0.301  -6.928  -0.159  0.00  0.00    +0.182 A 
ATOM     36  O   UNL     1       2.702  -5.252   0.880  0.00  0.00    -0.454 OA
ATOM     37  O   UNL     1      -0.550  -6.186  -1.259  0.00  0.00    -0.204 OA
BRANCH  27  28
ATOM     28  O   UNL     1       2.177  -7.135   2.544  0.00  0.00    -0.472 OA
ATOM     29  H   UNL     1       2.012  -6.495   3.250  0.00  0.00    +0.402 HD
ENDBRANCH  27  28
BRANCH  31  32
ATOM     32  O   UNL     1      -1.713  -9.727   1.688  0.00  0.00    -0.487 OA
ATOM     33  H   UNL     1      -2.435  -9.459   2.273  0.00  0.00    +0.403 HD
ENDBRANCH  31  32
ENDBRANCH  22  23
BRANCH  40  41
ATOM     41  O   UNL     1      -1.031  -2.299  -6.285  0.00  0.00    -0.488 OA
ATOM     42  H   UNL     1      -1.449  -2.831  -6.975  0.00  0.00    +0.399 HD
ENDBRANCH  40  41
BRANCH  43  44
ATOM     44  O   UNL     1      -2.874  -2.489  -4.256  0.00  0.00    -0.484 OA
ATOM     45  H   UNL     1      -2.898  -1.579  -3.930  0.00  0.00    +0.394 HD
ENDBRANCH  43  44
TORSDOF 10
