REMARK  Name = ZINC95486098
REMARK  50 active torsions:
REMARK  status: ('A' for Active; 'I' for Inactive)
REMARK    1  A    between atoms: C1_1  and  C2_2
REMARK    2  A    between atoms: C2_2  and  C3_3
REMARK    3  A    between atoms: C3_3  and  C4_4
REMARK    4  A    between atoms: C4_4  and  C5_5
REMARK    5  A    between atoms: C5_5  and  C6_6
REMARK    6  A    between atoms: C6_6  and  C7_7
REMARK    7  A    between atoms: C7_7  and  C8_8
REMARK    8  A    between atoms: C8_8  and  C9_9
REMARK    9  A    between atoms: C9_9  and  C10_10
REMARK   10  A    between atoms: C10_10  and  C11_11
REMARK   11  A    between atoms: C11_11  and  C12_12
REMARK   12  A    between atoms: C12_12  and  C13_13
REMARK   13  A    between atoms: C13_13  and  C14_14
REMARK   14  A    between atoms: C14_14  and  C15_15
REMARK   15  A    between atoms: C15_15  and  C16_16
REMARK   16  A    between atoms: C16_16  and  C17_17
REMARK   17  A    between atoms: C17_17  and  C18_18
REMARK   18  A    between atoms: C18_18  and  C19_19
REMARK   19  A    between atoms: C19_19  and  C20_20
REMARK   20  A    between atoms: C20_20  and  C21_21
REMARK   21  A    between atoms: C21_21  and  C22_22
REMARK   22  A    between atoms: C22_22  and  C23_23
REMARK   23  A    between atoms: C23_23  and  C24_24
REMARK   24  A    between atoms: C24_24  and  C25_25
REMARK   25  A    between atoms: C25_25  and  C26_26
REMARK   26  A    between atoms: C26_26  and  C27_27
REMARK   27  A    between atoms: C27_27  and  C28_28
REMARK   28  A    between atoms: C28_28  and  C29_29
REMARK   29  A    between atoms: C29_29  and  C30_30
REMARK   30  A    between atoms: C30_30  and  C31_31
REMARK   31  A    between atoms: C31_31  and  C32_32
REMARK   32  A    between atoms: C32_32  and  C33_33
REMARK   33  A    between atoms: C33_33  and  C34_34
REMARK   34  A    between atoms: C34_34  and  C35_35
REMARK   35  A    between atoms: C35_35  and  C36_36
REMARK   36  A    between atoms: C36_36  and  C37_37
REMARK   37  A    between atoms: C37_37  and  C38_38
REMARK   38  A    between atoms: C38_38  and  C39_39
REMARK   39  A    between atoms: C39_39  and  C40_40
REMARK   40  A    between atoms: C40_40  and  C41_41
REMARK   41  A    between atoms: C41_41  and  C42_42
REMARK   42  A    between atoms: C42_42  and  C43_43
REMARK   43  A    between atoms: C43_43  and  C44_44
REMARK   44  A    between atoms: C44_44  and  C45_45
REMARK   45  A    between atoms: C45_45  and  C46_46
REMARK   46  A    between atoms: C46_46  and  C47_47
REMARK   47  A    between atoms: C47_47  and  C48_48
REMARK   48  A    between atoms: C48_48  and  C49_49
REMARK   49  A    between atoms: C50_50  and  C51_51
REMARK   50  A    between atoms: C50_50  and  O2_53
REMARK                            x       y       z     vdW  Elec       q    Type
REMARK                         _______ _______ _______ _____ _____    ______ ____
ROOT
ATOM     27  C   UNL     1       9.871 -24.951  16.015  0.00  0.00    +0.000 C 
ENDROOT
BRANCH  27  26
ATOM     26  C   UNL     1       9.131 -24.444  14.775  0.00  0.00    +0.000 C 
BRANCH  26  25
ATOM     25  C   UNL     1       9.110 -22.914  14.784  0.00  0.00    +0.000 C 
BRANCH  25  24
ATOM     24  C   UNL     1       8.370 -22.407  13.544  0.00  0.00    +0.000 C 
BRANCH  24  23
ATOM     23  C   UNL     1       8.350 -20.878  13.553  0.00  0.00    +0.000 C 
BRANCH  23  22
ATOM     22  C   UNL     1       7.609 -20.371  12.313  0.00  0.00    +0.000 C 
BRANCH  22  21
ATOM     21  C   UNL     1       7.589 -18.841  12.322  0.00  0.00    +0.000 C 
BRANCH  21  20
ATOM     20  C   UNL     1       6.849 -18.334  11.082  0.00  0.00    +0.000 C 
BRANCH  20  19
ATOM     19  C   UNL     1       6.828 -16.804  11.091  0.00  0.00    +0.000 C 
BRANCH  19  18
ATOM     18  C   UNL     1       6.088 -16.297   9.851  0.00  0.00    +0.000 C 
BRANCH  18  17
ATOM     17  C   UNL     1       6.067 -14.768   9.859  0.00  0.00    +0.000 C 
BRANCH  17  16
ATOM     16  C   UNL     1       5.327 -14.261   8.620  0.00  0.00    +0.000 C 
BRANCH  16  15
ATOM     15  C   UNL     1       5.306 -12.731   8.628  0.00  0.00    +0.000 C 
BRANCH  15  14
ATOM     14  C   UNL     1       4.566 -12.224   7.389  0.00  0.00    +0.000 C 
BRANCH  14  13
ATOM     13  C   UNL     1       4.546 -10.694   7.397  0.00  0.00    +0.000 C 
BRANCH  13  12
ATOM     12  C   UNL     1       3.806 -10.187   6.158  0.00  0.00    +0.000 C 
BRANCH  12  11
ATOM     11  C   UNL     1       3.785  -8.658   6.166  0.00  0.00    +0.000 C 
BRANCH  11  10
ATOM     10  C   UNL     1       3.045  -8.151   4.926  0.00  0.00    +0.000 C 
BRANCH  10   9
ATOM      9  C   UNL     1       3.024  -6.621   4.935  0.00  0.00    +0.000 C 
BRANCH   9   8
ATOM      8  C   UNL     1       2.284  -6.114   3.695  0.00  0.00    +0.000 C 
BRANCH   8   7
ATOM      7  C   UNL     1       2.264  -4.584   3.704  0.00  0.00    +0.000 C 
BRANCH   7   6
ATOM      6  C   UNL     1       1.524  -4.077   2.464  0.00  0.00    +0.000 C 
BRANCH   6   5
ATOM      5  C   UNL     1       1.503  -2.548   2.473  0.00  0.00    +0.000 C 
BRANCH   5   4
ATOM      4  C   UNL     1       0.763  -2.041   1.233  0.00  0.00    -0.000 C 
BRANCH   4   3
ATOM      3  C   UNL     1       0.742  -0.511   1.242  0.00  0.00    -0.000 C 
BRANCH   3   2
ATOM      1  C   UNL     1      -0.019   1.526   0.010  0.00  0.00    +0.006 C 
ATOM      2  C   UNL     1       0.002  -0.004   0.002  0.00  0.00    -0.006 C 
ENDBRANCH   3   2
ENDBRANCH   4   3
ENDBRANCH   5   4
ENDBRANCH   6   5
ENDBRANCH   7   6
ENDBRANCH   8   7
ENDBRANCH   9   8
ENDBRANCH  10   9
ENDBRANCH  11  10
ENDBRANCH  12  11
ENDBRANCH  13  12
ENDBRANCH  14  13
ENDBRANCH  15  14
ENDBRANCH  16  15
ENDBRANCH  17  16
ENDBRANCH  18  17
ENDBRANCH  19  18
ENDBRANCH  20  19
ENDBRANCH  21  20
ENDBRANCH  22  21
ENDBRANCH  23  22
ENDBRANCH  24  23
ENDBRANCH  25  24
ENDBRANCH  26  25
ENDBRANCH  27  26
BRANCH  27  28
ATOM     28  C   UNL     1       9.892 -26.481  16.006  0.00  0.00    +0.000 C 
BRANCH  28  29
ATOM     29  C   UNL     1      10.632 -26.988  17.246  0.00  0.00    +0.000 C 
BRANCH  29  30
ATOM     30  C   UNL     1      10.653 -28.517  17.238  0.00  0.00    +0.000 C 
BRANCH  30  31
ATOM     31  C   UNL     1      11.392 -29.024  18.477  0.00  0.00    +0.000 C 
BRANCH  31  32
ATOM     32  C   UNL     1      11.413 -30.554  18.469  0.00  0.00    +0.000 C 
BRANCH  32  33
ATOM     33  C   UNL     1      12.153 -31.061  19.708  0.00  0.00    +0.000 C 
BRANCH  33  34
ATOM     34  C   UNL     1      12.174 -32.591  19.700  0.00  0.00    +0.000 C 
BRANCH  34  35
ATOM     35  C   UNL     1      12.914 -33.098  20.939  0.00  0.00    +0.000 C 
BRANCH  35  36
ATOM     36  C   UNL     1      12.935 -34.627  20.931  0.00  0.00    +0.000 C 
BRANCH  36  37
ATOM     37  C   UNL     1      13.675 -35.134  22.171  0.00  0.00    +0.000 C 
BRANCH  37  38
ATOM     38  C   UNL     1      13.695 -36.664  22.162  0.00  0.00    +0.000 C 
BRANCH  38  39
ATOM     39  C   UNL     1      14.435 -37.171  23.402  0.00  0.00    +0.000 C 
BRANCH  39  40
ATOM     40  C   UNL     1      14.456 -38.701  23.393  0.00  0.00    +0.000 C 
BRANCH  40  41
ATOM     41  C   UNL     1      15.196 -39.208  24.633  0.00  0.00    -0.000 C 
BRANCH  41  42
ATOM     42  C   UNL     1      15.217 -40.737  24.624  0.00  0.00    -0.000 C 
BRANCH  42  43
ATOM     43  C   UNL     1      15.957 -41.244  25.864  0.00  0.00    +0.000 C 
BRANCH  43  44
ATOM     44  C   UNL     1      15.978 -42.774  25.855  0.00  0.00    +0.000 C 
BRANCH  44  45
ATOM     45  C   UNL     1      16.718 -43.281  27.095  0.00  0.00    +0.001 C 
BRANCH  45  46
ATOM     46  C   UNL     1      16.738 -44.811  27.087  0.00  0.00    +0.003 C 
BRANCH  46  47
ATOM     47  C   UNL     1      17.478 -45.318  28.326  0.00  0.00    +0.012 C 
BRANCH  47  48
ATOM     48  C   UNL     1      17.499 -46.847  28.318  0.00  0.00    +0.064 C 
BRANCH  48  49
ATOM     49  C   UNL     1      18.228 -47.347  29.538  0.00  0.00    +0.005 C 
ATOM     50  C   UNL     1      17.630 -48.209  30.368  0.00  0.00    -0.026 C 
BRANCH  50  53
ATOM     53  C   UNL     1      18.340 -48.695  31.557  0.00  0.00    +0.474 C 
ATOM     54  O   UNL     1      17.797 -49.477  32.309  0.00  0.00    -0.458 OA
ENDBRANCH  50  53
BRANCH  50  51
ATOM     51  O   UNL     1      16.365 -48.635  30.110  0.00  0.00    -0.473 OA
ATOM     52  H   UNL     1      16.017 -49.256  30.765  0.00  0.00    +0.398 HD
ENDBRANCH  50  51
ENDBRANCH  48  49
ENDBRANCH  47  48
ENDBRANCH  46  47
ENDBRANCH  45  46
ENDBRANCH  44  45
ENDBRANCH  43  44
ENDBRANCH  42  43
ENDBRANCH  41  42
ENDBRANCH  40  41
ENDBRANCH  39  40
ENDBRANCH  38  39
ENDBRANCH  37  38
ENDBRANCH  36  37
ENDBRANCH  35  36
ENDBRANCH  34  35
ENDBRANCH  33  34
ENDBRANCH  32  33
ENDBRANCH  31  32
ENDBRANCH  30  31
ENDBRANCH  29  30
ENDBRANCH  28  29
ENDBRANCH  27  28
TORSDOF 49
