REMARK  Name = ZINC95485893
REMARK  7 active torsions:
REMARK  status: ('A' for Active; 'I' for Inactive)
REMARK    1  A    between atoms: C1_1  and  C2_2
REMARK    2  A    between atoms: C2_2  and  C20_24
REMARK    3  A    between atoms: C7_7  and  C11_12
REMARK    4  A    between atoms: C12_13  and  C13_14
REMARK    5  A    between atoms: C13_14  and  C14_16
REMARK    6  A    between atoms: C17_19  and  O4_23
REMARK    7  A    between atoms: C19_21  and  O3_22
REMARK                            x       y       z     vdW  Elec       q    Type
REMARK                         _______ _______ _______ _____ _____    ______ ____
ROOT
ATOM      9  C   UNL     1       0.274  -5.951   2.256  0.00  0.00    +0.132 C 
ATOM     10  C   UNL     1       0.998  -6.500   3.256  0.00  0.00    -0.104 C 
ENDROOT
BRANCH   9   8
ATOM      1  C   UNL     1       0.431   1.459  -0.218  0.00  0.00    +0.080 C 
ATOM      2  C   UNL     1       0.212  -0.054  -0.148  0.00  0.00    +0.147 C 
ATOM      3  C   UNL     1       0.401  -0.655  -1.542  0.00  0.00    +0.032 C 
ATOM      4  C   UNL     1      -1.190  -0.331   0.326  0.00  0.00    -0.059 C 
ATOM      5  C   UNL     1      -1.458  -1.453   0.991  0.00  0.00    +0.041 C 
ATOM      6  C   UNL     1      -0.344  -2.390   1.251  0.00  0.00    -0.148 A 
ATOM      7  C   UNL     1      -0.578  -3.704   1.623  0.00  0.00    +0.081 A 
ATOM      8  C   UNL     1       0.507  -4.555   1.860  0.00  0.00    -0.115 A 
ATOM     23  C   UNL     1       1.816  -4.075   1.720  0.00  0.00    +0.114 A 
ATOM     24  C   UNL     1       2.042  -2.767   1.349  0.00  0.00    -0.020 A 
ATOM     25  C   UNL     1       0.972  -1.918   1.113  0.00  0.00    +0.152 A 
ATOM     26  O   UNL     1       1.167  -0.627   0.745  0.00  0.00    -0.305 OA
ENDBRANCH   9   8
BRANCH  10  11
ATOM     11  C   UNL     1       1.854  -5.655   4.087  0.00  0.00    +0.412 C 
ATOM     22  O   UNL     1       1.817  -4.443   3.966  0.00  0.00    -0.422 OA
BRANCH  11  12
ATOM     12  C   UNL     1       2.763  -6.269   5.072  0.00  0.00    -0.201 A 
ATOM     13  C   UNL     1       2.813  -7.660   5.210  0.00  0.00    +0.099 A 
ATOM     14  C   UNL     1       3.663  -8.229   6.130  0.00  0.00    -0.030 A 
ATOM     15  C   UNL     1       4.474  -7.426   6.926  0.00  0.00    +0.156 A 
ATOM     18  C   UNL     1       4.433  -6.045   6.797  0.00  0.00    -0.050 A 
ATOM     19  C   UNL     1       3.586  -5.460   5.871  0.00  0.00    +0.184 A 
BRANCH  15  16
ATOM     16  O   UNL     1       5.309  -7.995   7.832  0.00  0.00    -0.497 OA
ATOM     17  H   UNL     1       6.188  -8.198   7.483  0.00  0.00    +0.399 HD
ENDBRANCH  15  16
BRANCH  19  20
ATOM     20  O   UNL     1       3.548  -4.111   5.740  0.00  0.00    -0.478 OA
ATOM     21  H   UNL     1       2.902  -3.678   6.315  0.00  0.00    +0.399 HD
ENDBRANCH  19  20
ENDBRANCH  11  12
ENDBRANCH  10  11
TORSDOF 5
