REMARK  Name = ZINC95486302
REMARK  8 active torsions:
REMARK  status: ('A' for Active; 'I' for Inactive)
REMARK    1  A    between atoms: C1_1  and  O1_2
REMARK    2  A    between atoms: O1_2  and  C2_3
REMARK    3  A    between atoms: C6_7  and  O6_24
REMARK    4  A    between atoms: C9_10  and  C10_11
REMARK    5  A    between atoms: C19_25  and  O8_29
REMARK    6  A    between atoms: C20_26  and  O7_27
REMARK    7  A    between atoms: O7_27  and  C21_28
REMARK    8  A    between atoms: O8_29  and  C22_30
REMARK                            x       y       z     vdW  Elec       q    Type
REMARK                         _______ _______ _______ _____ _____    ______ ____
ROOT
ATOM      3  C   UNL     1      -1.201  -0.638   0.010  0.00  0.00    +0.142 A 
ATOM      4  C   UNL     1      -2.361   0.103   0.019  0.00  0.00    -0.047 A 
ATOM      5  C   UNL     1      -3.604  -0.546   0.027  0.00  0.00    +0.011 A 
ATOM      6  C   UNL     1      -3.656  -1.962   0.026  0.00  0.00    -0.089 A 
ATOM      7  C   UNL     1      -2.458  -2.699   0.016  0.00  0.00    +0.135 A 
ATOM     10  C   UNL     1      -4.907  -2.617   0.035  0.00  0.00    +0.179 A 
ATOM     13  C   UNL     1      -6.057  -1.893   0.044  0.00  0.00    -0.157 A 
ATOM     14  C   UNL     1      -6.032  -0.485   0.046  0.00  0.00    -0.156 A 
ATOM     15  C   UNL     1      -7.426  -0.017   0.057  0.00  0.00    +0.522 C 
ATOM     16  O   UNL     1      -8.266  -1.065   0.062  0.00  0.00    -0.312 OA
ATOM     17  O   UNL     1      -7.768   1.150   0.061  0.00  0.00    -0.433 OA
ATOM     18  C   UNL     1      -7.516  -2.282   0.055  0.00  0.00    +0.336 C 
ATOM     19  C   UNL     1      -4.809   0.195   0.037  0.00  0.00    +0.051 A 
ATOM     29  C   UNL     1      -1.247  -2.037   0.003  0.00  0.00    +0.074 A 
ENDROOT
BRANCH  19  20
ATOM     20  C   UNL     1      -4.777   1.672   0.040  0.00  0.00    -0.054 A 
ATOM     21  C   UNL     1      -4.238   2.359   1.129  0.00  0.00    +0.052 A 
ATOM     22  C   UNL     1      -4.208   3.737   1.129  0.00  0.00    +0.041 A 
ATOM     23  C   UNL     1      -4.713   4.447   0.048  0.00  0.00    +0.045 A 
ATOM     24  C   UNL     1      -5.253   3.767  -1.043  0.00  0.00    +0.038 A 
ATOM     25  O   UNL     1      -5.676   4.684  -1.962  0.00  0.00    -0.306 OA
ATOM     26  C   UNL     1      -5.763   5.931  -1.248  0.00  0.00    +0.436 C 
ATOM     27  O   UNL     1      -4.798   5.788  -0.189  0.00  0.00    -0.307 OA
ATOM     28  C   UNL     1      -5.281   2.385  -1.051  0.00  0.00    +0.075 A 
ENDBRANCH  19  20
BRANCH   3   2
ATOM      1  C   UNL     1      -0.017   1.425   0.010  0.00  0.00    +0.251 C 
ATOM      2  O   UNL     1       0.002  -0.004   0.002  0.00  0.00    -0.297 OA
ENDBRANCH   3   2
BRANCH   7   8
ATOM      8  O   UNL     1      -2.492  -4.058   0.014  0.00  0.00    -0.317 OA
ATOM      9  C   UNL     1      -2.518  -4.705  -1.260  0.00  0.00    +0.247 C 
ENDBRANCH   7   8
BRANCH  10  11
ATOM     11  O   UNL     1      -4.961  -3.975   0.033  0.00  0.00    -0.478 OA
ATOM     12  H   UNL     1      -4.969  -4.369   0.916  0.00  0.00    +0.400 HD
ENDBRANCH  10  11
BRANCH  29  30
ATOM     30  O   UNL     1      -0.088  -2.749  -0.012  0.00  0.00    -0.318 OA
ATOM     31  C   UNL     1       0.476  -3.096   1.254  0.00  0.00    +0.236 C 
ENDBRANCH  29  30
TORSDOF 5
