REMARK  Name = ZINC00265517
REMARK  2 active torsions:
REMARK  status: ('A' for Active; 'I' for Inactive)
REMARK    1  A    between atoms: C1_1  and  O1_2
REMARK    2  A    between atoms: O1_2  and  C2_3
REMARK                            x       y       z     vdW  Elec       q    Type
REMARK                         _______ _______ _______ _____ _____    ______ ____
ROOT
ATOM      3  C   UNL     1      -1.197  -0.636   0.010  0.00  0.00    +0.337 A 
ATOM      4  C   UNL     1      -1.834  -0.977   1.222  0.00  0.00    -0.133 A 
ATOM      5  C   UNL     1      -1.248  -0.674   2.461  0.00  0.00    +0.120 A 
ATOM      6  C   UNL     1      -1.891  -1.018   3.611  0.00  0.00    +0.050 A 
ATOM      7  C   UNL     1      -3.123  -1.667   3.574  0.00  0.00    +0.153 A 
ATOM      8  C   UNL     1      -3.719  -1.976   2.391  0.00  0.00    +0.011 A 
ATOM      9  C   UNL     1      -3.088  -1.638   1.179  0.00  0.00    +0.203 A 
ATOM     10  N   UNL     1      -3.660  -1.934   0.009  0.00  0.00    -0.466 N 
ATOM     11  H   UNL     1      -4.518  -2.386   0.005  0.00  0.00    +0.448 HD
ATOM     12  C   UNL     1      -3.091  -1.629  -1.143  0.00  0.00    +0.348 A 
ATOM     13  O   UNL     1      -3.467  -1.822  -2.425  0.00  0.00    -0.169 OA
ATOM     14  C   UNL     1      -2.555  -1.317  -3.277  0.00  0.00    +0.284 A 
ATOM     15  C   UNL     1      -1.531  -0.784  -2.599  0.00  0.00    +0.038 A 
ATOM     16  C   UNL     1      -1.845  -0.965  -1.176  0.00  0.00    -0.202 A 
ENDROOT
BRANCH   3   2
ATOM      1  C   UNL     1      -0.017   1.425   0.010  0.00  0.00    +0.297 C 
ATOM      2  O   UNL     1       0.002  -0.004   0.002  0.00  0.00    -0.318 OA
ENDBRANCH   3   2
TORSDOF 1
