REMARK  Name = ZINC14612849
REMARK  2 active torsions:
REMARK  status: ('A' for Active; 'I' for Inactive)
REMARK    1  A    between atoms: C1_1  and  O1_2
REMARK    2  A    between atoms: O1_2  and  C2_3
REMARK                            x       y       z     vdW  Elec       q    Type
REMARK                         _______ _______ _______ _____ _____    ______ ____
ROOT
ATOM      3  C   UNL     1      -2.153  -1.841   2.569  0.00  0.00    +0.075 A 
ATOM      4  C   UNL     1      -3.418  -1.543   2.064  0.00  0.00    +0.075 A 
ATOM      5  C   UNL     1      -3.545  -0.798   0.869  0.00  0.00    -0.151 A 
ATOM      6  C   UNL     1      -2.433  -0.294   0.198  0.00  0.00    +0.141 A 
ATOM      7  C   UNL     1      -1.186  -0.547   0.740  0.00  0.00    -0.166 A 
ATOM      8  C   UNL     1       0.002  -0.004   0.002  0.00  0.00    +0.247 C 
ATOM      9  O   UNL     1      -0.017   1.435   0.010  0.00  0.00    -0.285 OA
ATOM     10  C   UNL     1       1.257   1.889   0.000  0.00  0.00    +0.123 A 
ATOM     11  C   UNL     1       2.154   0.892   0.393  0.00  0.00    -0.175 A 
ATOM     12  C   UNL     1       3.525   1.078   0.482  0.00  0.00    +0.123 A 
ATOM     13  C   UNL     1       3.960   2.360   0.140  0.00  0.00    -0.002 A 
ATOM     14  C   UNL     1       3.074   3.369  -0.261  0.00  0.00    +0.072 A 
ATOM     15  O   UNL     1       3.787   4.490  -0.528  0.00  0.00    -0.303 OA
ATOM     16  C   UNL     1       5.074   4.287   0.088  0.00  0.00    +0.435 C 
ATOM     17  O   UNL     1       5.222   2.852   0.124  0.00  0.00    -0.304 OA
ATOM     18  C   UNL     1       1.697   3.174  -0.346  0.00  0.00    +0.042 A 
ATOM     19  C   UNL     1       1.340  -0.348   0.677  0.00  0.00    +0.017 C 
ATOM     20  C   UNL     1       1.152  -0.512   2.185  0.00  0.00    +0.262 C 
ATOM     21  O   UNL     1       0.185  -1.539   2.419  0.00  0.00    -0.292 OA
ATOM     22  C   UNL     1      -4.975  -0.732   0.601  0.00  0.00    -0.032 A 
ATOM     23  C   UNL     1      -5.573  -1.406   1.598  0.00  0.00    +0.213 A 
ATOM     24  O   UNL     1      -4.648  -1.882   2.458  0.00  0.00    -0.180 OA
ATOM     25  C   UNL     1      -1.054  -1.308   1.893  0.00  0.00    +0.147 A 
ENDROOT
BRANCH   3   2
ATOM      1  C   UNL     1      -2.014  -1.852   4.944  0.00  0.00    +0.225 C 
ATOM      2  O   UNL     1      -1.999  -2.569   3.708  0.00  0.00    -0.309 OA
ENDBRANCH   3   2
TORSDOF 1
