REMARK  Name = ZINC14645892
REMARK  9 active torsions:
REMARK  status: ('A' for Active; 'I' for Inactive)
REMARK    1  A    between atoms: C1_1  and  O1_2
REMARK    2  A    between atoms: O1_2  and  C2_3
REMARK    3  A    between atoms: C4_5  and  O7_25
REMARK    4  A    between atoms: C7_9  and  C12_16
REMARK    5  A    between atoms: C10_13  and  O4_14
REMARK    6  A    between atoms: O4_14  and  C11_15
REMARK    7  A    between atoms: C16_20  and  O6_24
REMARK    8  A    between atoms: C17_21  and  O5_22
REMARK    9  A    between atoms: O5_22  and  C18_23
REMARK                            x       y       z     vdW  Elec       q    Type
REMARK                         _______ _______ _______ _____ _____    ______ ____
ROOT
ATOM      3  C   UNL     1      -1.974   1.163   1.348  0.00  0.00    +0.192 A 
ATOM      4  C   UNL     1      -2.582   0.362   0.387  0.00  0.00    -0.103 A 
ATOM      5  C   UNL     1      -3.895  -0.038   0.547  0.00  0.00    +0.240 A 
ATOM      8  C   UNL     1      -4.612   0.377   1.677  0.00  0.00    -0.276 A 
ATOM      9  C   UNL     1      -6.013  -0.023   1.881  0.00  0.00    +0.435 A 
ATOM     10  C   UNL     1      -6.674   0.469   3.103  0.00  0.00    -0.234 A 
ATOM     21  C   UNL     1      -5.965   1.250   3.958  0.00  0.00    +0.330 A 
ATOM     22  O   UNL     1      -4.693   1.590   3.734  0.00  0.00    -0.207 OA
ATOM     23  O   UNL     1      -6.600  -0.728   1.077  0.00  0.00    -0.425 OA
ATOM     24  C   UNL     1      -4.001   1.191   2.647  0.00  0.00    +0.182 A 
ATOM     25  C   UNL     1      -2.677   1.579   2.471  0.00  0.00    +0.025 A 
ENDROOT
BRANCH  10  11
ATOM     11  C   UNL     1      -8.085   0.117   3.394  0.00  0.00    -0.034 A 
ATOM     12  C   UNL     1      -9.061   1.112   3.430  0.00  0.00    +0.030 A 
ATOM     13  C   UNL     1     -10.374   0.781   3.696  0.00  0.00    +0.028 A 
ATOM     14  C   UNL     1     -10.727  -0.534   3.938  0.00  0.00    +0.009 A 
ATOM     15  C   UNL     1      -9.764  -1.532   3.910  0.00  0.00    +0.089 A 
ATOM     18  C   UNL     1      -8.440  -1.211   3.638  0.00  0.00    +0.098 A 
BRANCH  15  16
ATOM     16  O   UNL     1     -10.117  -2.824   4.148  0.00  0.00    -0.484 OA
ATOM     17  H   UNL     1     -10.070  -3.079   5.080  0.00  0.00    +0.387 HD
ENDBRANCH  15  16
BRANCH  18  19
ATOM     19  O   UNL     1      -7.493  -2.187   3.610  0.00  0.00    -0.317 OA
ATOM     20  C   UNL     1      -6.828  -2.481   4.840  0.00  0.00    +0.219 C 
ENDBRANCH  18  19
ENDBRANCH  10  11
BRANCH   3   2
ATOM      1  C   UNL     1      -0.013   1.086   0.008  0.00  0.00    +0.256 C 
ATOM      2  O   UNL     1      -0.682   1.547   1.184  0.00  0.00    -0.292 OA
ENDBRANCH   3   2
BRANCH   5   6
ATOM      6  O   UNL     1      -4.489  -0.824  -0.388  0.00  0.00    -0.471 OA
ATOM      7  H   UNL     1      -4.929  -0.332  -1.093  0.00  0.00    +0.404 HD
ENDBRANCH   5   6
BRANCH  25  26
ATOM     26  O   UNL     1      -2.070   2.368   3.400  0.00  0.00    -0.307 OA
ATOM     27  C   UNL     1      -2.169   3.782   3.215  0.00  0.00    +0.224 C 
ENDBRANCH  25  26
TORSDOF 6
