REMARK  Name = ZINC95486241
REMARK  17 active torsions:
REMARK  status: ('A' for Active; 'I' for Inactive)
REMARK    1  A    between atoms: C1_1  and  C2_2
REMARK    2  A    between atoms: C6_7  and  C36_56
REMARK    3  A    between atoms: C11_13  and  C23_28
REMARK    4  A    between atoms: C14_16  and  C22_25
REMARK    5  A    between atoms: C17_20  and  C20_23
REMARK    6  A    between atoms: C17_20  and  C21_24
REMARK    7  A    between atoms: C25_30  and  O10_55
REMARK    8  A    between atoms: C26_32  and  O4_38
REMARK    9  A    between atoms: C27_34  and  C28_35
REMARK   10  A    between atoms: C27_34  and  C29_36
REMARK   11  A    between atoms: C29_36  and  O3_37
REMARK   12  A    between atoms: O4_38  and  C30_39
REMARK   13  A    between atoms: C31_41  and  O9_54
REMARK   14  A    between atoms: C32_43  and  O8_53
REMARK   15  A    between atoms: C33_45  and  O7_52
REMARK   16  A    between atoms: C34_47  and  C35_50
REMARK   17  A    between atoms: C35_50  and  O6_51
REMARK                            x       y       z     vdW  Elec       q    Type
REMARK                         _______ _______ _______ _____ _____    ______ ____
ROOT
ATOM      1  C   UNL     1       0.084   1.539   0.304  0.00  0.00    +0.013 C 
ATOM      2  C   UNL     1       0.043   0.004   0.286  0.00  0.00    -0.025 C 
ATOM      3  C   UNL     1       1.098  -0.377  -0.664  0.00  0.00    +0.015 C 
ATOM      4  C   UNL     1       1.606  -1.807  -0.492  0.00  0.00    -0.007 C 
ATOM      5  C   UNL     1       2.045  -2.152   0.923  0.00  0.00    +0.039 C 
ATOM      6  C   UNL     1       1.176  -1.651   2.023  0.00  0.00    -0.014 C 
ATOM      7  C   UNL     1       2.032  -1.292   3.185  0.00  0.00    +0.008 C 
ATOM      8  C   UNL     1       0.090  -2.575   2.568  0.00  0.00    +0.009 C 
ATOM      9  C   UNL     1       0.030  -4.039   2.087  0.00  0.00    +0.138 C 
ATOM     12  C   UNL     1       0.920  -4.402   0.880  0.00  0.00    +0.211 C 
ATOM     29  C   UNL     1       2.226  -3.654   1.000  0.00  0.00    -0.053 C 
ATOM     33  C   UNL     1       2.975  -4.103   2.290  0.00  0.00    +0.052 C 
ATOM     34  C   UNL     1      -1.288  -0.517  -0.111  0.00  0.00    +0.033 C 
ATOM     35  C   UNL     1      -1.284  -2.016  -0.215  0.00  0.00    +0.017 C 
ATOM     36  C   UNL     1      -1.731   0.050  -1.401  0.00  0.00    +0.015 C 
ATOM     37  C   UNL     1      -3.223  -0.168  -1.696  0.00  0.00    +0.029 C 
ATOM     38  C   UNL     1      -4.120   0.427  -0.607  0.00  0.00    -0.128 C 
ATOM     42  C   UNL     1      -3.805  -0.156   0.760  0.00  0.00    +0.060 C 
ATOM     43  C   UNL     1      -4.308  -1.667   0.889  0.00  0.00    +0.006 C 
ATOM     44  C   UNL     1      -5.778  -1.766   0.574  0.00  0.00    -0.053 C 
ATOM     45  C   UNL     1      -6.621  -0.970   1.575  0.00  0.00    +0.010 C 
ATOM     46  C   UNL     1      -6.195  -3.180   0.620  0.00  0.00    +0.014 C 
ATOM     47  C   UNL     1      -6.059  -1.204  -0.775  0.00  0.00    -0.015 C 
ATOM     48  C   UNL     1      -5.639   0.291  -0.899  0.00  0.00    +0.032 C 
ATOM     49  C   UNL     1      -2.285  -0.243   1.066  0.00  0.00    -0.051 C 
ATOM     50  C   UNL     1      -1.952  -0.030   2.318  0.00  0.00    -0.092 C 
ATOM     51  C   UNL     1      -0.526   0.038   2.816  0.00  0.00    +0.043 C 
ATOM     52  C   UNL     1       0.557  -0.321   1.751  0.00  0.00    -0.014 C 
ENDROOT
BRANCH  38  39
ATOM     39  C   UNL     1      -3.918   1.954  -0.444  0.00  0.00    +0.502 C 
ATOM     40  O   UNL     1      -3.548   2.410   0.624  0.00  0.00    -0.685 OA
ATOM     41  O   UNL     1      -4.129   2.700  -1.385  0.00  0.00    -0.706 OA
ENDBRANCH  38  39
BRANCH   9  10
ATOM     10  O   UNL     1       0.206  -4.928   3.209  0.00  0.00    -0.551 OA
ATOM     11  H   UNL     1      -0.465  -4.829   3.898  0.00  0.00    +0.367 HD
ENDBRANCH   9  10
BRANCH  12  13
ATOM     13  O   UNL     1       1.101  -5.818   0.975  0.00  0.00    -0.309 OA
BRANCH  13  14
ATOM     14  C   UNL     1       0.108  -6.579   0.284  0.00  0.00    +0.280 C 
ATOM     15  C   UNL     1       0.468  -8.066   0.349  0.00  0.00    +0.146 C 
ATOM     18  C   UNL     1      -0.631  -8.880  -0.341  0.00  0.00    +0.157 C 
ATOM     21  C   UNL     1      -1.973  -8.577   0.331  0.00  0.00    +0.168 C 
ATOM     24  C   UNL     1      -2.239  -7.071   0.268  0.00  0.00    +0.185 C 
ATOM     28  O   UNL     1      -1.165  -6.372   0.899  0.00  0.00    -0.366 OA
BRANCH  15  16
ATOM     16  O   UNL     1       1.715  -8.284  -0.315  0.00  0.00    -0.561 OA
ATOM     17  H   UNL     1       2.455  -7.795   0.068  0.00  0.00    +0.398 HD
ENDBRANCH  15  16
BRANCH  18  19
ATOM     19  O   UNL     1      -0.339 -10.274  -0.224  0.00  0.00    -0.559 OA
ATOM     20  H   UNL     1       0.502 -10.534  -0.624  0.00  0.00    +0.392 HD
ENDBRANCH  18  19
BRANCH  21  22
ATOM     22  O   UNL     1      -3.017  -9.277  -0.350  0.00  0.00    -0.552 OA
ATOM     23  H   UNL     1      -2.910 -10.238  -0.352  0.00  0.00    +0.390 HD
ENDBRANCH  21  22
BRANCH  24  25
ATOM     25  C   UNL     1      -3.550  -6.753   0.990  0.00  0.00    +0.214 C 
BRANCH  25  26
ATOM     26  O   UNL     1      -3.857  -5.366   0.831  0.00  0.00    -0.557 OA
ATOM     27  H   UNL     1      -4.677  -5.093   1.264  0.00  0.00    +0.379 HD
ENDBRANCH  25  26
ENDBRANCH  24  25
ENDBRANCH  13  14
ENDBRANCH  12  13
BRANCH  29  30
ATOM     30  C   UNL     1       3.087  -4.159  -0.191  0.00  0.00    +0.161 C 
BRANCH  30  31
ATOM     31  O   UNL     1       3.245  -5.576  -0.098  0.00  0.00    -0.552 OA
ATOM     32  H   UNL     1       3.773  -5.961  -0.811  0.00  0.00    +0.368 HD
ENDBRANCH  30  31
ENDBRANCH  29  30
TORSDOF 11
