REMARK  Name = ZINC01684797
REMARK  7 active torsions:
REMARK  status: ('A' for Active; 'I' for Inactive)
REMARK    1  A    between atoms: C1_1  and  C2_2
REMARK    2  A    between atoms: C2_2  and  C23_32
REMARK    3  A    between atoms: C8_8  and  O6_30
REMARK    4  A    between atoms: C15_18  and  O5_28
REMARK    5  A    between atoms: C16_19  and  O4_26
REMARK    6  A    between atoms: O4_26  and  C21_27
REMARK    7  A    between atoms: O5_28  and  C22_29
REMARK                            x       y       z     vdW  Elec       q    Type
REMARK                         _______ _______ _______ _____ _____    ______ ____
ROOT
ATOM      1  C   UNL     1      -0.019   1.526   0.010  0.00  0.00    +0.039 C 
ATOM      2  C   UNL     1       0.002  -0.004   0.002  0.00  0.00    +0.146 C 
ATOM      3  C   UNL     1      -1.435  -0.528   0.026  0.00  0.00    +0.087 C 
ATOM      4  C   UNL     1       0.684  -0.485  -1.252  0.00  0.00    -0.052 C 
ATOM      5  C   UNL     1       2.004  -0.665  -1.264  0.00  0.00    +0.061 C 
ATOM      6  C   UNL     1       2.754  -0.393  -0.019  0.00  0.00    -0.181 A 
ATOM      7  C   UNL     1       2.039  -0.303   1.187  0.00  0.00    +0.220 A 
ATOM      8  C   UNL     1       2.702  -0.047   2.375  0.00  0.00    -0.063 A 
ATOM      9  C   UNL     1       4.078   0.121   2.381  0.00  0.00    +0.243 A 
ATOM     12  C   UNL     1       4.801   0.032   1.181  0.00  0.00    -0.304 A 
ATOM     13  C   UNL     1       6.262   0.216   1.177  0.00  0.00    +0.420 C 
ATOM     14  O   UNL     1       6.918   0.234   2.198  0.00  0.00    -0.420 OA
ATOM     15  C   UNL     1       6.886   0.382  -0.193  0.00  0.00    +0.013 C 
ATOM     16  C   UNL     1       8.359   0.095  -0.154  0.00  0.00    -0.160 A 
ATOM     17  C   UNL     1       9.117   0.540   0.916  0.00  0.00    +0.044 A 
ATOM     18  C   UNL     1      10.481   0.312   0.950  0.00  0.00    +0.071 A 
ATOM     21  C   UNL     1      11.093  -0.369  -0.098  0.00  0.00    +0.144 A 
ATOM     24  C   UNL     1      10.335  -0.818  -1.164  0.00  0.00    -0.058 A 
ATOM     25  C   UNL     1       8.963  -0.591  -1.196  0.00  0.00    +0.138 A 
ATOM     26  O   UNL     1       8.259  -1.059  -2.261  0.00  0.00    -0.299 OA
ATOM     27  C   UNL     1       6.915  -0.608  -2.455  0.00  0.00    +0.294 C 
ATOM     28  C   UNL     1       6.206  -0.653  -1.105  0.00  0.00    +0.156 C 
ATOM     29  O   UNL     1       4.822  -0.339  -1.199  0.00  0.00    -0.283 OA
ATOM     30  C   UNL     1       4.137  -0.232  -0.031  0.00  0.00    +0.234 A 
ATOM     31  O   UNL     1       0.694  -0.472   1.160  0.00  0.00    -0.295 OA
ENDROOT
BRANCH   9  10
ATOM     10  O   UNL     1       4.725   0.371   3.546  0.00  0.00    -0.477 OA
ATOM     11  H   UNL     1       5.018  -0.424   4.012  0.00  0.00    +0.406 HD
ENDBRANCH   9  10
BRANCH  18  19
ATOM     19  O   UNL     1      11.221   0.752   2.004  0.00  0.00    -0.304 OA
ATOM     20  C   UNL     1      10.524   1.444   3.042  0.00  0.00    +0.239 C 
ENDBRANCH  18  19
BRANCH  21  22
ATOM     22  O   UNL     1      12.434  -0.594  -0.072  0.00  0.00    -0.299 OA
ATOM     23  C   UNL     1      12.994  -1.301  -1.181  0.00  0.00    +0.242 C 
ENDBRANCH  21  22
TORSDOF 3
