REMARK  Name = ZINC95486228
REMARK  10 active torsions:
REMARK  status: ('A' for Active; 'I' for Inactive)
REMARK    1  A    between atoms: C1_1  and  C2_2
REMARK    2  A    between atoms: C4_4  and  O4_29
REMARK    3  A    between atoms: C6_7  and  C19_26
REMARK    4  A    between atoms: C18_23  and  O1_25
REMARK    5  A    between atoms: O4_29  and  C20_30
REMARK    6  A    between atoms: C21_32  and  O9_45
REMARK    7  A    between atoms: C22_34  and  O8_44
REMARK    8  A    between atoms: C23_36  and  O7_43
REMARK    9  A    between atoms: C24_38  and  C25_41
REMARK   10  A    between atoms: C25_41  and  O6_42
REMARK                            x       y       z     vdW  Elec       q    Type
REMARK                         _______ _______ _______ _____ _____    ______ ____
ROOT
ATOM      1  C   UNL     1      -0.019   1.535   0.011  0.00  0.00    +0.013 C 
ATOM      2  C   UNL     1       0.002  -0.004   0.002  0.00  0.00    -0.015 C 
ATOM      3  C   UNL     1       0.705  -0.470  -1.275  0.00  0.00    +0.037 C 
ATOM      4  C   UNL     1       2.168  -0.026  -1.259  0.00  0.00    +0.187 C 
ATOM     21  C   UNL     1       2.894  -0.631  -0.062  0.00  0.00    -0.003 C 
ATOM     22  C   UNL     1       2.217  -0.269   1.256  0.00  0.00    -0.096 C 
ATOM     26  C   UNL     1      -1.458  -0.451  -0.009  0.00  0.00    +0.011 C 
ATOM     27  C   UNL     1      -1.826  -1.193  -1.292  0.00  0.00    +0.026 C 
ATOM     28  C   UNL     1      -3.309  -1.566  -1.285  0.00  0.00    +0.006 C 
ATOM     29  C   UNL     1      -3.717  -2.231   0.034  0.00  0.00    +0.015 C 
ATOM     30  C   UNL     1      -2.762  -3.377   0.324  0.00  0.00    -0.140 C 
ATOM     31  C   UNL     1      -1.565  -2.765   1.042  0.00  0.00    +0.208 C 
ATOM     34  C   UNL     1      -2.927  -4.640   0.024  0.00  0.00    +0.008 C 
ATOM     35  C   UNL     1      -3.428  -1.234   1.185  0.00  0.00    +0.023 C 
ATOM     36  C   UNL     1      -1.859  -1.278   1.202  0.00  0.00    -0.035 C 
ATOM     37  C   UNL     1      -1.410  -0.685   2.519  0.00  0.00    +0.005 C 
ATOM     38  C   UNL     1       0.027  -0.172   2.511  0.00  0.00    +0.031 C 
ATOM     39  C   UNL     1       0.727  -0.552   1.215  0.00  0.00    +0.026 C 
ENDROOT
BRANCH  22  23
ATOM     23  C   UNL     1       2.570   1.122   1.684  0.00  0.00    +0.503 C 
ATOM     24  O   UNL     1       2.114   1.576   2.719  0.00  0.00    -0.699 OA
ATOM     25  O   UNL     1       3.313   1.801   0.996  0.00  0.00    -0.698 OA
ENDBRANCH  22  23
BRANCH  31  32
ATOM     32  O   UNL     1      -0.396  -3.053   0.279  0.00  0.00    -0.533 OA
ATOM     33  H   UNL     1      -0.213  -3.997   0.180  0.00  0.00    +0.366 HD
ENDBRANCH  31  32
BRANCH   4   5
ATOM      5  O   UNL     1       2.799  -0.483  -2.464  0.00  0.00    -0.374 OA
BRANCH   5   6
ATOM      6  C   UNL     1       3.863   0.356  -2.919  0.00  0.00    +0.296 C 
ATOM      7  C   UNL     1       4.539  -0.289  -4.131  0.00  0.00    +0.140 C 
ATOM     10  C   UNL     1       5.638   0.644  -4.649  0.00  0.00    +0.161 C 
ATOM     13  C   UNL     1       5.021   2.006  -4.983  0.00  0.00    +0.169 C 
ATOM     16  C   UNL     1       4.326   2.562  -3.737  0.00  0.00    +0.191 C 
ATOM     20  O   UNL     1       3.338   1.632  -3.290  0.00  0.00    -0.372 OA
BRANCH   7   8
ATOM      8  O   UNL     1       5.114  -1.540  -3.748  0.00  0.00    -0.559 OA
ATOM      9  H   UNL     1       4.474  -2.179  -3.406  0.00  0.00    +0.394 HD
ENDBRANCH   7   8
BRANCH  10  11
ATOM     11  O   UNL     1       6.228   0.083  -5.823  0.00  0.00    -0.560 OA
ATOM     12  H   UNL     1       6.633  -0.784  -5.685  0.00  0.00    +0.392 HD
ENDBRANCH  10  11
BRANCH  13  14
ATOM     14  O   UNL     1       6.050   2.907  -5.399  0.00  0.00    -0.551 OA
ATOM     15  H   UNL     1       6.535   2.614  -6.183  0.00  0.00    +0.389 HD
ENDBRANCH  13  14
BRANCH  16  17
ATOM     17  C   UNL     1       3.656   3.894  -4.079  0.00  0.00    +0.214 C 
BRANCH  17  18
ATOM     18  O   UNL     1       3.107   4.470  -2.892  0.00  0.00    -0.553 OA
ATOM     19  H   UNL     1       2.666   5.318  -3.034  0.00  0.00    +0.378 HD
ENDBRANCH  17  18
ENDBRANCH  16  17
ENDBRANCH   5   6
ENDBRANCH   4   5
TORSDOF 9
