REMARK  Name = ZINC95486057
REMARK  6 active torsions:
REMARK  status: ('A' for Active; 'I' for Inactive)
REMARK    1  A    between atoms: C1_1  and  C2_2
REMARK    2  A    between atoms: C10_12  and  C13_18
REMARK    3  A    between atoms: C11_14  and  C12_17
REMARK    4  A    between atoms: C13_18  and  C14_20
REMARK    5  A    between atoms: C15_22  and  C16_24
REMARK    6  A    between atoms: C15_22  and  C17_25
REMARK                            x       y       z     vdW  Elec       q    Type
REMARK                         _______ _______ _______ _____ _____    ______ ____
ROOT
ATOM      1  C   UNL     1      -1.173  -1.738   0.902  0.00  0.00    +0.112 C 
ATOM      2  C   UNL     1      -1.401  -2.785   1.961  0.00  0.00    -0.027 A 
ATOM      3  C   UNL     1      -1.982  -3.992   1.619  0.00  0.00    -0.000 A 
ATOM      4  C   UNL     1      -2.191  -4.955   2.589  0.00  0.00    +0.065 A 
ATOM      5  C   UNL     1      -1.814  -4.715   3.894  0.00  0.00    +0.009 A 
ATOM      6  C   UNL     1      -1.226  -3.507   4.248  0.00  0.00    +0.125 A 
ATOM      7  O   UNL     1      -0.852  -3.315   5.543  0.00  0.00    -0.289 OA
ATOM      8  C   UNL     1      -0.227  -2.174   5.901  0.00  0.00    +0.503 C 
ATOM      9  O   UNL     1      -0.340  -1.702   7.007  0.00  0.00    -0.415 OA
ATOM     10  C   UNL     1       0.593  -1.529   4.819  0.00  0.00    -0.030 C 
ATOM     11  C   UNL     1       1.055  -0.085   5.069  0.00  0.00    -0.015 C 
ATOM     19  C   UNL     1       1.101   0.467   3.615  0.00  0.00    +0.206 C 
ATOM     20  C   UNL     1       0.602   1.914   3.591  0.00  0.00    +0.045 C 
ATOM     21  O   UNL     1       0.250  -0.379   2.813  0.00  0.00    -0.330 OA
ATOM     22  C   UNL     1      -0.425  -1.250   3.676  0.00  0.00    +0.210 C 
ATOM     23  C   UNL     1      -1.024  -2.535   3.264  0.00  0.00    -0.144 A 
ENDROOT
BRANCH  11  12
ATOM     12  C   UNL     1       0.054   0.668   5.906  0.00  0.00    +0.382 C 
ATOM     18  O   UNL     1      -1.022   0.962   5.442  0.00  0.00    -0.419 OA
BRANCH  12  13
ATOM     13  C   UNL     1       0.395   1.056   7.322  0.00  0.00    +0.091 C 
ATOM     14  C   UNL     1       0.198   2.518   7.728  0.00  0.00    +0.045 C 
ATOM     15  C   UNL     1      -0.332   3.487   6.669  0.00  0.00    +0.090 C 
ATOM     16  C   UNL     1       1.174   3.113   8.744  0.00  0.00    +0.098 C 
ATOM     17  O   UNL     1      -0.674   1.474   8.173  0.00  0.00    -0.312 OA
ENDBRANCH  12  13
ENDBRANCH  11  12
TORSDOF 2
