REMARK  Name = ZINC13359285
REMARK  11 active torsions:
REMARK  status: ('A' for Active; 'I' for Inactive)
REMARK    1  A    between atoms: C1_1  and  C2_2
REMARK    2  A    between atoms: C4_4  and  O4_30
REMARK    3  A    between atoms: C7_7  and  C8_8
REMARK    4  A    between atoms: C9_9  and  O2_23
REMARK    5  A    between atoms: C13_13  and  O1_14
REMARK    6  A    between atoms: O1_14  and  C14_15
REMARK    7  A    between atoms: C15_16  and  C19_22
REMARK    8  A    between atoms: C16_18  and  C18_21
REMARK    9  A    between atoms: C23_27  and  O3_28
REMARK   10  A    between atoms: O3_28  and  C24_29
REMARK   11  A    between atoms: O4_30  and  C25_31
REMARK                            x       y       z     vdW  Elec       q    Type
REMARK                         _______ _______ _______ _____ _____    ______ ____
ROOT
ATOM     16  C   UNL     1      -1.239   3.336  -0.591  0.00  0.00    -0.084 A 
ATOM     17  C   UNL     1      -1.281   1.938  -0.594  0.00  0.00    +0.152 A 
ATOM     20  C   UNL     1      -0.119   1.201  -0.397  0.00  0.00    -0.011 A 
ATOM     21  C   UNL     1       1.082   1.844  -0.207  0.00  0.00    -0.035 A 
ATOM     22  C   UNL     1       1.142   3.244  -0.206  0.00  0.00    -0.143 A 
ATOM     23  C   UNL     1       2.446   3.894   0.002  0.00  0.00    +0.218 C 
ATOM     24  C   UNL     1       2.511   5.336   0.433  0.00  0.00    +0.137 C 
ATOM     25  N   UNL     1       3.535   3.223  -0.187  0.00  0.00    -0.512 NA
ATOM     26  C   UNL     1       3.525   1.830  -0.620  0.00  0.00    +0.149 C 
ATOM     27  C   UNL     1       4.837   1.165  -0.201  0.00  0.00    +0.055 C 
ATOM     28  C   UNL     1       2.356   1.067   0.002  0.00  0.00    +0.074 C 
ATOM     29  C   UNL     1      -0.021   3.995  -0.398  0.00  0.00    +0.165 A 
ENDROOT
BRANCH  16  15
ATOM      1  C   UNL     1      -2.834   4.089   1.678  0.00  0.00    +0.095 C 
ATOM      2  C   UNL     1      -3.258   4.486   0.287  0.00  0.00    -0.002 A 
ATOM      3  C   UNL     1      -4.421   5.224   0.107  0.00  0.00    -0.104 A 
ATOM      4  C   UNL     1      -4.836   5.595  -1.153  0.00  0.00    +0.177 A 
ATOM      7  C   UNL     1      -4.072   5.230  -2.279  0.00  0.00    -0.100 A 
ATOM      8  C   UNL     1      -2.882   4.485  -2.104  0.00  0.00    +0.046 A 
ATOM      9  C   UNL     1      -2.121   4.122  -3.224  0.00  0.00    -0.039 A 
ATOM     10  C   UNL     1      -2.530   4.488  -4.472  0.00  0.00    +0.070 A 
ATOM     11  C   UNL     1      -3.698   5.222  -4.656  0.00  0.00    -0.113 A 
ATOM     12  C   UNL     1      -4.471   5.596  -3.580  0.00  0.00    +0.171 A 
ATOM     15  C   UNL     1      -2.480   4.117  -0.797  0.00  0.00    -0.083 A 
BRANCH   4   5
ATOM      5  O   UNL     1      -5.980   6.310  -1.310  0.00  0.00    -0.290 OA
ATOM      6  C   UNL     1      -6.704   6.644  -0.124  0.00  0.00    +0.239 C 
ENDBRANCH   4   5
BRANCH  12  13
ATOM     13  O   UNL     1      -5.609   6.312  -3.771  0.00  0.00    -0.291 OA
ATOM     14  C   UNL     1      -5.948   6.645  -5.118  0.00  0.00    +0.239 C 
ENDBRANCH  12  13
ENDBRANCH  16  15
BRANCH  17  18
ATOM     18  O   UNL     1      -2.462   1.297  -0.786  0.00  0.00    -0.485 OA
ATOM     19  H   UNL     1      -2.949   1.117   0.030  0.00  0.00    +0.393 HD
ENDBRANCH  17  18
BRANCH  29  30
ATOM     30  O   UNL     1       0.032   5.351  -0.398  0.00  0.00    -0.322 OA
ATOM     31  C   UNL     1       0.261   5.991  -1.654  0.00  0.00    +0.231 C 
ENDBRANCH  29  30
TORSDOF 5
