REMARK  Name = ZINC03824868
REMARK  4 active torsions:
REMARK  status: ('A' for Active; 'I' for Inactive)
REMARK    1  A    between atoms: C1_1  and  C2_2
REMARK    2  A    between atoms: C6_6  and  O1_8
REMARK    3  A    between atoms: C12_14  and  O4_18
REMARK    4  A    between atoms: C14_16  and  O3_17
REMARK                            x       y       z     vdW  Elec       q    Type
REMARK                         _______ _______ _______ _____ _____    ______ ____
ROOT
ATOM      1  C   UNL     1      -0.018   1.503   0.010  0.00  0.00    +0.112 C 
ATOM      2  C   UNL     1       0.002  -0.004   0.002  0.00  0.00    -0.047 A 
ATOM      3  C   UNL     1       0.006  -0.685  -1.206  0.00  0.00    +0.069 A 
ATOM      4  C   UNL     1       0.025  -2.074  -1.219  0.00  0.00    -0.102 A 
ATOM      5  C   UNL     1       0.039  -2.785  -0.004  0.00  0.00    -0.157 A 
ATOM      6  C   UNL     1       0.059  -4.261  -0.019  0.00  0.00    +0.433 C 
ATOM      7  C   UNL     1       0.369  -4.965  -1.276  0.00  0.00    -0.161 A 
ATOM      8  C   UNL     1       0.356  -4.258  -2.495  0.00  0.00    -0.088 A 
ATOM      9  C   UNL     1       0.649  -4.918  -3.679  0.00  0.00    +0.048 A 
ATOM     10  C   UNL     1       0.954  -6.278  -3.659  0.00  0.00    +0.150 A 
ATOM     13  C   UNL     1       0.967  -6.977  -2.463  0.00  0.00    -0.006 A 
ATOM     14  C   UNL     1       0.676  -6.330  -1.268  0.00  0.00    +0.182 A 
ATOM     17  O   UNL     1      -0.180  -4.889   0.995  0.00  0.00    -0.401 OA
ATOM     18  C   UNL     1       0.036  -2.087   1.205  0.00  0.00    +0.168 A 
ATOM     21  C   UNL     1       0.030  -2.814  -2.499  0.00  0.00    +0.439 C 
ATOM     22  O   UNL     1      -0.229  -2.245  -3.541  0.00  0.00    -0.418 OA
ATOM     23  C   UNL     1       0.023  -0.694   1.196  0.00  0.00    +0.016 A 
ENDROOT
BRANCH  10  11
ATOM     11  O   UNL     1       1.241  -6.922  -4.819  0.00  0.00    -0.489 OA
ATOM     12  H   UNL     1       2.179  -6.915  -5.052  0.00  0.00    +0.402 HD
ENDBRANCH  10  11
BRANCH  14  15
ATOM     15  O   UNL     1       0.691  -7.018  -0.100  0.00  0.00    -0.477 OA
ATOM     16  H   UNL     1      -0.161  -7.411   0.135  0.00  0.00    +0.405 HD
ENDBRANCH  14  15
BRANCH  18  19
ATOM     19  O   UNL     1       0.051  -2.761   2.382  0.00  0.00    -0.475 OA
ATOM     20  H   UNL     1       0.938  -2.945   2.719  0.00  0.00    +0.399 HD
ENDBRANCH  18  19
TORSDOF 3
