REMARK  Name = ZINC95486377
REMARK  11 active torsions:
REMARK  status: ('A' for Active; 'I' for Inactive)
REMARK    1  A    between atoms: C1_1  and  C2_2
REMARK    2  A    between atoms: C2_2  and  C24_30
REMARK    3  A    between atoms: C3_3  and  C4_4
REMARK    4  A    between atoms: C4_4  and  C5_5
REMARK    5  A    between atoms: C9_9  and  O2_13
REMARK    6  A    between atoms: C10_10  and  O1_11
REMARK    7  A    between atoms: O1_11  and  C11_12
REMARK    8  A    between atoms: C20_24  and  C21_26
REMARK    9  A    between atoms: C21_26  and  C22_27
REMARK   10  A    between atoms: C21_26  and  C23_28
REMARK   11  A    between atoms: C21_26  and  O6_29
REMARK                            x       y       z     vdW  Elec       q    Type
REMARK                         _______ _______ _______ _____ _____    ______ ____
ROOT
ATOM      6  C   UNL     1      -1.239  -0.164   3.096  0.00  0.00    +0.016 A 
ATOM      7  C   UNL     1      -2.374   0.618   2.875  0.00  0.00    -0.224 A 
ATOM      8  C   UNL     1      -3.571   0.354   3.562  0.00  0.00    +0.178 A 
ATOM      9  O   UNL     1      -4.667   1.116   3.370  0.00  0.00    -0.221 OA
ATOM     10  C   UNL     1      -4.789   1.938   2.306  0.00  0.00    +0.181 A 
ATOM     11  C   UNL     1      -6.037   2.435   1.963  0.00  0.00    +0.017 A 
ATOM     12  C   UNL     1      -6.176   3.287   0.877  0.00  0.00    +0.120 A 
ATOM     13  C   UNL     1      -5.045   3.652   0.120  0.00  0.00    -0.160 A 
ATOM     14  C   UNL     1      -5.546   4.550  -0.928  0.00  0.00    +0.011 A 
ATOM     15  C   UNL     1      -6.867   4.649  -0.733  0.00  0.00    +0.035 A 
ATOM     21  C   UNL     1      -3.790   3.158   0.453  0.00  0.00    +0.184 A 
ATOM     22  O   UNL     1      -7.239   3.907   0.325  0.00  0.00    -0.179 OA
ATOM     23  C   UNL     1      -3.664   2.300   1.540  0.00  0.00    -0.235 A 
ATOM     24  C   UNL     1      -3.613  -0.707   4.458  0.00  0.00    -0.013 A 
ATOM     25  C   UNL     1      -2.488  -1.482   4.672  0.00  0.00    +0.165 A 
ATOM     28  C   UNL     1      -2.348   1.738   1.913  0.00  0.00    +0.444 A 
ATOM     29  O   UNL     1      -1.307   2.173   1.455  0.00  0.00    -0.430 OA
ATOM     30  C   UNL     1      -1.298  -1.213   3.989  0.00  0.00    +0.040 A 
ENDROOT
BRANCH  15  16
ATOM     16  C   UNL     1      -7.803   5.474  -1.578  0.00  0.00    +0.210 C 
ATOM     19  C   UNL     1      -7.907   6.885  -0.995  0.00  0.00    +0.042 C 
ATOM     20  C   UNL     1      -9.188   4.824  -1.589  0.00  0.00    +0.035 C 
BRANCH  16  17
ATOM     17  O   UNL     1      -7.301   5.547  -2.914  0.00  0.00    -0.551 OA
ATOM     18  H   UNL     1      -7.854   6.064  -3.515  0.00  0.00    +0.393 HD
ENDBRANCH  16  17
ENDBRANCH  15  16
BRANCH  25  26
ATOM     26  O   UNL     1      -2.540  -2.516   5.551  0.00  0.00    -0.483 OA
ATOM     27  H   UNL     1      -2.804  -3.357   5.153  0.00  0.00    +0.404 HD
ENDBRANCH  25  26
BRANCH  30  31
ATOM     31  O   UNL     1      -0.199  -1.984   4.208  0.00  0.00    -0.321 OA
ATOM     32  C   UNL     1       0.685  -1.571   5.253  0.00  0.00    +0.229 C 
ENDBRANCH  30  31
BRANCH   6   5
ATOM      5  C   UNL     1       0.041   0.132   2.359  0.00  0.00    +0.132 C 
BRANCH   5   4
ATOM      1  C   UNL     1       2.760  -0.258   2.996  0.00  0.00    +0.075 C 
ATOM      2  C   UNL     1       2.055   1.002   3.431  0.00  0.00    -0.135 C 
ATOM      3  C   UNL     1       2.788   2.028   4.256  0.00  0.00    +0.074 C 
ATOM      4  C   UNL     1       0.806   1.204   3.091  0.00  0.00    -0.032 C 
ENDBRANCH   5   4
ENDBRANCH   6   5
TORSDOF 6
