REMARK  Name = ZINC95485909
REMARK  22 active torsions:
REMARK  status: ('A' for Active; 'I' for Inactive)
REMARK    1  A    between atoms: C1_1  and  O1_2
REMARK    2  A    between atoms: O1_2  and  C2_3
REMARK    3  A    between atoms: C4_5  and  C8_10
REMARK    4  A    between atoms: C7_8  and  O2_9
REMARK    5  A    between atoms: C9_11  and  C10_12
REMARK    6  A    between atoms: C10_12  and  O4_14
REMARK    7  A    between atoms: O4_14  and  C11_15
REMARK    8  A    between atoms: C12_17  and  C17_30
REMARK    9  A    between atoms: C13_20  and  C16_28
REMARK   10  A    between atoms: C14_22  and  O7_27
REMARK   11  A    between atoms: C15_24  and  O6_26
REMARK   12  A    between atoms: C16_28  and  O8_29
REMARK   13  A    between atoms: C18_31  and  O18_65
REMARK   14  A    between atoms: C22_36  and  C32_58
REMARK   15  A    between atoms: C24_39  and  C26_42
REMARK   16  A    between atoms: C25_40  and  O11_41
REMARK   17  A    between atoms: C27_44  and  O16_57
REMARK   18  A    between atoms: C28_46  and  O15_56
REMARK   19  A    between atoms: C29_48  and  O14_55
REMARK   20  A    between atoms: C30_50  and  C31_53
REMARK   21  A    between atoms: C31_53  and  O13_54
REMARK   22  A    between atoms: C35_61  and  O17_64
REMARK                            x       y       z     vdW  Elec       q    Type
REMARK                         _______ _______ _______ _____ _____    ______ ____
ROOT
ATOM     12  C   UNL     1       3.016  -3.739  -8.553  0.00  0.00    -0.178 A 
ATOM     13  C   UNL     1       1.782  -4.358  -8.477  0.00  0.00    +0.254 A 
ATOM     16  C   UNL     1       0.741  -3.924  -9.307  0.00  0.00    -0.269 A 
ATOM     17  C   UNL     1      -0.589  -4.555  -9.258  0.00  0.00    +0.426 A 
ATOM     18  C   UNL     1      -1.581  -4.051 -10.133  0.00  0.00    -0.146 A 
ATOM     19  C   UNL     1      -1.277  -3.025 -10.972  0.00  0.00    +0.209 A 
ATOM     28  O   UNL     1      -0.060  -2.458 -11.008  0.00  0.00    -0.211 OA
ATOM     29  O   UNL     1      -0.827  -5.475  -8.492  0.00  0.00    -0.450 OA
ATOM     30  C   UNL     1       0.950  -2.869 -10.211  0.00  0.00    +0.215 A 
ATOM     31  C   UNL     1       2.194  -2.261 -10.274  0.00  0.00    -0.141 A 
ATOM     47  C   UNL     1       3.219  -2.692  -9.444  0.00  0.00    +0.239 A 
ENDROOT
BRANCH  12  11
ATOM     10  C   UNL     1       3.900  -3.703  -6.235  0.00  0.00    +0.177 C 
ATOM     11  C   UNL     1       4.143  -4.197  -7.663  0.00  0.00    +0.244 C 
ATOM     50  O   UNL     1       4.203  -5.625  -7.668  0.00  0.00    -0.326 OA
ATOM     51  C   UNL     1       5.259  -6.167  -6.872  0.00  0.00    +0.137 C 
ATOM     55  C   UNL     1       5.061  -5.751  -5.412  0.00  0.00    +0.132 C 
ATOM     58  C   UNL     1       5.016  -4.223  -5.324  0.00  0.00    +0.174 C 
BRANCH  55  56
ATOM     56  O   UNL     1       6.145  -6.245  -4.623  0.00  0.00    -0.556 OA
ATOM     57  H   UNL     1       6.235  -7.207  -4.635  0.00  0.00    +0.385 HD
ENDBRANCH  55  56
BRANCH  58  59
ATOM     59  O   UNL     1       4.756  -3.827  -3.976  0.00  0.00    -0.540 OA
ATOM     60  H   UNL     1       5.425  -4.123  -3.343  0.00  0.00    +0.386 HD
ENDBRANCH  58  59
BRANCH  10   9
ATOM      9  O   UNL     1       3.897  -2.274  -6.219  0.00  0.00    -0.327 OA
BRANCH   9   8
ATOM      8  C   UNL     1       3.130  -1.674  -5.285  0.00  0.00    +0.491 C 
ATOM     61  O   UNL     1       2.482  -2.346  -4.506  0.00  0.00    -0.470 OA
BRANCH   8   7
ATOM      6  C   UNL     1       2.212   0.344  -4.368  0.00  0.00    +0.146 C 
ATOM      7  C   UNL     1       3.079  -0.259  -5.212  0.00  0.00    -0.043 C 
BRANCH   6   5
ATOM      3  C   UNL     1      -0.061  -1.069  -1.740  0.00  0.00    +0.097 A 
ATOM      4  C   UNL     1       0.938  -0.329  -2.342  0.00  0.00    -0.038 A 
ATOM      5  C   UNL     1       1.152  -0.441  -3.721  0.00  0.00    -0.040 A 
ATOM     62  C   UNL     1       0.352  -1.302  -4.482  0.00  0.00    +0.039 A 
ATOM     63  C   UNL     1      -0.642  -2.036  -3.873  0.00  0.00    +0.023 A 
ATOM     64  C   UNL     1      -0.850  -1.929  -2.504  0.00  0.00    +0.088 A 
BRANCH   3   2
ATOM      1  C   UNL     1       0.573  -0.063   0.320  0.00  0.00    +0.236 C 
ATOM      2  O   UNL     1      -0.272  -0.963  -0.401  0.00  0.00    -0.309 OA
ENDBRANCH   3   2
BRANCH  64  65
ATOM     65  O   UNL     1      -1.827  -2.659  -1.908  0.00  0.00    -0.486 OA
ATOM     66  H   UNL     1      -2.686  -2.216  -1.878  0.00  0.00    +0.386 HD
ENDBRANCH  64  65
ENDBRANCH   6   5
ENDBRANCH   8   7
ENDBRANCH   9   8
ENDBRANCH  10   9
BRANCH  51  52
ATOM     52  C   UNL     1       5.244  -7.693  -6.974  0.00  0.00    +0.207 C 
BRANCH  52  53
ATOM     53  O   UNL     1       5.544  -8.084  -8.316  0.00  0.00    -0.561 OA
ATOM     54  H   UNL     1       5.552  -9.040  -8.455  0.00  0.00    +0.384 HD
ENDBRANCH  52  53
ENDBRANCH  51  52
ENDBRANCH  12  11
BRANCH  19  20
ATOM     20  C   UNL     1      -2.324  -2.514 -11.877  0.00  0.00    -0.082 A 
ATOM     21  C   UNL     1      -3.602  -3.079 -11.859  0.00  0.00    +0.080 A 
ATOM     22  C   UNL     1      -4.577  -2.599 -12.705  0.00  0.00    -0.006 A 
ATOM     23  C   UNL     1      -4.291  -1.554 -13.576  0.00  0.00    +0.135 A 
ATOM     26  C   UNL     1      -3.021  -0.989 -13.597  0.00  0.00    -0.011 A 
ATOM     27  C   UNL     1      -2.042  -1.460 -12.750  0.00  0.00    +0.079 A 
BRANCH  23  24
ATOM     24  O   UNL     1      -5.255  -1.083 -14.408  0.00  0.00    -0.497 OA
ATOM     25  H   UNL     1      -5.783  -0.365 -14.033  0.00  0.00    +0.398 HD
ENDBRANCH  23  24
ENDBRANCH  19  20
BRANCH  31  32
ATOM     32  C   UNL     1       2.432  -1.129 -11.239  0.00  0.00    +0.239 C 
ATOM     33  C   UNL     1       3.263  -1.632 -12.422  0.00  0.00    +0.166 C 
ATOM     36  C   UNL     1       3.551  -0.462 -13.368  0.00  0.00    +0.118 C 
ATOM     39  C   UNL     1       4.263   0.648 -12.588  0.00  0.00    +0.130 C 
ATOM     42  C   UNL     1       3.393   1.063 -11.398  0.00  0.00    +0.175 C 
ATOM     46  O   UNL     1       3.136  -0.077 -10.576  0.00  0.00    -0.323 OA
BRANCH  33  34
ATOM     34  O   UNL     1       2.536  -2.644 -13.120  0.00  0.00    -0.546 OA
ATOM     35  H   UNL     1       3.004  -3.009 -13.884  0.00  0.00    +0.391 HD
ENDBRANCH  33  34
BRANCH  36  37
ATOM     37  O   UNL     1       4.387  -0.907 -14.438  0.00  0.00    -0.557 OA
ATOM     38  H   UNL     1       4.610  -0.216 -15.077  0.00  0.00    +0.384 HD
ENDBRANCH  36  37
BRANCH  39  40
ATOM     40  O   UNL     1       4.473   1.773 -13.443  0.00  0.00    -0.552 OA
ATOM     41  H   UNL     1       5.014   1.580 -14.221  0.00  0.00    +0.383 HD
ENDBRANCH  39  40
BRANCH  42  43
ATOM     43  C   UNL     1       4.123   2.129 -10.580  0.00  0.00    +0.220 C 
BRANCH  43  44
ATOM     44  O   UNL     1       3.265   2.600  -9.538  0.00  0.00    -0.564 OA
ATOM     45  H   UNL     1       3.664   3.280  -8.978  0.00  0.00    +0.382 HD
ENDBRANCH  43  44
ENDBRANCH  42  43
ENDBRANCH  31  32
BRANCH  13  14
ATOM     14  O   UNL     1       1.581  -5.377  -7.604  0.00  0.00    -0.455 OA
ATOM     15  H   UNL     1       1.271  -5.094  -6.733  0.00  0.00    +0.397 HD
ENDBRANCH  13  14
BRANCH  47  48
ATOM     48  O   UNL     1       4.433  -2.088  -9.507  0.00  0.00    -0.462 OA
ATOM     49  H   UNL     1       5.039  -2.489 -10.145  0.00  0.00    +0.393 HD
ENDBRANCH  47  48
TORSDOF 21
