REMARK  Name = ZINC95485950
REMARK  7 active torsions:
REMARK  status: ('A' for Active; 'I' for Inactive)
REMARK    1  A    between atoms: C1_1  and  C2_2
REMARK    2  A    between atoms: C2_2  and  C3_4
REMARK    3  A    between atoms: C3_4  and  C4_5
REMARK    4  A    between atoms: C4_5  and  C5_6
REMARK    5  A    between atoms: C7_8  and  O5_20
REMARK    6  A    between atoms: C11_13  and  C14_18
REMARK    7  A    between atoms: C14_18  and  O4_19
REMARK                            x       y       z     vdW  Elec       q    Type
REMARK                         _______ _______ _______ _____ _____    ______ ____
ROOT
ATOM      5  C   UNL     1      -2.287  -3.047   0.007  0.00  0.00    +0.004 A 
ATOM      6  C   UNL     1      -2.865  -3.398   1.214  0.00  0.00    -0.051 A 
ATOM      7  C   UNL     1      -4.058  -4.105   1.234  0.00  0.00    +0.207 A 
ATOM     10  C   UNL     1      -4.670  -4.457   0.023  0.00  0.00    -0.289 A 
ATOM     11  C   UNL     1      -4.074  -4.104  -1.199  0.00  0.00    +0.200 A 
ATOM     12  O   UNL     1      -4.646  -4.452  -2.375  0.00  0.00    -0.295 OA
ATOM     13  C   UNL     1      -6.046  -4.732  -2.400  0.00  0.00    +0.188 C 
ATOM     17  C   UNL     1      -6.375  -5.776  -1.324  0.00  0.00    +0.034 C 
ATOM     18  C   UNL     1      -5.941  -5.196   0.011  0.00  0.00    +0.404 C 
ATOM     19  O   UNL     1      -6.607  -5.337   1.015  0.00  0.00    -0.432 OA
ATOM     20  C   UNL     1      -2.885  -3.390  -1.191  0.00  0.00    -0.027 A 
ENDROOT
BRANCH   7   8
ATOM      8  O   UNL     1      -4.627  -4.452   2.415  0.00  0.00    -0.482 OA
ATOM      9  H   UNL     1      -5.242  -3.793   2.764  0.00  0.00    +0.401 HD
ENDBRANCH   7   8
BRANCH   5   4
ATOM      4  C   UNL     1      -0.993  -2.276  -0.001  0.00  0.00    +0.095 C 
BRANCH   4   3
ATOM      3  C   UNL     1      -1.293  -0.775   0.010  0.00  0.00    +0.038 C 
BRANCH   3   2
ATOM      1  C   UNL     1      -0.018   1.503   0.010  0.00  0.00    +0.062 C 
ATOM      2  C   UNL     1       0.002  -0.004   0.002  0.00  0.00    +0.353 C 
ATOM     21  O   UNL     1       1.056  -0.594  -0.011  0.00  0.00    -0.456 OA
ENDBRANCH   3   2
ENDBRANCH   4   3
ENDBRANCH   5   4
BRANCH  13  14
ATOM     14  C   UNL     1      -6.433  -5.277  -3.777  0.00  0.00    +0.222 C 
BRANCH  14  15
ATOM     15  O   UNL     1      -6.232  -4.264  -4.764  0.00  0.00    -0.565 OA
ATOM     16  H   UNL     1      -6.458  -4.540  -5.663  0.00  0.00    +0.387 HD
ENDBRANCH  14  15
ENDBRANCH  13  14
TORSDOF 6
