REMARK  Name = ZINC95486194
REMARK  13 active torsions:
REMARK  status: ('A' for Active; 'I' for Inactive)
REMARK    1  A    between atoms: C1_1  and  C2_2
REMARK    2  A    between atoms: C4_4  and  O7_27
REMARK    3  A    between atoms: C5_5  and  C19_24
REMARK    4  A    between atoms: C6_6  and  O5_23
REMARK    5  A    between atoms: C7_7  and  C8_8
REMARK    6  A    between atoms: C8_8  and  O2_10
REMARK    7  A    between atoms: O2_10  and  C9_11
REMARK    8  A    between atoms: C11_13  and  C18_22
REMARK    9  A    between atoms: C12_14  and  C16_19
REMARK   10  A    between atoms: C13_15  and  O3_18
REMARK   11  A    between atoms: C14_16  and  C15_17
REMARK   12  A    between atoms: C16_19  and  C17_21
REMARK   13  A    between atoms: C19_24  and  C20_26
REMARK                            x       y       z     vdW  Elec       q    Type
REMARK                         _______ _______ _______ _____ _____    ______ ____
ROOT
ATOM     15  C   UNL     1       0.307  -0.143   2.479  0.00  0.00    +0.525 C 
ATOM     30  O   UNL     1      -0.727  -0.120   3.117  0.00  0.00    -0.462 OA
ENDROOT
BRANCH  15  14
ATOM      1  C   UNL     1      -0.186   1.642   0.266  0.00  0.00    +0.117 C 
ATOM      2  C   UNL     1       0.075   0.177   0.023  0.00  0.00    +0.008 A 
ATOM      3  C   UNL     1       0.085  -0.312  -1.264  0.00  0.00    -0.001 A 
ATOM      4  C   UNL     1       0.324  -1.658  -1.504  0.00  0.00    +0.189 A 
ATOM      7  C   UNL     1       0.559  -2.535  -0.429  0.00  0.00    -0.216 A 
ATOM     11  C   UNL     1       0.551  -2.039   0.884  0.00  0.00    +0.204 A 
ATOM     14  C   UNL     1       0.313  -0.676   1.107  0.00  0.00    -0.150 A 
BRANCH   7   8
ATOM      8  C   UNL     1       0.810  -3.955  -0.678  0.00  0.00    +0.423 C 
ATOM      9  C   UNL     1      -0.330  -4.940  -0.645  0.00  0.00    +0.089 C 
ATOM     10  O   UNL     1       1.937  -4.340  -0.912  0.00  0.00    -0.446 OA
ENDBRANCH   7   8
BRANCH   4   5
ATOM      5  O   UNL     1       0.330  -2.128  -2.774  0.00  0.00    -0.488 OA
ATOM      6  H   UNL     1       1.198  -2.101  -3.199  0.00  0.00    +0.406 HD
ENDBRANCH   4   5
BRANCH  11  12
ATOM     12  O   UNL     1       0.775  -2.871   1.928  0.00  0.00    -0.484 OA
ATOM     13  H   UNL     1       1.707  -2.949   2.175  0.00  0.00    +0.405 HD
ENDBRANCH  11  12
ENDBRANCH  15  14
BRANCH  15  16
ATOM     16  O   UNL     1       1.449   0.318   3.027  0.00  0.00    -0.286 OA
BRANCH  16  17
ATOM     17  C   UNL     1       1.378   0.898   4.253  0.00  0.00    +0.112 A 
ATOM     18  C   UNL     1       1.238   2.279   4.359  0.00  0.00    +0.017 A 
ATOM     19  C   UNL     1       1.165   2.874   5.584  0.00  0.00    -0.029 A 
ATOM     20  C   UNL     1       1.013   4.370   5.688  0.00  0.00    +0.111 C 
ATOM     21  C   UNL     1       1.232   2.095   6.748  0.00  0.00    -0.172 A 
ATOM     25  C   UNL     1       1.373   0.700   6.644  0.00  0.00    +0.154 A 
ATOM     28  C   UNL     1       1.440   0.110   5.393  0.00  0.00    -0.111 A 
ATOM     29  C   UNL     1       1.586  -1.385   5.271  0.00  0.00    +0.115 C 
BRANCH  21  22
ATOM     22  C   UNL     1       1.155   2.732   8.065  0.00  0.00    +0.411 C 
ATOM     23  C   UNL     1      -0.179   2.891   8.748  0.00  0.00    +0.081 C 
ATOM     24  O   UNL     1       2.165   3.130   8.607  0.00  0.00    -0.437 OA
ENDBRANCH  21  22
BRANCH  25  26
ATOM     26  O   UNL     1       1.440  -0.064   7.763  0.00  0.00    -0.483 OA
ATOM     27  H   UNL     1       0.580  -0.374   8.078  0.00  0.00    +0.396 HD
ENDBRANCH  25  26
ENDBRANCH  16  17
ENDBRANCH  15  16
TORSDOF 8
