REMARK  Name = ZINC95486335
REMARK  14 active torsions:
REMARK  status: ('A' for Active; 'I' for Inactive)
REMARK    1  A    between atoms: C1_1  and  C2_2
REMARK    2  A    between atoms: C2_2  and  O1_3
REMARK    3  A    between atoms: O1_3  and  C3_4
REMARK    4  A    between atoms: C3_4  and  C4_5
REMARK    5  A    between atoms: C3_4  and  O3_27
REMARK    6  A    between atoms: C4_5  and  C5_6
REMARK    7  A    between atoms: C5_6  and  C22_25
REMARK    8  A    between atoms: C6_7  and  C7_8
REMARK    9  A    between atoms: C7_8  and  C8_9
REMARK   10  A    between atoms: C14_17  and  C21_24
REMARK   11  A    between atoms: C18_21  and  C19_22
REMARK   12  A    between atoms: C18_21  and  C20_23
REMARK   13  A    between atoms: O3_27  and  C23_28
REMARK   14  A    between atoms: C23_28  and  C24_29
REMARK                            x       y       z     vdW  Elec       q    Type
REMARK                         _______ _______ _______ _____ _____    ______ ____
ROOT
ATOM     14  C   UNL     1      -3.514   0.215   3.991  0.00  0.00    +0.044 C 
ATOM     15  C   UNL     1      -4.314   1.372   3.438  0.00  0.00    -0.107 C 
ATOM     16  C   UNL     1      -4.235   2.714   4.127  0.00  0.00    +0.049 C 
ATOM     17  C   UNL     1      -4.471   2.511   5.630  0.00  0.00    +0.021 C 
ATOM     18  C   UNL     1      -3.504   1.444   6.142  0.00  0.00    +0.004 C 
ATOM     19  C   UNL     1      -3.418   1.448   7.656  0.00  0.00    -0.049 C 
ATOM     20  C   UNL     1      -4.795   1.414   8.318  0.00  0.00    +0.023 C 
ATOM     21  C   UNL     1      -2.725   2.757   8.101  0.00  0.00    +0.012 C 
ATOM     22  C   UNL     1      -2.559   0.300   8.185  0.00  0.00    +0.011 C 
ATOM     23  C   UNL     1      -2.998  -1.035   7.595  0.00  0.00    +0.005 C 
ATOM     24  C   UNL     1      -2.871  -0.983   6.073  0.00  0.00    +0.011 C 
ATOM     25  C   UNL     1      -5.061   1.214   2.370  0.00  0.00    -0.007 C 
ATOM     26  C   UNL     1      -3.796   0.095   5.504  0.00  0.00    -0.034 C 
ATOM     27  C   UNL     1      -5.251  -0.337   5.678  0.00  0.00    +0.028 C 
ENDROOT
BRANCH  14  13
ATOM     13  C   UNL     1      -3.941  -1.073   3.285  0.00  0.00    +0.060 C 
BRANCH  13  12
ATOM      9  C   UNL     1      -2.632  -2.015   1.424  0.00  0.00    -0.232 C 
ATOM     12  C   UNL     1      -3.446  -1.053   1.861  0.00  0.00    +0.096 C 
BRANCH   9  10
ATOM     10  C   UNL     1      -2.132  -3.028   2.353  0.00  0.00    +0.467 C 
ATOM     11  O   UNL     1      -1.317  -3.846   1.978  0.00  0.00    -0.460 OA
ENDBRANCH   9  10
BRANCH   9   8
ATOM      8  C   UNL     1      -2.227  -2.058  -0.027  0.00  0.00    +0.132 C 
BRANCH   8   4
ATOM      4  C   UNL     1      -0.884  -1.346  -0.203  0.00  0.00    +0.307 C 
BRANCH   4   3
ATOM      3  O   UNL     1      -1.037   0.041   0.106  0.00  0.00    -0.386 OA
BRANCH   3   2
ATOM      1  C   UNL     1      -0.095   2.157   0.795  0.00  0.00    +0.048 C 
ATOM      2  C   UNL     1       0.153   0.660   0.599  0.00  0.00    +0.146 C 
ENDBRANCH   3   2
ENDBRANCH   4   3
BRANCH   4   5
ATOM      5  O   UNL     1      -0.444  -1.487  -1.556  0.00  0.00    -0.389 OA
BRANCH   5   6
ATOM      6  C   UNL     1       0.924  -1.131  -1.762  0.00  0.00    +0.152 C 
ATOM      7  C   UNL     1       1.331  -1.479  -3.195  0.00  0.00    +0.049 C 
ENDBRANCH   5   6
ENDBRANCH   4   5
ENDBRANCH   8   4
ENDBRANCH   9   8
ENDBRANCH  13  12
ENDBRANCH  14  13
TORSDOF 9
