REMARK  Name = ZINC95485936
REMARK  10 active torsions:
REMARK  status: ('A' for Active; 'I' for Inactive)
REMARK    1  A    between atoms: C1_1  and  C2_2
REMARK    2  A    between atoms: C5_6  and  C32_41
REMARK    3  A    between atoms: C8_9  and  C31_40
REMARK    4  A    between atoms: C11_14  and  C12_16
REMARK    5  A    between atoms: C16_21  and  C30_39
REMARK    6  A    between atoms: C24_30  and  O2_35
REMARK    7  A    between atoms: C25_32  and  C26_33
REMARK    8  A    between atoms: C25_32  and  C27_34
REMARK    9  A    between atoms: O2_35  and  C28_36
REMARK   10  A    between atoms: C28_36  and  C29_38
REMARK                            x       y       z     vdW  Elec       q    Type
REMARK                         _______ _______ _______ _____ _____    ______ ____
ROOT
ATOM      1  C   UNL     1      -0.887   0.887   0.700  0.00  0.00    +0.010 C 
ATOM      2  C   UNL     1      -0.552  -0.598   0.504  0.00  0.00    -0.018 C 
ATOM      3  C   UNL     1      -1.846  -1.381   0.305  0.00  0.00    +0.007 C 
ATOM      4  C   UNL     1      -1.534  -2.869   0.163  0.00  0.00    +0.014 C 
ATOM      5  C   UNL     1      -0.837  -3.382   1.422  0.00  0.00    -0.043 C 
ATOM      6  C   UNL     1      -1.805  -3.269   2.612  0.00  0.00    +0.017 C 
ATOM      7  C   UNL     1      -0.555  -4.881   1.263  0.00  0.00    +0.010 C 
ATOM      8  C   UNL     1       0.456  -5.129   0.152  0.00  0.00    +0.020 C 
ATOM      9  C   UNL     1       1.770  -4.405   0.457  0.00  0.00    -0.029 C 
ATOM     10  C   UNL     1       2.326  -4.933   1.787  0.00  0.00    +0.029 C 
ATOM     11  C   UNL     1       1.504  -2.910   0.600  0.00  0.00    +0.016 C 
ATOM     12  C   UNL     1       2.796  -2.175   0.981  0.00  0.00    +0.024 C 
ATOM     13  C   UNL     1       3.868  -2.490  -0.040  0.00  0.00    +0.398 C 
ATOM     14  C   UNL     1       4.070  -3.942  -0.431  0.00  0.00    -0.153 C 
ATOM     15  C   UNL     1       5.228  -4.161  -1.414  0.00  0.00    +0.036 C 
ATOM     16  C   UNL     1       5.325  -4.670   0.041  0.00  0.00    -0.040 C 
ATOM     17  C   UNL     1       6.209  -3.854   0.985  0.00  0.00    +0.049 C 
ATOM     18  C   UNL     1       7.404  -4.609   1.507  0.00  0.00    +0.019 C 
ATOM     19  C   UNL     1       7.057  -5.992   2.007  0.00  0.00    +0.192 C 
ATOM     24  C   UNL     1       6.382  -6.844   0.954  0.00  0.00    -0.030 C 
ATOM     25  C   UNL     1       7.455  -7.315  -0.036  0.00  0.00    +0.038 C 
ATOM     26  C   UNL     1       5.819  -8.083   1.651  0.00  0.00    +0.036 C 
ATOM     27  C   UNL     1       5.308  -6.169   0.177  0.00  0.00    +0.002 C 
ATOM     28  C   UNL     1       3.994  -6.855   0.038  0.00  0.00    +0.031 C 
ATOM     29  C   UNL     1       2.984  -6.181  -0.857  0.00  0.00    +0.023 C 
ATOM     30  O   UNL     1       4.539  -1.610  -0.526  0.00  0.00    -0.452 OA
ATOM     31  C   UNL     1       2.773  -4.700  -0.664  0.00  0.00    +0.008 C 
ATOM     32  C   UNL     1       2.198  -4.164  -1.989  0.00  0.00    +0.018 C 
ATOM     33  C   UNL     1       0.447  -2.612   1.679  0.00  0.00    +0.021 C 
ATOM     34  C   UNL     1       0.237  -1.100   1.703  0.00  0.00    -0.024 C 
ATOM     35  C   UNL     1      -0.358  -0.598   3.014  0.00  0.00    +0.017 C 
ENDROOT
BRANCH  19  20
ATOM     20  O   UNL     1       6.184  -5.873   3.133  0.00  0.00    -0.338 OA
BRANCH  20  21
ATOM     21  C   UNL     1       6.758  -5.797   4.344  0.00  0.00    +0.455 C 
ATOM     22  C   UNL     1       5.901  -5.670   5.577  0.00  0.00    +0.150 C 
ATOM     23  O   UNL     1       7.961  -5.829   4.445  0.00  0.00    -0.514 OA
ENDBRANCH  20  21
ENDBRANCH  19  20
TORSDOF 2
