REMARK  Name = ZINC95486230
REMARK  19 active torsions:
REMARK  status: ('A' for Active; 'I' for Inactive)
REMARK    1  A    between atoms: C1_1  and  C2_2
REMARK    2  A    between atoms: C2_2  and  O2_4
REMARK    3  A    between atoms: O2_4  and  C3_5
REMARK    4  A    between atoms: C6_10  and  C32_49
REMARK    5  A    between atoms: C7_12  and  C31_48
REMARK    6  A    between atoms: C14_20  and  C30_47
REMARK    7  A    between atoms: C15_21  and  C27_42
REMARK    8  A    between atoms: C16_23  and  C25_40
REMARK    9  A    between atoms: C16_23  and  C26_41
REMARK   10  A    between atoms: C17_24  and  O8_39
REMARK   11  A    between atoms: C18_26  and  O5_31
REMARK   12  A    between atoms: O5_31  and  C20_32
REMARK   13  A    between atoms: C20_32  and  C21_33
REMARK   14  A    between atoms: C21_33  and  C22_34
REMARK   15  A    between atoms: C22_34  and  C23_35
REMARK   16  A    between atoms: C23_35  and  C24_36
REMARK   17  A    between atoms: C27_42  and  C28_43
REMARK   18  A    between atoms: C28_43  and  O10_45
REMARK   19  A    between atoms: O10_45  and  C29_46
REMARK                            x       y       z     vdW  Elec       q    Type
REMARK                         _______ _______ _______ _____ _____    ______ ____
ROOT
ATOM      4  C   UNL     1       1.125  -1.983  -2.174  0.00  0.00    +0.180 C 
ATOM      5  C   UNL     1       2.059  -2.648  -3.153  0.00  0.00    +0.360 C 
ATOM      6  C   UNL     1       1.938  -4.145  -3.311  0.00  0.00    +0.045 C 
ATOM      7  C   UNL     1       0.478  -4.506  -3.590  0.00  0.00    +0.089 C 
ATOM     13  C   UNL     1      -0.473  -3.912  -2.549  0.00  0.00    -0.052 C 
ATOM     14  C   UNL     1      -0.165  -4.536  -1.178  0.00  0.00    +0.046 C 
ATOM     15  C   UNL     1      -1.908  -4.282  -2.929  0.00  0.00    +0.021 C 
ATOM     16  C   UNL     1      -2.474  -3.514  -4.108  0.00  0.00    +0.016 C 
ATOM     17  C   UNL     1      -2.307  -1.996  -3.986  0.00  0.00    +0.048 C 
ATOM     18  C   UNL     1      -3.104  -1.421  -2.810  0.00  0.00    -0.044 C 
ATOM     19  C   UNL     1      -4.530  -2.040  -2.902  0.00  0.00    +0.029 C 
ATOM     20  C   UNL     1      -3.288   0.077  -2.954  0.00  0.00    +0.034 C 
ATOM     26  C   UNL     1      -3.671   0.853  -1.705  0.00  0.00    -0.044 C 
ATOM     27  C   UNL     1      -5.186   0.819  -1.484  0.00  0.00    +0.038 C 
ATOM     28  C   UNL     1      -3.275   2.330  -1.929  0.00  0.00    +0.040 C 
ATOM     29  C   UNL     1      -2.948   0.367  -0.458  0.00  0.00    +0.156 C 
ATOM     32  C   UNL     1      -3.127  -1.135  -0.292  0.00  0.00    +0.144 C 
ATOM     41  C   UNL     1      -2.520  -1.877  -1.488  0.00  0.00    +0.182 C 
ATOM     42  O   UNL     1      -1.117  -1.854  -1.408  0.00  0.00    -0.330 OA
ATOM     43  C   UNL     1      -0.807  -1.811  -3.767  0.00  0.00    -0.144 C 
ATOM     44  C   UNL     1      -0.034  -1.255  -4.670  0.00  0.00    +0.037 C 
ATOM     45  O   UNL     1       2.873  -2.015  -3.781  0.00  0.00    -0.431 OA
ATOM     46  C   UNL     1      -0.318  -2.392  -2.457  0.00  0.00    +0.205 C 
ENDROOT
BRANCH   7   8
ATOM      8  C   UNL     1       0.383  -6.010  -3.575  0.00  0.00    -0.165 A 
ATOM      9  C   UNL     1       0.890  -6.877  -2.580  0.00  0.00    -0.053 A 
ATOM     10  C   UNL     1       0.585  -8.130  -2.962  0.00  0.00    +0.162 A 
ATOM     11  O   UNL     1      -0.076  -8.068  -4.130  0.00  0.00    -0.176 OA
ATOM     12  C   UNL     1      -0.206  -6.785  -4.504  0.00  0.00    +0.161 A 
ENDBRANCH   7   8
BRANCH  29  30
ATOM     30  O   UNL     1      -1.559   0.693  -0.528  0.00  0.00    -0.540 OA
ATOM     31  H   UNL     1      -1.048   0.407   0.242  0.00  0.00    +0.381 HD
ENDBRANCH  29  30
BRANCH   4   3
ATOM      3  O   UNL     1       1.256  -0.563  -2.243  0.00  0.00    -0.310 OA
BRANCH   3   2
ATOM      1  C   UNL     1       2.371   1.497  -1.465  0.00  0.00    +0.158 C 
ATOM      2  C   UNL     1       2.176   0.003  -1.446  0.00  0.00    +0.465 C 
ATOM     47  O   UNL     1       2.847  -0.685  -0.715  0.00  0.00    -0.515 OA
ENDBRANCH   3   2
ENDBRANCH   4   3
BRANCH  20  21
ATOM     21  C   UNL     1      -2.097   0.782  -3.606  0.00  0.00    +0.115 C 
BRANCH  21  22
ATOM     22  C   UNL     1      -2.160   0.597  -5.100  0.00  0.00    +0.466 C 
ATOM     25  O   UNL     1      -3.126   0.074  -5.604  0.00  0.00    -0.510 OA
BRANCH  22  23
ATOM     23  O   UNL     1      -1.144   1.015  -5.872  0.00  0.00    -0.349 OA
ATOM     24  C   UNL     1      -1.322   0.918  -7.286  0.00  0.00    +0.247 C 
ENDBRANCH  22  23
ENDBRANCH  21  22
ENDBRANCH  20  21
BRANCH  32  33
ATOM     33  O   UNL     1      -2.454  -1.562   0.900  0.00  0.00    -0.367 OA
BRANCH  33  34
ATOM     34  C   UNL     1      -3.271  -1.529   2.072  0.00  0.00    +0.152 C 
BRANCH  34  35
ATOM     35  C   UNL     1      -2.454  -2.002   3.277  0.00  0.00    +0.013 C 
BRANCH  35  36
ATOM     36  C   UNL     1      -3.329  -1.967   4.532  0.00  0.00    +0.028 C 
BRANCH  36  37
ATOM     37  C   UNL     1      -2.512  -2.439   5.736  0.00  0.00    -0.070 C 
BRANCH  37  38
ATOM     38  C   UNL     1      -3.373  -2.405   6.972  0.00  0.00    +0.488 C 
ATOM     39  O   UNL     1      -2.910  -2.745   8.047  0.00  0.00    -0.708 OA
ATOM     40  O   UNL     1      -4.533  -2.036   6.897  0.00  0.00    -0.701 OA
ENDBRANCH  37  38
ENDBRANCH  36  37
ENDBRANCH  35  36
ENDBRANCH  34  35
ENDBRANCH  33  34
ENDBRANCH  32  33
TORSDOF 13
