REMARK  Name = ZINC14640942
REMARK  7 active torsions:
REMARK  status: ('A' for Active; 'I' for Inactive)
REMARK    1  A    between atoms: C1_1  and  O1_2
REMARK    2  A    between atoms: O1_2  and  C2_3
REMARK    3  A    between atoms: C9_10  and  C10_11
REMARK    4  A    between atoms: C19_24  and  O7_28
REMARK    5  A    between atoms: C20_25  and  O6_26
REMARK    6  A    between atoms: O6_26  and  C21_27
REMARK    7  A    between atoms: O7_28  and  C22_29
REMARK                            x       y       z     vdW  Elec       q    Type
REMARK                         _______ _______ _______ _____ _____    ______ ____
ROOT
ATOM      3  C   UNL     1      -0.828   2.877   1.323  0.00  0.00    +0.136 A 
ATOM      4  C   UNL     1      -0.335   3.719   0.353  0.00  0.00    -0.045 A 
ATOM      5  C   UNL     1      -0.404   5.109   0.532  0.00  0.00    -0.003 A 
ATOM      6  C   UNL     1      -0.974   5.635   1.718  0.00  0.00    -0.058 A 
ATOM      7  C   UNL     1      -1.468   4.756   2.699  0.00  0.00    +0.123 A 
ATOM     10  C   UNL     1      -1.039   7.030   1.902  0.00  0.00    +0.091 A 
ATOM     11  C   UNL     1      -0.561   7.868   0.952  0.00  0.00    -0.120 A 
ATOM     12  C   UNL     1       0.011   7.374  -0.237  0.00  0.00    -0.172 A 
ATOM     13  C   UNL     1       0.429   8.524  -1.052  0.00  0.00    +0.520 C 
ATOM     14  O   UNL     1       0.140   9.674  -0.419  0.00  0.00    -0.317 OA
ATOM     15  O   UNL     1       0.960   8.446  -2.142  0.00  0.00    -0.437 OA
ATOM     16  C   UNL     1      -0.488   9.373   0.856  0.00  0.00    +0.333 C 
ATOM     17  C   UNL     1       0.093   5.993  -0.453  0.00  0.00    +0.061 A 
ATOM     27  C   UNL     1      -1.392   3.393   2.496  0.00  0.00    +0.079 A 
ENDROOT
BRANCH  17  18
ATOM     18  C   UNL     1       0.691   5.466  -1.697  0.00  0.00    -0.055 A 
ATOM     19  C   UNL     1       1.872   4.722  -1.646  0.00  0.00    +0.052 A 
ATOM     20  C   UNL     1       2.429   4.231  -2.807  0.00  0.00    +0.041 A 
ATOM     21  C   UNL     1       1.819   4.472  -4.030  0.00  0.00    +0.045 A 
ATOM     22  C   UNL     1       0.640   5.215  -4.089  0.00  0.00    +0.038 A 
ATOM     23  O   UNL     1       0.248   5.308  -5.393  0.00  0.00    -0.306 OA
ATOM     24  C   UNL     1       1.412   4.968  -6.169  0.00  0.00    +0.436 C 
ATOM     25  O   UNL     1       2.164   4.103  -5.298  0.00  0.00    -0.307 OA
ATOM     26  C   UNL     1       0.074   5.705  -2.927  0.00  0.00    +0.075 A 
ENDBRANCH  17  18
BRANCH   3   2
ATOM      1  C   UNL     1      -0.177   1.068  -0.075  0.00  0.00    +0.249 C 
ATOM      2  O   UNL     1      -0.763   1.532   1.143  0.00  0.00    -0.298 OA
ENDBRANCH   3   2
BRANCH   7   8
ATOM      8  O   UNL     1      -2.017   5.247   3.842  0.00  0.00    -0.322 OA
ATOM      9  C   UNL     1      -3.433   5.439   3.851  0.00  0.00    +0.242 C 
ENDBRANCH   7   8
BRANCH  27  28
ATOM     28  O   UNL     1      -1.870   2.543   3.445  0.00  0.00    -0.319 OA
ATOM     29  C   UNL     1      -0.949   2.103   4.445  0.00  0.00    +0.237 C 
ENDBRANCH  27  28
TORSDOF 4
