REMARK  Name = ZINC95486308
REMARK  10 active torsions:
REMARK  status: ('A' for Active; 'I' for Inactive)
REMARK    1  A    between atoms: C1_1  and  O1_2
REMARK    2  A    between atoms: O1_2  and  C2_3
REMARK    3  A    between atoms: C4_5  and  C8_10
REMARK    4  A    between atoms: C7_8  and  O2_9
REMARK    5  A    between atoms: C9_11  and  C10_12
REMARK    6  A    between atoms: C10_12  and  O4_14
REMARK    7  A    between atoms: O4_14  and  C11_15
REMARK    8  A    between atoms: C11_15  and  C12_16
REMARK    9  A    between atoms: C12_16  and  C13_17
REMARK   10  A    between atoms: C13_17  and  O5_18
REMARK                            x       y       z     vdW  Elec       q    Type
REMARK                         _______ _______ _______ _____ _____    ______ ____
ROOT
ATOM      3  C   UNL     1       0.606  -0.608  -1.056  0.00  0.00    +0.100 A 
ATOM      4  C   UNL     1       1.170   0.158  -2.058  0.00  0.00    -0.026 A 
ATOM      5  C   UNL     1       1.791  -0.467  -3.146  0.00  0.00    -0.057 A 
ATOM     16  C   UNL     1       1.837  -1.864  -3.212  0.00  0.00    +0.026 A 
ATOM     17  C   UNL     1       1.272  -2.620  -2.209  0.00  0.00    +0.033 A 
ATOM     18  C   UNL     1       0.661  -1.999  -1.127  0.00  0.00    +0.096 A 
ENDROOT
BRANCH   3   2
ATOM      1  C   UNL     1      -0.017   1.425   0.010  0.00  0.00    +0.243 C 
ATOM      2  O   UNL     1       0.002  -0.004   0.002  0.00  0.00    -0.306 OA
ENDBRANCH   3   2
BRANCH   5   6
ATOM      6  C   UNL     1       2.393   0.342  -4.215  0.00  0.00    +0.153 C 
ATOM      7  C   UNL     1       2.992  -0.263  -5.264  0.00  0.00    -0.060 C 
BRANCH   7   8
ATOM      8  C   UNL     1       3.572   0.518  -6.295  0.00  0.00    +0.503 C 
ATOM     15  O   UNL     1       3.531   1.732  -6.236  0.00  0.00    -0.513 OA
BRANCH   8   9
ATOM      9  O   UNL     1       4.171  -0.087  -7.343  0.00  0.00    -0.348 OA
BRANCH   9  10
ATOM     10  C   UNL     1       4.734   0.761  -8.346  0.00  0.00    +0.213 C 
BRANCH  10  11
ATOM     11  C   UNL     1       5.363  -0.097  -9.445  0.00  0.00    +0.043 C 
BRANCH  11  12
ATOM     12  C   UNL     1       5.967   0.811 -10.519  0.00  0.00    +0.181 C 
BRANCH  12  13
ATOM     13  O   UNL     1       6.554   0.009 -11.545  0.00  0.00    -0.572 OA
ATOM     14  H   UNL     1       6.957   0.519 -12.261  0.00  0.00    +0.385 HD
ENDBRANCH  12  13
ENDBRANCH  11  12
ENDBRANCH  10  11
ENDBRANCH   9  10
ENDBRANCH   8   9
ENDBRANCH   7   8
ENDBRANCH   5   6
BRANCH  18  19
ATOM     19  O   UNL     1       0.110  -2.750  -0.139  0.00  0.00    -0.485 OA
ATOM     20  H   UNL     1      -0.819  -2.975  -0.286  0.00  0.00    +0.392 HD
ENDBRANCH  18  19
TORSDOF 9
