REMARK  Name = ZINC95486358
REMARK  13 active torsions:
REMARK  status: ('A' for Active; 'I' for Inactive)
REMARK    1  A    between atoms: C1_1  and  O1_2
REMARK    2  A    between atoms: O1_2  and  C2_3
REMARK    3  A    between atoms: C3_4  and  O12_40
REMARK    4  A    between atoms: C7_8  and  O2_9
REMARK    5  A    between atoms: C10_14  and  O9_36
REMARK    6  A    between atoms: C11_16  and  O8_35
REMARK    7  A    between atoms: C12_18  and  C13_21
REMARK    8  A    between atoms: C13_21  and  O4_22
REMARK    9  A    between atoms: O4_22  and  C14_23
REMARK   10  A    between atoms: C14_23  and  C15_25
REMARK   11  A    between atoms: C16_26  and  C17_27
REMARK   12  A    between atoms: C20_30  and  O7_34
REMARK   13  A    between atoms: C21_31  and  O6_33
REMARK                            x       y       z     vdW  Elec       q    Type
REMARK                         _______ _______ _______ _____ _____    ______ ____
ROOT
ATOM      3  C   UNL     1       0.626  -0.618   1.041  0.00  0.00    +0.081 A 
ATOM      4  C   UNL     1       1.985  -0.909   0.961  0.00  0.00    +0.103 A 
ATOM      7  C   UNL     1       2.622  -1.537   2.015  0.00  0.00    +0.088 A 
ATOM      8  C   UNL     1       1.900  -1.875   3.160  0.00  0.00    -0.138 A 
ATOM      9  C   UNL     1       0.534  -1.577   3.242  0.00  0.00    -0.070 A 
ATOM     10  C   UNL     1      -0.224  -1.932   4.488  0.00  0.00    +0.211 C 
ATOM     11  C   UNL     1       0.481  -3.080   5.213  0.00  0.00    +0.172 C 
ATOM     12  O   UNL     1       1.843  -2.722   5.449  0.00  0.00    -0.328 OA
ATOM     13  C   UNL     1      -0.251  -3.353   6.527  0.00  0.00    +0.172 C 
ATOM     16  C   UNL     1      -1.711  -3.694   6.202  0.00  0.00    +0.138 C 
ATOM     19  C   UNL     1      -2.340  -2.561   5.389  0.00  0.00    +0.195 C 
ATOM     36  O   UNL     1      -1.562  -2.331   4.207  0.00  0.00    -0.335 OA
ATOM     37  C   UNL     1       2.565  -2.555   4.293  0.00  0.00    +0.528 C 
ATOM     38  O   UNL     1       3.713  -2.945   4.207  0.00  0.00    -0.424 OA
ATOM     39  C   UNL     1      -0.096  -0.949   2.186  0.00  0.00    +0.131 A 
ENDROOT
BRANCH   3   2
ATOM      1  C   UNL     1      -0.017   1.425   0.010  0.00  0.00    +0.239 C 
ATOM      2  O   UNL     1       0.002  -0.004   0.002  0.00  0.00    -0.319 OA
ENDBRANCH   3   2
BRANCH   4   5
ATOM      5  O   UNL     1       2.687  -0.576  -0.156  0.00  0.00    -0.477 OA
ATOM      6  H   UNL     1       3.079   0.307  -0.125  0.00  0.00    +0.395 HD
ENDBRANCH   4   5
BRANCH  13  14
ATOM     14  O   UNL     1       0.363  -4.452   7.202  0.00  0.00    -0.542 OA
ATOM     15  H   UNL     1      -0.053  -4.679   8.045  0.00  0.00    +0.385 HD
ENDBRANCH  13  14
BRANCH  16  17
ATOM     17  O   UNL     1      -2.441  -3.865   7.418  0.00  0.00    -0.547 OA
ATOM     18  H   UNL     1      -2.101  -4.572   7.984  0.00  0.00    +0.388 HD
ENDBRANCH  16  17
BRANCH  39  40
ATOM     40  O   UNL     1      -1.422  -0.659   2.261  0.00  0.00    -0.469 OA
ATOM     41  H   UNL     1      -1.998  -1.363   1.933  0.00  0.00    +0.402 HD
ENDBRANCH  39  40
BRANCH  19  20
ATOM     20  C   UNL     1      -3.763  -2.954   4.988  0.00  0.00    +0.260 C 
BRANCH  20  21
ATOM     21  O   UNL     1      -4.393  -1.854   4.329  0.00  0.00    -0.340 OA
BRANCH  21  22
ATOM     22  C   UNL     1      -5.662  -2.037   3.908  0.00  0.00    +0.504 C 
ATOM     35  O   UNL     1      -6.217  -3.103   4.096  0.00  0.00    -0.512 OA
BRANCH  22  23
ATOM     23  C   UNL     1      -6.348  -0.987   3.247  0.00  0.00    -0.062 C 
ATOM     24  C   UNL     1      -7.619  -1.171   2.826  0.00  0.00    +0.156 C 
BRANCH  24  25
ATOM     25  C   UNL     1      -8.330  -0.083   2.141  0.00  0.00    -0.080 A 
ATOM     26  C   UNL     1      -7.691   1.143   1.918  0.00  0.00    +0.056 A 
ATOM     27  C   UNL     1      -8.361   2.161   1.276  0.00  0.00    +0.007 A 
ATOM     28  C   UNL     1      -9.668   1.976   0.847  0.00  0.00    +0.101 A 
ATOM     31  C   UNL     1     -10.312   0.757   1.065  0.00  0.00    +0.077 A 
ATOM     34  C   UNL     1      -9.646  -0.271   1.703  0.00  0.00    +0.043 A 
BRANCH  28  29
ATOM     29  O   UNL     1     -10.323   2.983   0.215  0.00  0.00    -0.486 OA
ATOM     30  H   UNL     1     -10.216   2.980  -0.746  0.00  0.00    +0.392 HD
ENDBRANCH  28  29
BRANCH  31  32
ATOM     32  O   UNL     1     -11.592   0.580   0.644  0.00  0.00    -0.485 OA
ATOM     33  H   UNL     1     -11.666   0.234  -0.256  0.00  0.00    +0.390 HD
ENDBRANCH  31  32
ENDBRANCH  24  25
ENDBRANCH  22  23
ENDBRANCH  21  22
ENDBRANCH  20  21
ENDBRANCH  19  20
TORSDOF 12
