REMARK  Name = ZINC38658035
REMARK  12 active torsions:
REMARK  status: ('A' for Active; 'I' for Inactive)
REMARK    1  A    between atoms: C1_1  and  C2_2
REMARK    2  A    between atoms: C2_2  and  C3_3
REMARK    3  A    between atoms: C2_2  and  C4_4
REMARK    4  A    between atoms: C10_10  and  C19_21
REMARK    5  A    between atoms: C10_10  and  C20_22
REMARK    6  A    between atoms: C14_14  and  C18_20
REMARK    7  A    between atoms: C16_16  and  O2_19
REMARK    8  A    between atoms: C20_22  and  O3_23
REMARK    9  A    between atoms: O3_23  and  C21_24
REMARK   10  A    between atoms: C21_24  and  C22_26
REMARK   11  A    between atoms: C25_29  and  O6_33
REMARK   12  A    between atoms: C26_30  and  O5_32
REMARK                            x       y       z     vdW  Elec       q    Type
REMARK                         _______ _______ _______ _____ _____    ______ ____
ROOT
ATOM      3  C   UNL     1      -0.234  -1.496   1.117  0.00  0.00    -0.192 C 
ATOM      4  C   UNL     1      -0.674  -2.155   2.218  0.00  0.00    +0.109 C 
ATOM      5  C   UNL     1       0.204  -2.387   3.303  0.00  0.00    -0.108 C 
ATOM      6  C   UNL     1      -0.245  -3.054   4.443  0.00  0.00    +0.142 C 
ATOM      7  C   UNL     1       0.571  -3.285   5.556  0.00  0.00    -0.032 C 
ATOM      8  C   UNL     1       1.854  -2.906   5.591  0.00  0.00    -0.018 C 
ATOM      9  C   UNL     1       2.705  -3.111   6.818  0.00  0.00    -0.021 C 
ATOM     24  C   UNL     1       1.841  -3.640   7.964  0.00  0.00    +0.056 C 
ATOM     25  C   UNL     1       3.315  -1.760   7.212  0.00  0.00    +0.045 C 
ATOM     26  C   UNL     1       4.032  -1.154   6.004  0.00  0.00    +0.012 C 
ATOM     27  C   UNL     1       3.032  -0.895   4.875  0.00  0.00    +0.046 C 
ATOM     28  C   UNL     1       2.466  -2.227   4.383  0.00  0.00    +0.010 C 
ATOM     29  C   UNL     1       3.631  -3.086   3.888  0.00  0.00    +0.059 C 
ATOM     30  C   UNL     1       1.547  -1.940   3.220  0.00  0.00    -0.053 C 
ATOM     31  C   UNL     1       1.986  -1.280   2.123  0.00  0.00    +0.020 C 
ATOM     34  C   UNL     1       1.099  -1.045   1.043  0.00  0.00    +0.388 C 
ATOM     35  O   UNL     1       1.489  -0.449   0.049  0.00  0.00    -0.470 OA
ENDROOT
BRANCH   3   2
ATOM      1  C   UNL     1      -1.302   0.257  -0.274  0.00  0.00    +0.028 C 
ATOM      2  C   UNL     1      -1.174  -1.248  -0.034  0.00  0.00    +0.038 C 
ATOM     36  C   UNL     1      -0.624  -1.920  -1.294  0.00  0.00    +0.028 C 
ENDBRANCH   3   2
BRANCH  31  32
ATOM     32  O   UNL     1       3.274  -0.849   2.056  0.00  0.00    -0.459 OA
ATOM     33  H   UNL     1       3.492  -0.389   1.234  0.00  0.00    +0.400 HD
ENDBRANCH  31  32
BRANCH   9  10
ATOM     10  C   UNL     1       3.822  -4.111   6.509  0.00  0.00    +0.230 C 
BRANCH  10  11
ATOM     11  O   UNL     1       4.535  -4.415   7.710  0.00  0.00    -0.341 OA
BRANCH  11  12
ATOM     12  C   UNL     1       5.557  -5.287   7.611  0.00  0.00    +0.511 C 
ATOM     23  O   UNL     1       5.836  -5.775   6.534  0.00  0.00    -0.498 OA
BRANCH  12  13
ATOM     13  C   UNL     1       6.338  -5.648   8.809  0.00  0.00    -0.121 A 
ATOM     14  C   UNL     1       6.014  -5.091  10.049  0.00  0.00    +0.096 A 
ATOM     15  C   UNL     1       6.745  -5.429  11.167  0.00  0.00    +0.001 A 
ATOM     16  C   UNL     1       7.802  -6.323  11.066  0.00  0.00    +0.122 A 
ATOM     19  C   UNL     1       8.131  -6.882   9.831  0.00  0.00    +0.071 A 
ATOM     22  C   UNL     1       7.399  -6.552   8.707  0.00  0.00    +0.085 A 
BRANCH  16  17
ATOM     17  O   UNL     1       8.519  -6.653  12.171  0.00  0.00    -0.485 OA
ATOM     18  H   UNL     1       8.174  -7.420  12.648  0.00  0.00    +0.396 HD
ENDBRANCH  16  17
BRANCH  19  20
ATOM     20  O   UNL     1       9.168  -7.757   9.735  0.00  0.00    -0.481 OA
ATOM     21  H   UNL     1       8.916  -8.681   9.864  0.00  0.00    +0.391 HD
ENDBRANCH  19  20
ENDBRANCH  12  13
ENDBRANCH  11  12
ENDBRANCH  10  11
ENDBRANCH   9  10
TORSDOF 8
