REMARK  Name = ZINC95486099
REMARK  2 active torsions:
REMARK  status: ('A' for Active; 'I' for Inactive)
REMARK    1  A    between atoms: C2_2  and  C3_3
REMARK    2  A    between atoms: C12_17  and  O3_19
REMARK                            x       y       z     vdW  Elec       q    Type
REMARK                         _______ _______ _______ _____ _____    ______ ____
ROOT
ATOM      3  C   UNL     1      -1.240  -0.856  -0.050  0.00  0.00    -0.048 C 
ATOM      4  C   UNL     1      -1.289  -1.739   1.199  0.00  0.00    +0.269 C 
ATOM      5  O   UNL     1      -0.106  -2.540   1.277  0.00  0.00    -0.350 OA
ATOM      6  C   UNL     1       0.133  -3.338   0.204  0.00  0.00    +0.523 C 
ATOM      7  C   UNL     1      -0.014  -2.706  -1.129  0.00  0.00    -0.213 C 
ATOM      8  C   UNL     1       0.835  -2.961  -2.122  0.00  0.00    +0.176 C 
ATOM      9  O   UNL     1       0.449  -4.505   0.330  0.00  0.00    -0.438 OA
ATOM     10  C   UNL     1      -2.464   0.052  -0.070  0.00  0.00    +0.197 C 
ATOM     13  C   UNL     1      -3.750  -0.715  -0.282  0.00  0.00    +0.025 C 
ATOM     14  C   UNL     1      -3.621  -1.497  -1.576  0.00  0.00    +0.034 C 
ATOM     15  C   UNL     1      -4.744  -2.441  -1.924  0.00  0.00    -0.222 C 
ATOM     16  C   UNL     1      -4.043  -3.628  -2.485  0.00  0.00    +0.507 C 
ATOM     17  O   UNL     1      -2.691  -3.420  -2.442  0.00  0.00    -0.319 OA
ATOM     18  O   UNL     1      -4.587  -4.628  -2.913  0.00  0.00    -0.436 OA
ATOM     19  C   UNL     1      -6.052  -2.256  -1.767  0.00  0.00    +0.193 C 
ATOM     20  C   UNL     1      -2.477  -2.530  -1.355  0.00  0.00    +0.156 C 
ATOM     21  C   UNL     1      -1.180  -1.752  -1.302  0.00  0.00    +0.105 C 
ENDROOT
BRANCH   3   2
ATOM      1  C   UNL     1       0.747   0.004   1.080  0.00  0.00    +0.034 C 
ATOM      2  C   UNL     1       0.002  -0.004   0.002  0.00  0.00    -0.021 C 
ENDBRANCH   3   2
BRANCH  10  11
ATOM     11  O   UNL     1      -2.325   0.998  -1.133  0.00  0.00    -0.556 OA
ATOM     12  H   UNL     1      -3.066   1.614  -1.211  0.00  0.00    +0.384 HD
ENDBRANCH  10  11
TORSDOF 2
