REMARK  Name = ZINC90711737
REMARK  10 active torsions:
REMARK  status: ('A' for Active; 'I' for Inactive)
REMARK    1  A    between atoms: C3_3  and  O11_35
REMARK    2  A    between atoms: C4_4  and  O10_34
REMARK    3  A    between atoms: C6_6  and  C7_7
REMARK    4  A    between atoms: C8_8  and  O5_20
REMARK    5  A    between atoms: C11_12  and  O4_19
REMARK    6  A    between atoms: C13_14  and  O3_18
REMARK    7  A    between atoms: O5_20  and  C16_21
REMARK    8  A    between atoms: C17_23  and  O9_33
REMARK    9  A    between atoms: C18_25  and  O8_32
REMARK   10  A    between atoms: C19_27  and  O7_31
REMARK                            x       y       z     vdW  Elec       q    Type
REMARK                         _______ _______ _______ _____ _____    ______ ____
ROOT
ATOM     11  C   UNL     1      -1.174  -0.685  -0.085  0.00  0.00    +0.193 A 
ATOM     12  C   UNL     1      -2.370  -0.070   0.133  0.00  0.00    -0.080 A 
ATOM     26  C   UNL     1      -3.544  -0.855   0.270  0.00  0.00    +0.406 A 
ATOM     27  C   UNL     1      -3.398  -2.316   0.167  0.00  0.00    -0.262 A 
ATOM     28  C   UNL     1      -4.503  -3.167   0.290  0.00  0.00    +0.222 A 
ATOM     31  C   UNL     1      -4.325  -4.534   0.186  0.00  0.00    -0.052 A 
ATOM     32  C   UNL     1      -3.056  -5.058  -0.038  0.00  0.00    +0.195 A 
ATOM     35  C   UNL     1      -1.958  -4.222  -0.160  0.00  0.00    -0.026 A 
ATOM     36  C   UNL     1      -2.116  -2.848  -0.060  0.00  0.00    +0.180 A 
ATOM     37  O   UNL     1      -4.633  -0.339   0.466  0.00  0.00    -0.433 OA
ATOM     38  O   UNL     1      -1.058  -2.021  -0.183  0.00  0.00    -0.203 OA
ENDROOT
BRANCH  11  10
ATOM      1  C   UNL     1       1.194  -0.178   0.487  0.00  0.00    +0.072 A 
ATOM      2  C   UNL     1       2.325   0.600   0.355  0.00  0.00    +0.007 A 
ATOM      3  C   UNL     1       2.317   1.704  -0.486  0.00  0.00    +0.109 A 
ATOM      6  C   UNL     1       1.166   2.032  -1.201  0.00  0.00    +0.079 A 
ATOM      9  C   UNL     1       0.029   1.257  -1.073  0.00  0.00    +0.074 A 
ATOM     10  C   UNL     1       0.037   0.145  -0.226  0.00  0.00    -0.054 A 
BRANCH   3   4
ATOM      4  O   UNL     1       3.434   2.467  -0.612  0.00  0.00    -0.485 OA
ATOM      5  H   UNL     1       4.028   2.180  -1.319  0.00  0.00    +0.392 HD
ENDBRANCH   3   4
BRANCH   6   7
ATOM      7  O   UNL     1       1.162   3.115  -2.023  0.00  0.00    -0.481 OA
ATOM      8  H   UNL     1       1.432   2.920  -2.931  0.00  0.00    +0.389 HD
ENDBRANCH   6   7
ENDBRANCH  11  10
BRANCH  28  29
ATOM     29  O   UNL     1      -5.741  -2.654   0.509  0.00  0.00    -0.472 OA
ATOM     30  H   UNL     1      -6.233  -2.457  -0.299  0.00  0.00    +0.404 HD
ENDBRANCH  28  29
BRANCH  32  33
ATOM     33  O   UNL     1      -2.892  -6.402  -0.137  0.00  0.00    -0.487 OA
ATOM     34  H   UNL     1      -2.979  -6.743  -1.038  0.00  0.00    +0.405 HD
ENDBRANCH  32  33
BRANCH  12  13
ATOM     13  O   UNL     1      -2.438   1.287   0.219  0.00  0.00    -0.276 OA
BRANCH  13  14
ATOM     14  C   UNL     1      -2.806   1.839   1.484  0.00  0.00    +0.310 C 
ATOM     15  C   UNL     1      -3.103   3.332   1.323  0.00  0.00    +0.204 C 
ATOM     18  C   UNL     1      -3.439   3.929   2.693  0.00  0.00    +0.205 C 
ATOM     21  C   UNL     1      -2.272   3.669   3.651  0.00  0.00    +0.118 C 
ATOM     24  C   UNL     1      -2.006   2.163   3.722  0.00  0.00    +0.216 C 
ATOM     25  O   UNL     1      -1.732   1.666   2.411  0.00  0.00    -0.389 OA
BRANCH  15  16
ATOM     16  O   UNL     1      -4.214   3.505   0.441  0.00  0.00    -0.542 OA
ATOM     17  H   UNL     1      -4.072   3.145  -0.446  0.00  0.00    +0.386 HD
ENDBRANCH  15  16
BRANCH  18  19
ATOM     19  O   UNL     1      -4.624   3.316   3.204  0.00  0.00    -0.541 OA
ATOM     20  H   UNL     1      -4.854   3.593   4.102  0.00  0.00    +0.381 HD
ENDBRANCH  18  19
BRANCH  21  22
ATOM     22  O   UNL     1      -1.103   4.338   3.172  0.00  0.00    -0.548 OA
ATOM     23  H   UNL     1      -0.324   4.217   3.731  0.00  0.00    +0.386 HD
ENDBRANCH  21  22
ENDBRANCH  13  14
ENDBRANCH  12  13
TORSDOF 10
