REMARK  Name = ZINC06524916
REMARK  2 active torsions:
REMARK  status: ('A' for Active; 'I' for Inactive)
REMARK    1  A    between atoms: C3_3  and  O4_17
REMARK    2  A    between atoms: C10_11  and  O3_16
REMARK                            x       y       z     vdW  Elec       q    Type
REMARK                         _______ _______ _______ _____ _____    ______ ____
ROOT
ATOM      1  C   UNL     1       2.404   0.058  -0.021  0.00  0.00    +0.147 A 
ATOM      2  C   UNL     1       2.389   1.442  -0.013  0.00  0.00    -0.067 A 
ATOM      3  C   UNL     1       1.183   2.123   0.002  0.00  0.00    +0.267 A 
ATOM      6  C   UNL     1      -0.017   1.400   0.010  0.00  0.00    -0.340 A 
ATOM      7  C   UNL     1       0.002  -0.004   0.002  0.00  0.00    +0.211 A 
ATOM      8  O   UNL     1      -1.144  -0.715   0.009  0.00  0.00    -0.226 OA
ATOM      9  C   UNL     1      -2.370  -0.152   0.023  0.00  0.00    +0.126 A 
ATOM     10  C   UNL     1      -3.504  -0.959   0.029  0.00  0.00    +0.052 A 
ATOM     11  C   UNL     1      -4.759  -0.391   0.044  0.00  0.00    +0.061 A 
ATOM     12  C   UNL     1      -4.912   0.992   0.053  0.00  0.00    +0.131 A 
ATOM     15  C   UNL     1      -3.799   1.811   0.047  0.00  0.00    +0.020 A 
ATOM     16  C   UNL     1      -2.525   1.243   0.032  0.00  0.00    -0.188 A 
ATOM     17  C   UNL     1      -1.317   2.094   0.032  0.00  0.00    +0.454 A 
ATOM     18  O   UNL     1      -1.392   3.309   0.040  0.00  0.00    -0.470 OA
ATOM     19  C   UNL     1       1.227  -0.662  -0.013  0.00  0.00    -0.054 A 
ENDROOT
BRANCH   3   4
ATOM      4  O   UNL     1       1.163   3.479   0.010  0.00  0.00    -0.505 OA
ATOM      5  H   UNL     1       0.203   4.016   0.022  0.00  0.00    +0.447 HD
ENDBRANCH   3   4
BRANCH  12  13
ATOM     13  O   UNL     1      -6.157   1.538   0.067  0.00  0.00    -0.505 OA
ATOM     14  H   UNL     1      -6.279   2.631   0.074  0.00  0.00    +0.441 HD
ENDBRANCH  12  13
TORSDOF 2
