REMARK  Name = ZINC34181679
REMARK  8 active torsions:
REMARK  status: ('A' for Active; 'I' for Inactive)
REMARK    1  A    between atoms: C1_1  and  C2_2
REMARK    2  A    between atoms: C2_2  and  C3_3
REMARK    3  A    between atoms: C3_3  and  O1_4
REMARK    4  A    between atoms: O1_4  and  C4_5
REMARK    5  A    between atoms: C4_5  and  C5_7
REMARK    6  A    between atoms: C6_8  and  C7_9
REMARK    7  A    between atoms: C10_12  and  O4_16
REMARK    8  A    between atoms: C11_13  and  O3_15
REMARK                            x       y       z     vdW  Elec       q    Type
REMARK                         _______ _______ _______ _____ _____    ______ ____
ROOT
ATOM      8  C   UNL     1       2.051  -6.006  -3.514  0.00  0.00    -0.080 A 
ATOM      9  C   UNL     1       1.479  -6.784  -2.500  0.00  0.00    +0.054 A 
ATOM     10  C   UNL     1       1.535  -8.158  -2.573  0.00  0.00    +0.007 A 
ATOM     11  C   UNL     1       2.157  -8.775  -3.650  0.00  0.00    +0.101 A 
ATOM     14  C   UNL     1       2.728  -8.008  -4.664  0.00  0.00    +0.078 A 
ATOM     17  C   UNL     1       2.672  -6.629  -4.602  0.00  0.00    +0.043 A 
ENDROOT
BRANCH   8   7
ATOM      6  C   UNL     1       1.393  -3.940  -2.387  0.00  0.00    -0.063 C 
ATOM      7  C   UNL     1       1.993  -4.539  -3.439  0.00  0.00    +0.154 C 
BRANCH   6   5
ATOM      5  C   UNL     1       1.337  -2.525  -2.315  0.00  0.00    +0.501 C 
ATOM     18  O   UNL     1       1.830  -1.851  -3.200  0.00  0.00    -0.514 OA
BRANCH   5   4
ATOM      4  O   UNL     1       0.738  -1.926  -1.265  0.00  0.00    -0.351 OA
BRANCH   4   3
ATOM      3  C   UNL     1       0.718  -0.498  -1.257  0.00  0.00    +0.201 C 
BRANCH   3   2
ATOM      1  C   UNL     1      -0.019   1.526   0.010  0.00  0.00    +0.032 C 
ATOM      2  C   UNL     1       0.002  -0.004   0.002  0.00  0.00    +0.025 C 
ENDBRANCH   3   2
ENDBRANCH   4   3
ENDBRANCH   5   4
ENDBRANCH   6   5
ENDBRANCH   8   7
BRANCH  11  12
ATOM     12  O   UNL     1       2.209 -10.131  -3.716  0.00  0.00    -0.486 OA
ATOM     13  H   UNL     1       1.456 -10.531  -4.173  0.00  0.00    +0.392 HD
ENDBRANCH  11  12
BRANCH  14  15
ATOM     15  O   UNL     1       3.336  -8.616  -5.718  0.00  0.00    -0.485 OA
ATOM     16  H   UNL     1       2.744  -8.800  -6.460  0.00  0.00    +0.390 HD
ENDBRANCH  14  15
TORSDOF 7
