REMARK  Name = ZINC95485995
REMARK  13 active torsions:
REMARK  status: ('A' for Active; 'I' for Inactive)
REMARK    1  A    between atoms: C1_1  and  C2_2
REMARK    2  A    between atoms: C6_8  and  C27_35
REMARK    3  A    between atoms: C6_8  and  C28_36
REMARK    4  A    between atoms: C7_9  and  C25_32
REMARK    5  A    between atoms: C8_11  and  C21_28
REMARK    6  A    between atoms: C8_11  and  C22_29
REMARK    7  A    between atoms: C9_12  and  O1_17
REMARK    8  A    between atoms: O1_17  and  C12_18
REMARK    9  A    between atoms: C12_18  and  C13_20
REMARK   10  A    between atoms: C14_21  and  C15_22
REMARK   11  A    between atoms: C22_29  and  C23_30
REMARK   12  A    between atoms: C22_29  and  C24_31
REMARK   13  A    between atoms: C25_32  and  C26_34
REMARK                            x       y       z     vdW  Elec       q    Type
REMARK                         _______ _______ _______ _____ _____    ______ ____
ROOT
ATOM      1  C   UNL     1      -0.808  -2.757  -2.782  0.00  0.00    +0.017 C 
ATOM      2  C   UNL     1      -0.300  -3.672  -1.667  0.00  0.00    -0.026 C 
ATOM      3  C   UNL     1       1.022  -4.351  -2.085  0.00  0.00    +0.015 C 
ATOM      4  C   UNL     1       1.673  -4.741  -0.727  0.00  0.00    +0.000 C 
ATOM      5  C   UNL     1       3.132  -4.913  -0.935  0.00  0.00    +0.034 C 
ATOM      6  C   UNL     1       4.026  -5.263   0.214  0.00  0.00    -0.033 C 
ATOM      7  C   UNL     1       5.351  -5.784  -0.407  0.00  0.00    +0.016 C 
ATOM      8  C   UNL     1       3.431  -6.449   0.985  0.00  0.00    +0.021 C 
ATOM      9  C   UNL     1       4.400  -4.160   1.137  0.00  0.00    -0.004 C 
ATOM     13  C   UNL     1       3.310  -3.312   1.738  0.00  0.00    -0.029 C 
ATOM     17  C   UNL     1       2.643  -4.041   2.906  0.00  0.00    +0.047 C 
ATOM     18  C   UNL     1       2.273  -2.762   0.830  0.00  0.00    +0.214 C 
ATOM     30  C   UNL     1       1.240  -3.667   0.241  0.00  0.00    -0.028 C 
ATOM     31  C   UNL     1       0.105  -2.851  -0.419  0.00  0.00    +0.017 C 
ENDROOT
BRANCH   9  10
ATOM     10  C   UNL     1       5.233  -4.738   2.266  0.00  0.00    +0.356 C 
ATOM     11  C   UNL     1       6.732  -4.579   2.254  0.00  0.00    +0.056 C 
ATOM     12  O   UNL     1       4.696  -5.324   3.174  0.00  0.00    -0.443 OA
ENDBRANCH   9  10
BRANCH  13  14
ATOM     14  C   UNL     1       4.017  -2.083   2.365  0.00  0.00    -0.029 C 
ATOM     15  C   UNL     1       2.985  -1.216   3.089  0.00  0.00    +0.021 C 
ATOM     16  C   UNL     1       4.688  -1.263   1.261  0.00  0.00    +0.022 C 
ENDBRANCH  13  14
BRANCH  18  19
ATOM     19  O   UNL     1       2.929  -2.072  -0.237  0.00  0.00    -0.336 OA
BRANCH  19  20
ATOM     20  C   UNL     1       2.415  -0.880  -0.604  0.00  0.00    +0.488 C 
ATOM     29  O   UNL     1       1.442  -0.434  -0.026  0.00  0.00    -0.486 OA
BRANCH  20  21
ATOM     21  C   UNL     1       3.027  -0.124  -1.696  0.00  0.00    -0.055 C 
ATOM     22  C   UNL     1       2.601   1.125  -1.974  0.00  0.00    +0.139 C 
BRANCH  22  23
ATOM     23  C   UNL     1       1.693   1.817  -1.044  0.00  0.00    -0.084 A 
ATOM     24  C   UNL     1       1.937   1.782   0.333  0.00  0.00    +0.067 A 
ATOM     25  C   UNL     1       1.082   2.433   1.197  0.00  0.00    -0.010 A 
ATOM     26  C   UNL     1      -0.015   3.118   0.705  0.00  0.00    +0.016 A 
ATOM     27  C   UNL     1      -0.263   3.157  -0.656  0.00  0.00    -0.010 A 
ATOM     28  C   UNL     1       0.586   2.516  -1.534  0.00  0.00    +0.027 A 
ENDBRANCH  22  23
ENDBRANCH  20  21
ENDBRANCH  19  20
ENDBRANCH  18  19
TORSDOF 6
