REMARK  Name = ZINC05922776
REMARK  9 active torsions:
REMARK  status: ('A' for Active; 'I' for Inactive)
REMARK    1  A    between atoms: C1_1  and  C2_2
REMARK    2  A    between atoms: C4_4  and  O8_31
REMARK    3  A    between atoms: C7_7  and  C8_8
REMARK    4  A    between atoms: C9_9  and  O4_19
REMARK    5  A    between atoms: C11_11  and  O3_18
REMARK    6  A    between atoms: C12_12  and  C14_15
REMARK    7  A    between atoms: C13_13  and  O1_14
REMARK    8  A    between atoms: C14_15  and  C15_17
REMARK    9  A    between atoms: C21_26  and  O7_30
REMARK                            x       y       z     vdW  Elec       q    Type
REMARK                         _______ _______ _______ _____ _____    ______ ____
ROOT
ATOM      1  C   UNL     1      -2.224  -4.443  -0.091  0.00  0.00    +0.111 C 
ATOM      2  C   UNL     1      -0.856  -5.074  -0.040  0.00  0.00    -0.040 A 
ATOM      3  C   UNL     1      -0.736  -6.444  -0.031  0.00  0.00    +0.020 A 
ATOM      4  C   UNL     1       0.521  -7.046   0.017  0.00  0.00    +0.173 A 
ATOM      7  C   UNL     1       1.673  -6.257   0.057  0.00  0.00    -0.154 A 
ATOM      8  C   UNL     1       1.558  -4.853   0.043  0.00  0.00    -0.074 A 
ATOM      9  C   UNL     1       2.764  -4.013   0.090  0.00  0.00    +0.431 C 
ATOM     10  C   UNL     1       4.099  -4.644   0.141  0.00  0.00    -0.102 A 
ATOM     11  C   UNL     1       5.246  -3.858   0.180  0.00  0.00    +0.068 A 
ATOM     12  C   UNL     1       6.495  -4.455   0.226  0.00  0.00    +0.063 A 
ATOM     13  C   UNL     1       6.615  -5.830   0.235  0.00  0.00    +0.017 A 
ATOM     14  C   UNL     1       5.482  -6.636   0.197  0.00  0.00    +0.162 A 
ATOM     17  C   UNL     1       4.214  -6.047   0.149  0.00  0.00    -0.152 A 
ATOM     18  O   UNL     1       2.664  -2.801   0.083  0.00  0.00    -0.406 OA
ATOM     19  C   UNL     1       3.004  -6.887   0.108  0.00  0.00    +0.431 C 
ATOM     20  O   UNL     1       3.104  -8.100   0.116  0.00  0.00    -0.401 OA
ATOM     21  C   UNL     1       0.285  -4.263   0.000  0.00  0.00    +0.004 A 
ENDROOT
BRANCH  21  22
ATOM     22  C   UNL     1       0.149  -2.792  -0.010  0.00  0.00    -0.095 A 
ATOM     23  C   UNL     1       0.040  -2.088   1.200  0.00  0.00    +0.176 A 
ATOM     26  C   UNL     1      -0.088  -0.708   1.196  0.00  0.00    -0.028 A 
ATOM     27  C   UNL     1      -0.109  -0.010   0.001  0.00  0.00    +0.176 A 
ATOM     30  C   UNL     1      -0.006  -0.701  -1.222  0.00  0.00    -0.215 A 
ATOM     34  C   UNL     1       0.129  -2.099  -1.223  0.00  0.00    +0.192 A 
BRANCH  30  31
ATOM     31  C   UNL     1      -0.034   0.035  -2.485  0.00  0.00    +0.416 C 
ATOM     32  C   UNL     1      -1.347   0.298  -3.175  0.00  0.00    +0.080 C 
ATOM     33  O   UNL     1       1.002   0.433  -2.978  0.00  0.00    -0.439 OA
ENDBRANCH  30  31
BRANCH  23  24
ATOM     24  O   UNL     1       0.058  -2.761   2.376  0.00  0.00    -0.484 OA
ATOM     25  H   UNL     1      -0.815  -3.038   2.685  0.00  0.00    +0.396 HD
ENDBRANCH  23  24
BRANCH  27  28
ATOM     28  O   UNL     1      -0.235   1.339   0.008  0.00  0.00    -0.491 OA
ATOM     29  H   UNL     1       0.607   1.813   0.042  0.00  0.00    +0.403 HD
ENDBRANCH  27  28
BRANCH  34  35
ATOM     35  O   UNL     1       0.235  -2.773  -2.394  0.00  0.00    -0.480 OA
ATOM     36  H   UNL     1      -0.613  -3.050  -2.766  0.00  0.00    +0.394 HD
ENDBRANCH  34  35
ENDBRANCH  21  22
BRANCH   4   5
ATOM      5  O   UNL     1       0.625  -8.398   0.025  0.00  0.00    -0.474 OA
ATOM      6  H   UNL     1       0.687  -8.792  -0.856  0.00  0.00    +0.400 HD
ENDBRANCH   4   5
BRANCH  14  15
ATOM     15  O   UNL     1       5.605  -7.986   0.205  0.00  0.00    -0.475 OA
ATOM     16  H   UNL     1       5.673  -8.381  -0.675  0.00  0.00    +0.399 HD
ENDBRANCH  14  15
TORSDOF 7
