REMARK  Name = ZINC95486206
REMARK  5 active torsions:
REMARK  status: ('A' for Active; 'I' for Inactive)
REMARK    1  A    between atoms: C1_1  and  C2_2
REMARK    2  A    between atoms: C4_5  and  O3_26
REMARK    3  A    between atoms: C7_8  and  C11_13
REMARK    4  A    between atoms: C14_16  and  O2_24
REMARK    5  A    between atoms: O2_24  and  C21_25
REMARK                            x       y       z     vdW  Elec       q    Type
REMARK                         _______ _______ _______ _____ _____    ______ ____
ROOT
ATOM      1  C   UNL     1      -0.121   1.639   0.125  0.00  0.00    +0.102 C 
ATOM      2  C   UNL     1      -0.034   0.111   0.146  0.00  0.00    +0.230 C 
ATOM      3  C   UNL     1      -1.425  -0.465   0.193  0.00  0.00    -0.155 A 
ATOM      4  C   UNL     1      -2.415   0.123  -0.592  0.00  0.00    +0.141 A 
ATOM      7  C   UNL     1      -3.708  -0.375  -0.582  0.00  0.00    +0.017 A 
ATOM      8  C   UNL     1      -4.023  -1.461   0.209  0.00  0.00    +0.078 A 
ATOM      9  C   UNL     1      -3.037  -2.051   0.996  0.00  0.00    -0.023 A 
ATOM     23  C   UNL     1      -1.734  -1.545   0.985  0.00  0.00    -0.063 A 
ATOM     24  C   UNL     1      -0.696  -2.205   1.856  0.00  0.00    +0.123 C 
ATOM     25  C   UNL     1       0.702  -1.781   1.407  0.00  0.00    +0.272 C 
ATOM     26  N   UNL     1       0.739  -0.313   1.316  0.00  0.00    -0.505 N 
ATOM     27  H   UNL     1       0.337   0.087   2.150  0.00  0.00    +0.429 HD
ATOM     28  H   UNL     1       1.695  -0.005   1.219  0.00  0.00    +0.434 HD
ENDROOT
BRANCH   9  10
ATOM     10  C   UNL     1      -3.372  -3.219   1.847  0.00  0.00    -0.130 A 
ATOM     11  C   UNL     1      -3.518  -3.055   3.226  0.00  0.00    +0.102 A 
ATOM     12  C   UNL     1      -3.829  -4.131   4.029  0.00  0.00    -0.085 A 
ATOM     13  C   UNL     1      -3.996  -5.390   3.468  0.00  0.00    +0.200 A 
ATOM     16  C   UNL     1      -3.847  -5.564   2.083  0.00  0.00    -0.201 A 
ATOM     17  C   UNL     1      -4.014  -6.903   1.494  0.00  0.00    +0.393 C 
ATOM     18  O   UNL     1      -4.073  -7.893   2.192  0.00  0.00    -0.427 OA
ATOM     19  C   UNL     1      -4.126  -6.997  -0.016  0.00  0.00    +0.037 C 
ATOM     20  C   UNL     1      -3.067  -6.058  -0.608  0.00  0.00    +0.041 C 
ATOM     21  C   UNL     1      -3.396  -4.618  -0.222  0.00  0.00    +0.086 C 
ATOM     22  C   UNL     1      -3.543  -4.473   1.268  0.00  0.00    +0.028 A 
BRANCH  13  14
ATOM     14  O   UNL     1      -4.303  -6.449   4.257  0.00  0.00    -0.283 OA
ATOM     15  C   UNL     1      -4.438  -6.198   5.657  0.00  0.00    +0.251 C 
ENDBRANCH  13  14
ENDBRANCH   9  10
BRANCH   4   5
ATOM      5  O   UNL     1      -2.110   1.192  -1.373  0.00  0.00    -0.490 OA
ATOM      6  H   UNL     1      -1.817   0.958  -2.264  0.00  0.00    +0.400 HD
ENDBRANCH   4   5
TORSDOF 3
