REMARK  Name = ZINC95486275
REMARK  5 active torsions:
REMARK  status: ('A' for Active; 'I' for Inactive)
REMARK    1  A    between atoms: C1_1  and  C2_2
REMARK    2  A    between atoms: C2_2  and  C21_28
REMARK    3  A    between atoms: C9_12  and  O2_14
REMARK    4  A    between atoms: O2_14  and  C11_15
REMARK    5  A    between atoms: C14_19  and  C15_22
REMARK                            x       y       z     vdW  Elec       q    Type
REMARK                         _______ _______ _______ _____ _____    ______ ____
ROOT
ATOM      1  C   UNL     1      -0.019   1.526   0.010  0.00  0.00    +0.092 C 
ATOM      2  C   UNL     1       0.002  -0.004   0.002  0.00  0.00    -0.102 C 
ATOM      3  C   UNL     1       1.147  -0.644  -0.786  0.00  0.00    +0.069 C 
ATOM      4  C   UNL     1      -1.346  -0.728   0.001  0.00  0.00    +0.018 C 
ATOM      5  C   UNL     1      -1.386  -2.181  -0.420  0.00  0.00    -0.229 A 
ATOM      6  C   UNL     1      -2.023  -2.807  -1.476  0.00  0.00    +0.272 A 
ATOM      7  C   UNL     1      -1.885  -4.198  -1.635  0.00  0.00    -0.315 A 
ATOM      8  C   UNL     1      -2.549  -4.857  -2.765  0.00  0.00    +0.406 C 
ATOM      9  C   UNL     1      -3.575  -4.034  -3.523  0.00  0.00    +0.038 C 
ATOM     10  C   UNL     1      -3.013  -2.610  -3.645  0.00  0.00    +0.234 C 
ATOM     17  O   UNL     1      -2.293  -6.002  -3.076  0.00  0.00    -0.431 OA
ATOM     18  C   UNL     1      -1.116  -4.934  -0.722  0.00  0.00    +0.259 A 
ATOM     21  C   UNL     1      -0.495  -4.282   0.386  0.00  0.00    -0.130 A 
ATOM     22  O   UNL     1      -2.772  -2.083  -2.341  0.00  0.00    -0.292 OA
ATOM     23  C   UNL     1      -0.625  -2.896   0.523  0.00  0.00    +0.217 A 
ATOM     24  O   UNL     1      -0.098  -2.085   1.473  0.00  0.00    -0.254 OA
ATOM     25  C   UNL     1      -0.471  -0.723   1.267  0.00  0.00    +0.174 C 
ENDROOT
BRANCH  10  11
ATOM     11  C   UNL     1      -4.008  -1.737  -4.365  0.00  0.00    -0.091 A 
ATOM     12  C   UNL     1      -5.028  -1.125  -3.660  0.00  0.00    +0.037 A 
ATOM     13  C   UNL     1      -5.941  -0.324  -4.321  0.00  0.00    +0.006 A 
ATOM     14  C   UNL     1      -5.833  -0.134  -5.686  0.00  0.00    +0.014 A 
ATOM     15  C   UNL     1      -4.813  -0.745  -6.390  0.00  0.00    +0.009 A 
ATOM     16  C   UNL     1      -3.898  -1.542  -5.729  0.00  0.00    +0.023 A 
ENDBRANCH  10  11
BRANCH  18  19
ATOM     19  O   UNL     1      -0.987  -6.277  -0.867  0.00  0.00    -0.278 OA
ATOM     20  C   UNL     1      -0.188  -6.960   0.101  0.00  0.00    +0.253 C 
ENDBRANCH  18  19
TORSDOF 2
