REMARK  Name = ZINC95486215
REMARK  5 active torsions:
REMARK  status: ('A' for Active; 'I' for Inactive)
REMARK    1  A    between atoms: C1_1  and  O1_2
REMARK    2  A    between atoms: O1_2  and  C2_3
REMARK    3  A    between atoms: C2_3  and  C3_5
REMARK    4  A    between atoms: C20_26  and  O4_28
REMARK    5  A    between atoms: O4_28  and  C21_29
REMARK                            x       y       z     vdW  Elec       q    Type
REMARK                         _______ _______ _______ _____ _____    ______ ____
ROOT
ATOM      4  C   UNL     1       0.657  -2.092  -1.119  0.00  0.00    +0.053 C 
ATOM      5  C   UNL     1       1.442  -2.662   0.081  0.00  0.00    +0.079 C 
ATOM      6  C   UNL     1       2.223  -3.899  -0.357  0.00  0.00    -0.063 C 
ATOM      7  C   UNL     1       2.783  -4.614   0.873  0.00  0.00    +0.069 C 
ATOM      8  C   UNL     1       3.716  -3.652   1.605  0.00  0.00    +0.061 C 
ATOM      9  C   UNL     1       4.819  -3.172   0.684  0.00  0.00    +0.247 C 
ATOM     10  N   UNL     1       4.426  -2.778  -0.635  0.00  0.00    -0.370 N 
ATOM     11  H   UNL     1       5.266  -2.901  -1.210  0.00  0.00    +0.425 HD
ATOM     12  C   UNL     1       4.083  -1.344  -0.750  0.00  0.00    +0.256 C 
ATOM     13  C   UNL     1       3.419  -1.241  -2.147  0.00  0.00    +0.094 C 
ATOM     14  C   UNL     1       2.795  -2.621  -2.380  0.00  0.00    -0.024 C 
ATOM     15  C   UNL     1       3.071  -3.021  -3.798  0.00  0.00    -0.143 A 
ATOM     16  C   UNL     1       4.163  -3.603  -4.397  0.00  0.00    +0.060 A 
ATOM     17  C   UNL     1       4.091  -3.822  -5.769  0.00  0.00    +0.003 A 
ATOM     18  C   UNL     1       2.973  -3.474  -6.497  0.00  0.00    +0.057 A 
ATOM     19  C   UNL     1       1.861  -2.894  -5.901  0.00  0.00    +0.033 A 
ATOM     20  C   UNL     1       1.919  -2.671  -4.530  0.00  0.00    +0.146 A 
ATOM     21  N   UNL     1       0.941  -2.109  -3.680  0.00  0.00    -0.534 N 
ATOM     22  C   UNL     1      -0.056  -1.286  -4.058  0.00  0.00    +0.683 C 
ATOM     25  O   UNL     1      -0.868  -0.900  -3.240  0.00  0.00    -0.542 OA
ATOM     26  C   UNL     1       1.285  -4.847  -1.117  0.00  0.00    +0.077 C 
ATOM     27  C   UNL     1       0.840  -4.166  -2.413  0.00  0.00    +0.042 C 
ATOM     28  C   UNL     1       3.375  -3.541  -1.305  0.00  0.00    +0.210 C 
ATOM     29  C   UNL     1       1.261  -2.674  -2.364  0.00  0.00    +0.229 C 
ENDROOT
BRANCH   4   3
ATOM      3  C   UNL     1       0.598  -0.600  -1.043  0.00  0.00    +0.480 C 
ATOM     30  O   UNL     1       0.918   0.067  -1.998  0.00  0.00    -0.484 OA
BRANCH   3   2
ATOM      1  C   UNL     1       0.159   1.428   0.090  0.00  0.00    +0.269 C 
ATOM      2  O   UNL     1       0.191  -0.001   0.087  0.00  0.00    -0.349 OA
ENDBRANCH   3   2
ENDBRANCH   4   3
BRANCH  22  23
ATOM     23  O   UNL     1      -0.153  -0.891  -5.341  0.00  0.00    -0.354 OA
ATOM     24  C   UNL     1      -1.236  -0.019  -5.672  0.00  0.00    +0.293 C 
ENDBRANCH  22  23
TORSDOF 3
