REMARK  Name = ZINC95485926
REMARK  34 active torsions:
REMARK  status: ('A' for Active; 'I' for Inactive)
REMARK    1  A    between atoms: C1_1  and  C2_2
REMARK    2  A    between atoms: C2_2  and  C3_3
REMARK    3  A    between atoms: C3_3  and  C4_4
REMARK    4  A    between atoms: C4_4  and  C5_5
REMARK    5  A    between atoms: C5_5  and  C6_6
REMARK    6  A    between atoms: C6_6  and  C7_7
REMARK    7  A    between atoms: C7_7  and  C8_8
REMARK    8  A    between atoms: C8_8  and  C9_9
REMARK    9  A    between atoms: C9_9  and  C10_10
REMARK   10  A    between atoms: C10_10  and  C11_11
REMARK   11  A    between atoms: C11_11  and  C12_12
REMARK   12  A    between atoms: C12_12  and  C13_13
REMARK   13  A    between atoms: C13_13  and  C14_14
REMARK   14  A    between atoms: C14_14  and  C15_15
REMARK   15  A    between atoms: C15_15  and  C16_16
REMARK   16  A    between atoms: C16_16  and  C17_17
REMARK   17  A    between atoms: C17_17  and  C18_18
REMARK   18  A    between atoms: C18_18  and  C19_19
REMARK   19  A    between atoms: C19_19  and  C20_20
REMARK   20  A    between atoms: C20_20  and  C21_21
REMARK   21  A    between atoms: C21_21  and  C22_22
REMARK   22  A    between atoms: C22_22  and  C23_23
REMARK   23  A    between atoms: C23_23  and  C24_24
REMARK   24  A    between atoms: C24_24  and  C25_25
REMARK   25  A    between atoms: C25_25  and  C26_26
REMARK   26  A    between atoms: C26_26  and  C27_27
REMARK   27  A    between atoms: C27_27  and  C28_28
REMARK   28  A    between atoms: C28_28  and  O1_29
REMARK   29  A    between atoms: O1_29  and  C29_30
REMARK   30  A    between atoms: C29_30  and  C30_32
REMARK   31  A    between atoms: C31_33  and  C32_34
REMARK   32  A    between atoms: C35_37  and  O4_42
REMARK   33  A    between atoms: C36_38  and  O3_40
REMARK   34  A    between atoms: O3_40  and  C38_41
REMARK                            x       y       z     vdW  Elec       q    Type
REMARK                         _______ _______ _______ _____ _____    ______ ____
ROOT
ATOM     22  C   UNL     1       7.609 -20.371  12.313  0.00  0.00    +0.000 C 
ENDROOT
BRANCH  22  23
ATOM     23  C   UNL     1       8.350 -20.878  13.553  0.00  0.00    +0.001 C 
BRANCH  23  24
ATOM     24  C   UNL     1       8.370 -22.407  13.544  0.00  0.00    +0.002 C 
BRANCH  24  25
ATOM     25  C   UNL     1       9.110 -22.914  14.784  0.00  0.00    +0.008 C 
BRANCH  25  26
ATOM     26  C   UNL     1       9.131 -24.444  14.775  0.00  0.00    +0.014 C 
BRANCH  26  27
ATOM     27  C   UNL     1       9.871 -24.951  16.015  0.00  0.00    +0.030 C 
BRANCH  27  28
ATOM     28  C   UNL     1       9.892 -26.481  16.006  0.00  0.00    +0.202 C 
BRANCH  28  29
ATOM     29  O   UNL     1      10.583 -26.954  17.164  0.00  0.00    -0.350 OA
BRANCH  29  30
ATOM     30  C   UNL     1      10.691 -28.291  17.309  0.00  0.00    +0.501 C 
ATOM     43  O   UNL     1      10.211 -29.034  16.474  0.00  0.00    -0.514 OA
BRANCH  30  31
ATOM     31  C   UNL     1      11.364 -28.830  18.434  0.00  0.00    -0.060 C 
ATOM     32  C   UNL     1      11.472 -30.169  18.579  0.00  0.00    +0.150 C 
BRANCH  32  33
ATOM     33  C   UNL     1      12.170 -30.728  19.746  0.00  0.00    -0.057 A 
ATOM     34  C   UNL     1      12.718 -29.875  20.711  0.00  0.00    +0.025 A 
ATOM     35  C   UNL     1      13.372 -30.401  21.803  0.00  0.00    +0.033 A 
ATOM     36  C   UNL     1      13.489 -31.777  21.950  0.00  0.00    +0.095 A 
ATOM     39  C   UNL     1      12.945 -32.634  20.994  0.00  0.00    +0.100 A 
ATOM     42  C   UNL     1      12.283 -32.115  19.898  0.00  0.00    -0.026 A 
BRANCH  36  37
ATOM     37  O   UNL     1      14.134 -32.290  23.029  0.00  0.00    -0.485 OA
ATOM     38  H   UNL     1      13.560 -32.455  23.790  0.00  0.00    +0.392 HD
ENDBRANCH  36  37
BRANCH  39  40
ATOM     40  O   UNL     1      13.062 -33.980  21.142  0.00  0.00    -0.306 OA
ATOM     41  C   UNL     1      12.481 -34.798  20.124  0.00  0.00    +0.242 C 
ENDBRANCH  39  40
ENDBRANCH  32  33
ENDBRANCH  30  31
ENDBRANCH  29  30
ENDBRANCH  28  29
ENDBRANCH  27  28
ENDBRANCH  26  27
ENDBRANCH  25  26
ENDBRANCH  24  25
ENDBRANCH  23  24
ENDBRANCH  22  23
BRANCH  22  21
ATOM     21  C   UNL     1       7.589 -18.841  12.322  0.00  0.00    +0.000 C 
BRANCH  21  20
ATOM     20  C   UNL     1       6.849 -18.334  11.082  0.00  0.00    +0.000 C 
BRANCH  20  19
ATOM     19  C   UNL     1       6.828 -16.804  11.091  0.00  0.00    +0.000 C 
BRANCH  19  18
ATOM     18  C   UNL     1       6.088 -16.297   9.851  0.00  0.00    +0.000 C 
BRANCH  18  17
ATOM     17  C   UNL     1       6.067 -14.768   9.859  0.00  0.00    +0.000 C 
BRANCH  17  16
ATOM     16  C   UNL     1       5.327 -14.261   8.620  0.00  0.00    +0.000 C 
BRANCH  16  15
ATOM     15  C   UNL     1       5.306 -12.731   8.628  0.00  0.00    +0.000 C 
BRANCH  15  14
ATOM     14  C   UNL     1       4.566 -12.224   7.389  0.00  0.00    +0.000 C 
BRANCH  14  13
ATOM     13  C   UNL     1       4.546 -10.694   7.397  0.00  0.00    +0.000 C 
BRANCH  13  12
ATOM     12  C   UNL     1       3.806 -10.187   6.158  0.00  0.00    +0.000 C 
BRANCH  12  11
ATOM     11  C   UNL     1       3.785  -8.658   6.166  0.00  0.00    +0.000 C 
BRANCH  11  10
ATOM     10  C   UNL     1       3.045  -8.151   4.926  0.00  0.00    +0.000 C 
BRANCH  10   9
ATOM      9  C   UNL     1       3.024  -6.621   4.935  0.00  0.00    +0.000 C 
BRANCH   9   8
ATOM      8  C   UNL     1       2.284  -6.114   3.695  0.00  0.00    +0.000 C 
BRANCH   8   7
ATOM      7  C   UNL     1       2.264  -4.584   3.704  0.00  0.00    +0.000 C 
BRANCH   7   6
ATOM      6  C   UNL     1       1.524  -4.077   2.464  0.00  0.00    +0.000 C 
BRANCH   6   5
ATOM      5  C   UNL     1       1.503  -2.548   2.473  0.00  0.00    +0.000 C 
BRANCH   5   4
ATOM      4  C   UNL     1       0.763  -2.041   1.233  0.00  0.00    -0.000 C 
BRANCH   4   3
ATOM      3  C   UNL     1       0.742  -0.511   1.242  0.00  0.00    -0.000 C 
BRANCH   3   2
ATOM      1  C   UNL     1      -0.019   1.526   0.010  0.00  0.00    +0.006 C 
ATOM      2  C   UNL     1       0.002  -0.004   0.002  0.00  0.00    -0.006 C 
ENDBRANCH   3   2
ENDBRANCH   4   3
ENDBRANCH   5   4
ENDBRANCH   6   5
ENDBRANCH   7   6
ENDBRANCH   8   7
ENDBRANCH   9   8
ENDBRANCH  10   9
ENDBRANCH  11  10
ENDBRANCH  12  11
ENDBRANCH  13  12
ENDBRANCH  14  13
ENDBRANCH  15  14
ENDBRANCH  16  15
ENDBRANCH  17  16
ENDBRANCH  18  17
ENDBRANCH  19  18
ENDBRANCH  20  19
ENDBRANCH  21  20
ENDBRANCH  22  21
TORSDOF 32
