REMARK  Name = ZINC95486141
REMARK  10 active torsions:
REMARK  status: ('A' for Active; 'I' for Inactive)
REMARK    1  A    between atoms: C3_3  and  O10_36
REMARK    2  A    between atoms: C6_6  and  C7_7
REMARK    3  A    between atoms: C11_12  and  O9_35
REMARK    4  A    between atoms: C13_14  and  O8_34
REMARK    5  A    between atoms: C14_15  and  C16_18
REMARK    6  A    between atoms: C17_20  and  O7_33
REMARK    7  A    between atoms: C18_22  and  O6_32
REMARK    8  A    between atoms: C19_24  and  C21_30
REMARK    9  A    between atoms: C20_27  and  O4_29
REMARK   10  A    between atoms: C21_30  and  O5_31
REMARK                            x       y       z     vdW  Elec       q    Type
REMARK                         _______ _______ _______ _____ _____    ______ ____
ROOT
ATOM      9  C   UNL     1      -1.269  -0.761   0.230  0.00  0.00    +0.211 A 
ATOM     10  C   UNL     1      -1.218  -2.120   0.235  0.00  0.00    -0.161 A 
ATOM     11  C   UNL     1      -2.421  -2.863   0.171  0.00  0.00    +0.424 A 
ATOM     12  C   UNL     1      -3.683  -2.106   0.102  0.00  0.00    -0.268 A 
ATOM     13  C   UNL     1      -4.920  -2.759   0.037  0.00  0.00    +0.220 A 
ATOM     16  C   UNL     1      -6.082  -2.012  -0.026  0.00  0.00    -0.060 A 
ATOM     17  C   UNL     1      -6.020  -0.623  -0.026  0.00  0.00    +0.199 A 
ATOM     20  C   UNL     1      -4.798   0.030   0.039  0.00  0.00    -0.135 A 
ATOM     36  C   UNL     1      -3.623  -0.702   0.103  0.00  0.00    +0.208 A 
ATOM     37  O   UNL     1      -2.413  -4.083   0.174  0.00  0.00    -0.460 OA
ATOM     38  O   UNL     1      -2.426  -0.082   0.171  0.00  0.00    -0.180 OA
ENDROOT
BRANCH   9   8
ATOM      1  C   UNL     1      -0.024   1.394   0.299  0.00  0.00    +0.086 A 
ATOM      2  C   UNL     1       1.159   2.097   0.362  0.00  0.00    -0.014 A 
ATOM      3  C   UNL     1       2.370   1.418   0.424  0.00  0.00    +0.134 A 
ATOM      6  C   UNL     1       2.394   0.029   0.422  0.00  0.00    -0.009 A 
ATOM      7  C   UNL     1       1.216  -0.682   0.359  0.00  0.00    +0.077 A 
ATOM      8  C   UNL     1      -0.005  -0.004   0.297  0.00  0.00    -0.081 A 
BRANCH   3   4
ATOM      4  O   UNL     1       3.534   2.115   0.485  0.00  0.00    -0.497 OA
ATOM      5  H   UNL     1       3.825   2.315   1.385  0.00  0.00    +0.397 HD
ENDBRANCH   3   4
ENDBRANCH   9   8
BRANCH  20  21
ATOM     21  C   UNL     1      -4.749   1.536   0.038  0.00  0.00    +0.074 C 
ATOM     22  C   UNL     1      -3.888   2.020   1.210  0.00  0.00    +0.207 C 
ATOM     25  C   UNL     1      -3.781   3.547   1.154  0.00  0.00    +0.123 C 
ATOM     28  C   UNL     1      -3.203   3.961  -0.202  0.00  0.00    +0.148 C 
ATOM     32  O   UNL     1      -4.033   3.453  -1.248  0.00  0.00    -0.374 OA
ATOM     33  C   UNL     1      -4.134   2.028  -1.275  0.00  0.00    +0.380 C 
BRANCH  22  23
ATOM     23  O   UNL     1      -4.495   1.627   2.443  0.00  0.00    -0.557 OA
ATOM     24  H   UNL     1      -4.002   1.901   3.228  0.00  0.00    +0.388 HD
ENDBRANCH  22  23
BRANCH  25  26
ATOM     26  O   UNL     1      -2.923   4.004   2.201  0.00  0.00    -0.556 OA
ATOM     27  H   UNL     1      -2.809   4.964   2.225  0.00  0.00    +0.383 HD
ENDBRANCH  25  26
BRANCH  33  34
ATOM     34  O   UNL     1      -2.831   1.462  -1.432  0.00  0.00    -0.562 OA
ATOM     35  H   UNL     1      -2.381   1.731  -2.245  0.00  0.00    +0.386 HD
ENDBRANCH  33  34
BRANCH  28  29
ATOM     29  C   UNL     1      -3.148   5.487  -0.289  0.00  0.00    +0.198 C 
BRANCH  29  30
ATOM     30  O   UNL     1      -2.502   5.872  -1.504  0.00  0.00    -0.561 OA
ATOM     31  H   UNL     1      -2.432   6.829  -1.626  0.00  0.00    +0.384 HD
ENDBRANCH  29  30
ENDBRANCH  28  29
ENDBRANCH  20  21
BRANCH  13  14
ATOM     14  O   UNL     1      -4.978  -4.115   0.036  0.00  0.00    -0.473 OA
ATOM     15  H   UNL     1      -5.042  -4.507   0.918  0.00  0.00    +0.402 HD
ENDBRANCH  13  14
BRANCH  17  18
ATOM     18  O   UNL     1      -7.166   0.101  -0.089  0.00  0.00    -0.486 OA
ATOM     19  H   UNL     1      -7.587   0.247   0.769  0.00  0.00    +0.404 HD
ENDBRANCH  17  18
TORSDOF 10
