REMARK  Name = ZINC95486294
REMARK  8 active torsions:
REMARK  status: ('A' for Active; 'I' for Inactive)
REMARK    1  A    between atoms: C1_1  and  O1_2
REMARK    2  A    between atoms: O1_2  and  C2_3
REMARK    3  A    between atoms: C4_5  and  O7_24
REMARK    4  A    between atoms: C9_11  and  O6_22
REMARK    5  A    between atoms: C10_12  and  O4_14
REMARK    6  A    between atoms: O4_14  and  C11_15
REMARK    7  A    between atoms: C14_18  and  O5_21
REMARK    8  A    between atoms: O6_22  and  C17_23
REMARK                            x       y       z     vdW  Elec       q    Type
REMARK                         _______ _______ _______ _____ _____    ______ ____
ROOT
ATOM      3  C   UNL     1       0.451  -0.612  -1.124  0.00  0.00    +0.240 A 
ATOM      4  C   UNL     1       0.977   0.152  -2.150  0.00  0.00    -0.120 A 
ATOM      5  C   UNL     1       1.594  -0.464  -3.233  0.00  0.00    +0.220 A 
ATOM      8  C   UNL     1       1.689  -1.845  -3.300  0.00  0.00    -0.056 A 
ATOM      9  C   UNL     1       1.167  -2.628  -2.281  0.00  0.00    +0.216 A 
ATOM     10  O   UNL     1       1.251  -3.974  -2.331  0.00  0.00    -0.231 OA
ATOM     11  C   UNL     1       0.771  -4.758  -1.355  0.00  0.00    +0.220 A 
ATOM     21  C   UNL     1       0.150  -4.258  -0.255  0.00  0.00    -0.073 A 
ATOM     24  C   UNL     1       0.006  -2.858  -0.110  0.00  0.00    +0.443 A 
ATOM     25  O   UNL     1      -0.547  -2.374   0.865  0.00  0.00    -0.424 OA
ATOM     26  C   UNL     1       0.548  -2.007  -1.183  0.00  0.00    -0.262 A 
ENDROOT
BRANCH   3   2
ATOM      1  C   UNL     1      -0.213   1.415  -0.077  0.00  0.00    +0.253 C 
ATOM      2  O   UNL     1      -0.152  -0.013  -0.066  0.00  0.00    -0.277 OA
ENDBRANCH   3   2
BRANCH   5   6
ATOM      6  O   UNL     1       2.108   0.295  -4.235  0.00  0.00    -0.488 OA
ATOM      7  H   UNL     1       3.032   0.548  -4.102  0.00  0.00    +0.405 HD
ENDBRANCH   5   6
BRANCH  21  22
ATOM     22  O   UNL     1      -0.331  -5.099   0.704  0.00  0.00    -0.285 OA
ATOM     23  C   UNL     1      -0.148  -6.500   0.488  0.00  0.00    +0.258 C 
ENDBRANCH  21  22
BRANCH  11  12
ATOM     12  O   UNL     1       0.899  -6.098  -1.476  0.00  0.00    -0.207 OA
BRANCH  12  13
ATOM     13  C   UNL     1       1.434  -6.587  -2.626  0.00  0.00    +0.041 A 
ATOM     14  C   UNL     1       2.805  -6.529  -2.833  0.00  0.00    +0.040 A 
ATOM     15  C   UNL     1       3.349  -7.026  -4.001  0.00  0.00    +0.007 A 
ATOM     16  C   UNL     1       2.524  -7.582  -4.968  0.00  0.00    +0.122 A 
ATOM     19  C   UNL     1       1.154  -7.640  -4.761  0.00  0.00    +0.008 A 
ATOM     20  C   UNL     1       0.611  -7.149  -3.591  0.00  0.00    +0.048 A 
BRANCH  16  17
ATOM     17  O   UNL     1       3.060  -8.072  -6.118  0.00  0.00    -0.497 OA
ATOM     18  H   UNL     1       3.305  -9.006  -6.072  0.00  0.00    +0.397 HD
ENDBRANCH  16  17
ENDBRANCH  12  13
ENDBRANCH  11  12
TORSDOF 6
