REMARK  Name = ZINC95485963
REMARK  19 active torsions:
REMARK  status: ('A' for Active; 'I' for Inactive)
REMARK    1  A    between atoms: C1_1  and  C2_2
REMARK    2  A    between atoms: C4_4  and  O5_38
REMARK    3  A    between atoms: C7_7  and  O1_8
REMARK    4  A    between atoms: C11_12  and  O2_13
REMARK    5  A    between atoms: C13_16  and  C28_32
REMARK    6  A    between atoms: C15_18  and  C16_19
REMARK    7  A    between atoms: C15_18  and  C22_25
REMARK    8  A    between atoms: C16_19  and  C17_20
REMARK    9  A    between atoms: C17_20  and  C18_21
REMARK   10  A    between atoms: C19_22  and  C20_23
REMARK   11  A    between atoms: C19_22  and  C21_24
REMARK   12  A    between atoms: C22_25  and  C23_26
REMARK   13  A    between atoms: C23_26  and  C24_27
REMARK   14  A    between atoms: C25_28  and  C26_29
REMARK   15  A    between atoms: C25_28  and  C27_30
REMARK   16  A    between atoms: C28_32  and  C29_33
REMARK   17  A    between atoms: C29_33  and  C30_34
REMARK   18  A    between atoms: C31_35  and  C32_36
REMARK   19  A    between atoms: C31_35  and  C33_37
REMARK                            x       y       z     vdW  Elec       q    Type
REMARK                         _______ _______ _______ _____ _____    ______ ____
ROOT
ATOM      1  C   UNL     1      -4.074   5.362   5.404  0.00  0.00    +0.109 C 
ATOM      2  C   UNL     1      -3.606   4.088   4.748  0.00  0.00    -0.068 A 
ATOM      3  C   UNL     1      -3.260   4.097   3.401  0.00  0.00    +0.000 A 
ATOM      4  C   UNL     1      -2.829   2.947   2.777  0.00  0.00    +0.141 A 
ATOM      7  C   UNL     1      -2.735   1.748   3.512  0.00  0.00    -0.114 A 
ATOM      8  C   UNL     1      -3.091   1.738   4.883  0.00  0.00    -0.012 A 
ATOM      9  C   UNL     1      -3.008   0.541   5.616  0.00  0.00    +0.032 A 
ATOM     10  C   UNL     1      -2.583  -0.610   5.026  0.00  0.00    -0.006 A 
ATOM     11  C   UNL     1      -2.208  -0.614   3.669  0.00  0.00    -0.205 A 
ATOM     12  C   UNL     1      -1.712  -1.833   3.019  0.00  0.00    +0.413 C 
ATOM     13  C   UNL     1      -1.916  -3.161   3.717  0.00  0.00    -0.055 C 
ATOM     20  C   UNL     1      -1.689  -2.912   5.196  0.00  0.00    +0.384 C 
ATOM     21  O   UNL     1      -0.859  -3.535   5.814  0.00  0.00    -0.421 OA
ATOM     22  O   UNL     1      -1.149  -1.778   1.945  0.00  0.00    -0.425 OA
ATOM     23  C   UNL     1      -2.534  -1.860   5.869  0.00  0.00    -0.064 C 
ATOM     36  C   UNL     1      -2.290   0.559   2.908  0.00  0.00    +0.215 A 
ATOM     39  C   UNL     1      -3.522   2.932   5.492  0.00  0.00    +0.093 A 
ENDROOT
BRANCH   4   5
ATOM      5  O   UNL     1      -2.495   2.969   1.461  0.00  0.00    -0.477 OA
ATOM      6  H   UNL     1      -1.565   3.172   1.294  0.00  0.00    +0.391 HD
ENDBRANCH   4   5
BRANCH  36  37
ATOM     37  O   UNL     1      -1.944   0.547   1.599  0.00  0.00    -0.461 OA
ATOM     38  H   UNL     1      -1.012   0.744   1.437  0.00  0.00    +0.398 HD
ENDBRANCH  36  37
BRANCH  39  40
ATOM     40  O   UNL     1      -3.858   2.942   6.809  0.00  0.00    -0.482 OA
ATOM     41  H   UNL     1      -4.790   2.748   6.978  0.00  0.00    +0.390 HD
ENDBRANCH  39  40
BRANCH  13  14
ATOM     14  C   UNL     1      -3.342  -3.663   3.482  0.00  0.00    +0.072 C 
BRANCH  14  15
ATOM     15  C   UNL     1      -3.506  -4.068   2.016  0.00  0.00    +0.054 C 
BRANCH  15  16
ATOM     16  C   UNL     1      -4.911  -4.562   1.786  0.00  0.00    -0.059 C 
ATOM     17  C   UNL     1      -5.111  -5.739   1.246  0.00  0.00    -0.127 C 
ATOM     18  C   UNL     1      -6.516  -6.235   1.019  0.00  0.00    +0.073 C 
ATOM     19  C   UNL     1      -3.936  -6.597   0.853  0.00  0.00    +0.073 C 
ENDBRANCH  15  16
ENDBRANCH  14  15
ENDBRANCH  13  14
BRANCH  23  24
ATOM     24  C   UNL     1      -3.954  -2.397   6.059  0.00  0.00    +0.063 C 
BRANCH  24  25
ATOM     25  C   UNL     1      -3.897  -3.748   6.775  0.00  0.00    +0.049 C 
BRANCH  25  26
ATOM     26  C   UNL     1      -5.282  -4.335   6.853  0.00  0.00    -0.059 C 
ATOM     27  C   UNL     1      -5.762  -4.732   8.005  0.00  0.00    -0.126 C 
ATOM     28  C   UNL     1      -7.165  -5.276   8.090  0.00  0.00    +0.072 C 
ATOM     29  C   UNL     1      -4.911  -4.645   9.246  0.00  0.00    +0.072 C 
ENDBRANCH  25  26
ENDBRANCH  24  25
ENDBRANCH  23  24
BRANCH  23  30
ATOM     30  C   UNL     1      -1.935  -1.527   7.236  0.00  0.00    +0.064 C 
BRANCH  30  31
ATOM     31  C   UNL     1      -0.565  -0.872   7.046  0.00  0.00    +0.043 C 
BRANCH  31  32
ATOM     32  C   UNL     1      -0.015  -0.460   8.388  0.00  0.00    -0.054 C 
ATOM     33  C   UNL     1       0.397   0.769   8.577  0.00  0.00    -0.130 C 
ATOM     34  C   UNL     1       0.896   1.196   9.934  0.00  0.00    +0.071 C 
ATOM     35  C   UNL     1       0.372   1.756   7.439  0.00  0.00    +0.070 C 
ENDBRANCH  31  32
ENDBRANCH  30  31
ENDBRANCH  23  30
TORSDOF 12
