REMARK  Name = ZINC31539795
REMARK  7 active torsions:
REMARK  status: ('A' for Active; 'I' for Inactive)
REMARK    1  A    between atoms: C3_3  and  O8_27
REMARK    2  A    between atoms: C6_6  and  C7_7
REMARK    3  A    between atoms: C11_14  and  O7_26
REMARK    4  A    between atoms: C12_16  and  C14_21
REMARK    5  A    between atoms: C14_21  and  C15_23
REMARK    6  A    between atoms: C14_21  and  O6_25
REMARK    7  A    between atoms: C15_23  and  O5_24
REMARK                            x       y       z     vdW  Elec       q    Type
REMARK                         _______ _______ _______ _____ _____    ______ ____
ROOT
ATOM      9  C   UNL     1      -1.293  -0.774   0.011  0.00  0.00    +0.072 C 
ATOM     10  C   UNL     1      -1.340  -1.767   1.204  0.00  0.00    +0.072 C 
ATOM     11  C   UNL     1      -1.952  -3.006   0.557  0.00  0.00    +0.490 C 
ATOM     12  O   UNL     1      -1.420  -3.051  -0.691  0.00  0.00    -0.308 OA
ATOM     13  O   UNL     1      -2.740  -3.780   1.049  0.00  0.00    -0.413 OA
ATOM     14  C   UNL     1      -1.378  -1.717  -1.197  0.00  0.00    +0.061 C 
ATOM     15  C   UNL     1      -2.618  -1.401  -2.050  0.00  0.00    +0.185 C 
ATOM     18  C   UNL     1      -1.986  -1.029  -3.416  0.00  0.00    +0.130 C 
ATOM     25  O   UNL     1      -0.635  -0.640  -3.079  0.00  0.00    -0.329 OA
ATOM     26  C   UNL     1      -0.207  -1.511  -2.129  0.00  0.00    +0.511 C 
ATOM     27  O   UNL     1       0.887  -2.016  -2.046  0.00  0.00    -0.390 OA
ENDROOT
BRANCH   9   8
ATOM      1  C   UNL     1      -0.017   1.378   0.010  0.00  0.00    +0.056 A 
ATOM      2  C   UNL     1       1.170   2.087   0.002  0.00  0.00    -0.014 A 
ATOM      3  C   UNL     1       2.380   1.409  -0.013  0.00  0.00    +0.121 A 
ATOM      6  C   UNL     1       2.396   0.022  -0.021  0.00  0.00    -0.006 A 
ATOM      7  C   UNL     1       1.207  -0.681  -0.013  0.00  0.00    +0.053 A 
ATOM      8  C   UNL     1       0.002  -0.004   0.002  0.00  0.00    -0.126 A 
BRANCH   3   4
ATOM      4  O   UNL     1       3.548   2.104  -0.021  0.00  0.00    -0.499 OA
ATOM      5  H   UNL     1       3.895   2.300   0.860  0.00  0.00    +0.395 HD
ENDBRANCH   3   4
ENDBRANCH   9   8
BRANCH  15  16
ATOM     16  O   UNL     1      -3.459  -2.550  -2.173  0.00  0.00    -0.530 OA
ATOM     17  H   UNL     1      -4.254  -2.400  -2.702  0.00  0.00    +0.393 HD
ENDBRANCH  15  16
BRANCH  18  19
ATOM     19  C   UNL     1      -2.740   0.138  -4.057  0.00  0.00    +0.251 C 
BRANCH  19  20
ATOM     20  O   UNL     1      -2.780   1.237  -3.144  0.00  0.00    -0.542 OA
ATOM     21  H   UNL     1      -1.908   1.567  -2.888  0.00  0.00    +0.383 HD
ENDBRANCH  19  20
BRANCH  19  22
ATOM     22  C   UNL     1      -2.023   0.566  -5.339  0.00  0.00    +0.163 C 
BRANCH  22  23
ATOM     23  O   UNL     1      -2.789   1.576  -5.998  0.00  0.00    -0.563 OA
ATOM     24  H   UNL     1      -2.394   1.895  -6.821  0.00  0.00    +0.386 HD
ENDBRANCH  22  23
ENDBRANCH  19  22
ENDBRANCH  18  19
TORSDOF 7
