REMARK  Name = ZINC95485967
REMARK  13 active torsions:
REMARK  status: ('A' for Active; 'I' for Inactive)
REMARK    1  A    between atoms: C1_1  and  C2_2
REMARK    2  A    between atoms: C4_4  and  O4_32
REMARK    3  A    between atoms: C7_7  and  C8_8
REMARK    4  A    between atoms: C8_8  and  C9_9
REMARK    5  A    between atoms: C9_9  and  C10_10
REMARK    6  A    between atoms: C11_11  and  C12_12
REMARK    7  A    between atoms: C11_11  and  C13_13
REMARK    8  A    between atoms: C17_17  and  O1_18
REMARK    9  A    between atoms: C21_23  and  C22_25
REMARK   10  A    between atoms: C22_25  and  C23_26
REMARK   11  A    between atoms: C23_26  and  C24_27
REMARK   12  A    between atoms: C25_28  and  C26_29
REMARK   13  A    between atoms: C25_28  and  C27_30
REMARK                            x       y       z     vdW  Elec       q    Type
REMARK                         _______ _______ _______ _____ _____    ______ ____
ROOT
ATOM      1  C   UNL     1      -0.509   5.909   3.034  0.00  0.00    +0.099 C 
ATOM      2  C   UNL     1      -1.252   4.700   2.527  0.00  0.00    -0.040 A 
ATOM      3  C   UNL     1      -2.047   4.812   1.392  0.00  0.00    -0.013 A 
ATOM      4  C   UNL     1      -2.736   3.721   0.905  0.00  0.00    +0.143 A 
ATOM      7  C   UNL     1      -2.628   2.482   1.569  0.00  0.00    -0.124 A 
ATOM      8  C   UNL     1      -1.819   2.380   2.726  0.00  0.00    +0.017 A 
ATOM      9  C   UNL     1      -1.715   1.147   3.397  0.00  0.00    +0.017 A 
ATOM     10  C   UNL     1      -2.382   0.050   2.946  0.00  0.00    -0.013 A 
ATOM     11  C   UNL     1      -2.249  -1.231   3.732  0.00  0.00    +0.018 C 
ATOM     18  C   UNL     1      -2.707  -2.404   2.902  0.00  0.00    +0.376 C 
ATOM     19  O   UNL     1      -2.055  -3.419   2.842  0.00  0.00    -0.430 OA
ATOM     20  C   UNL     1      -4.014  -2.267   2.146  0.00  0.00    +0.045 C 
ATOM     21  C   UNL     1      -3.875  -1.048   1.259  0.00  0.00    +0.409 C 
ATOM     22  O   UNL     1      -4.330  -1.046   0.134  0.00  0.00    -0.430 OA
ATOM     23  C   UNL     1      -3.177   0.130   1.787  0.00  0.00    -0.213 A 
ATOM     24  C   UNL     1      -3.309   1.345   1.101  0.00  0.00    +0.218 A 
ATOM     27  C   UNL     1      -1.128   3.512   3.185  0.00  0.00    -0.092 A 
ENDROOT
BRANCH   4   5
ATOM      5  O   UNL     1      -3.511   3.840  -0.202  0.00  0.00    -0.478 OA
ATOM      6  H   UNL     1      -3.043   3.663  -1.030  0.00  0.00    +0.390 HD
ENDBRANCH   4   5
BRANCH  24  25
ATOM     25  O   UNL     1      -4.086   1.422  -0.004  0.00  0.00    -0.463 OA
ATOM     26  H   UNL     1      -3.616   1.235  -0.829  0.00  0.00    +0.399 HD
ENDBRANCH  24  25
BRANCH  11  12
ATOM     12  C   UNL     1      -3.105  -1.140   4.997  0.00  0.00    +0.062 C 
BRANCH  12  13
ATOM     13  C   UNL     1      -2.877  -2.384   5.857  0.00  0.00    +0.048 C 
BRANCH  13  14
ATOM     14  C   UNL     1      -3.720  -2.295   7.103  0.00  0.00    -0.060 C 
ATOM     15  C   UNL     1      -3.168  -2.451   8.281  0.00  0.00    -0.127 C 
ATOM     16  C   UNL     1      -3.977  -2.214   9.530  0.00  0.00    +0.073 C 
ATOM     17  C   UNL     1      -1.723  -2.867   8.386  0.00  0.00    +0.073 C 
ENDBRANCH  13  14
ENDBRANCH  12  13
ENDBRANCH  11  12
BRANCH  27  28
ATOM     28  C   UNL     1      -0.254   3.417   4.409  0.00  0.00    +0.079 C 
BRANCH  28  29
ATOM     29  C   UNL     1      -1.085   3.729   5.655  0.00  0.00    +0.058 C 
BRANCH  29  30
ATOM     30  C   UNL     1      -0.211   3.633   6.879  0.00  0.00    -0.060 C 
ATOM     31  C   UNL     1      -0.038   4.683   7.643  0.00  0.00    -0.128 C 
ATOM     32  C   UNL     1       0.718   4.554   8.940  0.00  0.00    +0.072 C 
ATOM     33  C   UNL     1      -0.594   6.020   7.225  0.00  0.00    +0.072 C 
ENDBRANCH  29  30
ENDBRANCH  28  29
ENDBRANCH  27  28
TORSDOF 8
