REMARK  Name = ZINC95486062
REMARK  6 active torsions:
REMARK  status: ('A' for Active; 'I' for Inactive)
REMARK    1  A    between atoms: C1_1  and  C2_2
REMARK    2  A    between atoms: C6_7  and  C25_35
REMARK    3  A    between atoms: C6_7  and  C26_36
REMARK    4  A    between atoms: C10_13  and  C24_34
REMARK    5  A    between atoms: C14_18  and  C23_33
REMARK    6  A    between atoms: C18_26  and  C19_28
REMARK                            x       y       z     vdW  Elec       q    Type
REMARK                         _______ _______ _______ _____ _____    ______ ____
ROOT
ATOM      1  C   UNL     1      -0.093   1.557  -0.086  0.00  0.00    +0.032 C 
ATOM      2  C   UNL     1      -0.060  -0.003  -0.078  0.00  0.00    -0.045 C 
ATOM      3  C   UNL     1      -1.536  -0.380   0.111  0.00  0.00    +0.049 C 
ATOM      4  C   UNL     1      -1.778  -1.863   0.310  0.00  0.00    +0.026 C 
ATOM      5  C   UNL     1      -0.586  -2.529   0.938  0.00  0.00    +0.371 C 
ATOM      6  C   UNL     1       0.415  -1.748   1.750  0.00  0.00    -0.098 C 
ATOM      7  C   UNL     1      -0.184  -1.517   3.153  0.00  0.00    +0.059 C 
ATOM      8  C   UNL     1       1.662  -2.631   1.925  0.00  0.00    +0.052 C 
ATOM      9  O   UNL     1      -0.432  -3.729   0.796  0.00  0.00    -0.455 OA
ATOM     10  C   UNL     1       0.467  -0.458  -1.431  0.00  0.00    +0.032 C 
ATOM     11  C   UNL     1      -0.139  -1.800  -1.811  0.00  0.00    +0.025 C 
ATOM     12  C   UNL     1       0.349  -2.332  -3.157  0.00  0.00    +0.056 C 
ATOM     13  C   UNL     1       1.860  -2.529  -3.088  0.00  0.00    -0.063 C 
ATOM     14  C   UNL     1       2.190  -3.504  -1.966  0.00  0.00    +0.061 C 
ATOM     15  C   UNL     1       2.485  -1.169  -2.809  0.00  0.00    +0.073 C 
ATOM     16  C   UNL     1       3.909  -0.941  -3.312  0.00  0.00    +0.126 C 
ATOM     17  C   UNL     1       4.534  -2.052  -4.138  0.00  0.00    +0.510 C 
ATOM     18  O   UNL     1       3.835  -3.170  -4.361  0.00  0.00    -0.338 OA
ATOM     19  O   UNL     1       5.649  -1.926  -4.589  0.00  0.00    -0.433 OA
ATOM     20  O   UNL     1       2.773  -0.335  -3.950  0.00  0.00    -0.321 OA
ATOM     21  C   UNL     1       2.416  -3.130  -4.366  0.00  0.00    +0.280 C 
ATOM     27  C   UNL     1       1.975  -0.379  -1.597  0.00  0.00    -0.066 C 
ATOM     28  C   UNL     1       2.380   1.091  -1.893  0.00  0.00    +0.071 C 
ATOM     29  C   UNL     1       2.694  -0.801  -0.341  0.00  0.00    +0.376 C 
ATOM     30  O   UNL     1       3.614  -1.579  -0.356  0.00  0.00    -0.429 OA
ATOM     31  C   UNL     1       2.239  -0.160   0.951  0.00  0.00    +0.038 C 
ATOM     32  C   UNL     1       0.749  -0.402   1.138  0.00  0.00    +0.032 C 
ENDROOT
BRANCH  21  22
ATOM     22  C   UNL     1       1.904  -4.540  -4.513  0.00  0.00    -0.188 A 
ATOM     23  C   UNL     1       0.834  -4.966  -5.334  0.00  0.00    -0.045 A 
ATOM     24  C   UNL     1       0.718  -6.296  -5.163  0.00  0.00    +0.172 A 
ATOM     25  O   UNL     1       1.655  -6.694  -4.288  0.00  0.00    -0.171 OA
ATOM     26  C   UNL     1       2.380  -5.635  -3.894  0.00  0.00    +0.210 A 
ENDBRANCH  21  22
TORSDOF 1
