REMARK  Name = ZINC00001785
REMARK  4 active torsions:
REMARK  status: ('A' for Active; 'I' for Inactive)
REMARK    1  A    between atoms: C3_3  and  O5_21
REMARK    2  A    between atoms: C6_6  and  C7_7
REMARK    3  A    between atoms: C11_13  and  O4_20
REMARK    4  A    between atoms: C13_15  and  O3_19
REMARK                            x       y       z     vdW  Elec       q    Type
REMARK                         _______ _______ _______ _____ _____    ______ ____
ROOT
ATOM      9  C   UNL     1      -1.293  -0.774   0.011  0.00  0.00    +0.238 C 
ATOM     10  C   UNL     1      -1.619  -1.246  -1.414  0.00  0.00    +0.039 C 
ATOM     11  C   UNL     1      -2.910  -2.041  -1.340  0.00  0.00    +0.399 C 
ATOM     12  C   UNL     1      -3.065  -2.934  -0.186  0.00  0.00    -0.292 A 
ATOM     13  C   UNL     1      -4.091  -3.892  -0.155  0.00  0.00    +0.222 A 
ATOM     16  C   UNL     1      -4.223  -4.713   0.951  0.00  0.00    -0.073 A 
ATOM     17  C   UNL     1      -3.343  -4.589   2.019  0.00  0.00    +0.198 A 
ATOM     20  C   UNL     1      -2.322  -3.647   1.991  0.00  0.00    -0.053 A 
ATOM     21  C   UNL     1      -2.171  -2.817   0.894  0.00  0.00    +0.214 A 
ATOM     22  O   UNL     1      -3.769  -1.944  -2.192  0.00  0.00    -0.425 OA
ATOM     23  O   UNL     1      -1.167  -1.909   0.867  0.00  0.00    -0.298 OA
ENDROOT
BRANCH   9   8
ATOM      1  C   UNL     1      -0.017   1.378   0.010  0.00  0.00    +0.049 A 
ATOM      2  C   UNL     1       1.170   2.087   0.002  0.00  0.00    -0.010 A 
ATOM      3  C   UNL     1       2.380   1.409  -0.013  0.00  0.00    +0.117 A 
ATOM      6  C   UNL     1       2.396   0.022  -0.021  0.00  0.00    -0.013 A 
ATOM      7  C   UNL     1       1.207  -0.681  -0.013  0.00  0.00    +0.060 A 
ATOM      8  C   UNL     1       0.002  -0.004   0.002  0.00  0.00    -0.103 A 
BRANCH   3   4
ATOM      4  O   UNL     1       3.548   2.104  -0.021  0.00  0.00    -0.499 OA
ATOM      5  H   UNL     1       3.895   2.300   0.860  0.00  0.00    +0.395 HD
ENDBRANCH   3   4
ENDBRANCH   9   8
BRANCH  13  14
ATOM     14  O   UNL     1      -4.947  -4.011  -1.200  0.00  0.00    -0.476 OA
ATOM     15  H   UNL     1      -4.656  -4.636  -1.878  0.00  0.00    +0.401 HD
ENDBRANCH  13  14
BRANCH  17  18
ATOM     18  O   UNL     1      -3.482  -5.396   3.101  0.00  0.00    -0.490 OA
ATOM     19  H   UNL     1      -2.985  -6.223   3.041  0.00  0.00    +0.403 HD
ENDBRANCH  17  18
TORSDOF 4
