REMARK  Name = ZINC95486276
REMARK  8 active torsions:
REMARK  status: ('A' for Active; 'I' for Inactive)
REMARK    1  A    between atoms: C1_1  and  C2_2
REMARK    2  A    between atoms: C2_2  and  C21_26
REMARK    3  A    between atoms: C3_3  and  C4_4
REMARK    4  A    between atoms: C4_4  and  C5_5
REMARK    5  A    between atoms: C6_6  and  O4_25
REMARK    6  A    between atoms: C8_8  and  O3_23
REMARK    7  A    between atoms: C11_12  and  C14_17
REMARK    8  A    between atoms: O3_23  and  C20_24
REMARK                            x       y       z     vdW  Elec       q    Type
REMARK                         _______ _______ _______ _____ _____    ______ ____
ROOT
ATOM      6  C   UNL     1      -0.864  -0.562   3.381  0.00  0.00    -0.180 A 
ATOM      7  C   UNL     1      -2.184  -0.131   3.398  0.00  0.00    +0.222 A 
ATOM     10  C   UNL     1      -3.108  -0.710   4.259  0.00  0.00    -0.137 A 
ATOM     11  C   UNL     1      -2.717  -1.726   5.113  0.00  0.00    +0.232 A 
ATOM     14  C   UNL     1      -1.384  -2.163   5.103  0.00  0.00    -0.293 A 
ATOM     15  C   UNL     1      -0.939  -3.230   6.006  0.00  0.00    +0.402 C 
ATOM     16  O   UNL     1      -1.629  -3.616   6.927  0.00  0.00    -0.428 OA
ATOM     17  C   UNL     1       0.424  -3.838   5.718  0.00  0.00    +0.037 C 
ATOM     18  C   UNL     1       1.358  -2.682   5.331  0.00  0.00    +0.233 C 
ATOM     25  O   UNL     1       0.830  -2.010   4.187  0.00  0.00    -0.290 OA
ATOM     26  C   UNL     1      -0.454  -1.582   4.221  0.00  0.00    +0.234 A 
ENDROOT
BRANCH  18  19
ATOM     19  C   UNL     1       2.726  -3.226   5.007  0.00  0.00    -0.091 A 
ATOM     20  C   UNL     1       3.001  -3.693   3.736  0.00  0.00    +0.038 A 
ATOM     21  C   UNL     1       4.255  -4.192   3.439  0.00  0.00    +0.005 A 
ATOM     22  C   UNL     1       5.235  -4.223   4.414  0.00  0.00    +0.014 A 
ATOM     23  C   UNL     1       4.960  -3.755   5.685  0.00  0.00    +0.009 A 
ATOM     24  C   UNL     1       3.707  -3.252   5.981  0.00  0.00    +0.023 A 
ENDBRANCH  18  19
BRANCH   7   8
ATOM      8  O   UNL     1      -2.576   0.867   2.566  0.00  0.00    -0.487 OA
ATOM      9  H   UNL     1      -2.892   0.560   1.705  0.00  0.00    +0.400 HD
ENDBRANCH   7   8
BRANCH  11  12
ATOM     12  O   UNL     1      -3.616  -2.294   5.954  0.00  0.00    -0.285 OA
ATOM     13  C   UNL     1      -4.955  -1.796   5.907  0.00  0.00    +0.249 C 
ENDBRANCH  11  12
BRANCH   6   5
ATOM      5  C   UNL     1       0.123   0.078   2.439  0.00  0.00    +0.133 C 
BRANCH   5   4
ATOM      1  C   UNL     1      -0.166   1.491   0.016  0.00  0.00    +0.074 C 
ATOM      2  C   UNL     1      -0.072  -0.013   0.007  0.00  0.00    -0.133 C 
ATOM      3  C   UNL     1      -0.200  -0.768  -1.291  0.00  0.00    +0.071 C 
ATOM      4  C   UNL     1       0.121  -0.664   1.128  0.00  0.00    -0.050 C 
ENDBRANCH   5   4
ENDBRANCH   6   5
TORSDOF 5
