REMARK  Name = ZINC34518176
REMARK  9 active torsions:
REMARK  status: ('A' for Active; 'I' for Inactive)
REMARK    1  A    between atoms: C1_1  and  C2_2
REMARK    2  A    between atoms: C5_6  and  C30_37
REMARK    3  A    between atoms: C8_9  and  C29_36
REMARK    4  A    between atoms: C13_15  and  C25_30
REMARK    5  A    between atoms: C17_20  and  C24_29
REMARK    6  A    between atoms: C20_23  and  O1_28
REMARK    7  A    between atoms: C21_25  and  C22_26
REMARK    8  A    between atoms: C21_25  and  C23_27
REMARK    9  A    between atoms: C27_33  and  C28_35
REMARK                            x       y       z     vdW  Elec       q    Type
REMARK                         _______ _______ _______ _____ _____    ______ ____
ROOT
ATOM      1  C   UNL     1      -2.577   0.987   4.003  0.00  0.00    +0.013 C 
ATOM      2  C   UNL     1      -2.668  -0.491   4.378  0.00  0.00    -0.021 C 
ATOM      3  C   UNL     1      -3.959  -0.774   5.136  0.00  0.00    +0.008 C 
ATOM      4  C   UNL     1      -3.962  -0.112   6.508  0.00  0.00    +0.010 C 
ATOM      5  C   UNL     1      -2.764  -0.578   7.341  0.00  0.00    -0.040 C 
ATOM      6  C   UNL     1      -2.951  -2.047   7.712  0.00  0.00    +0.024 C 
ATOM      7  C   UNL     1      -2.747   0.231   8.649  0.00  0.00    +0.007 C 
ATOM      8  C   UNL     1      -1.593  -0.247   9.531  0.00  0.00    +0.021 C 
ATOM      9  C   UNL     1      -0.250  -0.051   8.843  0.00  0.00    -0.002 C 
ATOM     10  C   UNL     1      -0.007   1.463   8.744  0.00  0.00    +0.017 C 
ATOM     11  C   UNL     1      -0.254  -0.561   7.422  0.00  0.00    -0.081 C 
ATOM     12  C   UNL     1       0.780  -1.159   6.904  0.00  0.00    -0.068 C 
ATOM     13  C   UNL     1       2.053  -1.483   7.637  0.00  0.00    +0.058 C 
ATOM     14  C   UNL     1       2.177  -0.599   8.876  0.00  0.00    +0.005 C 
ATOM     15  C   UNL     1       3.444  -0.929   9.666  0.00  0.00    -0.035 C 
ATOM     16  C   UNL     1       3.556  -2.425   9.939  0.00  0.00    +0.027 C 
ATOM     17  C   UNL     1       4.655  -0.515   8.810  0.00  0.00    +0.018 C 
ATOM     18  C   UNL     1       5.940  -0.770   9.592  0.00  0.00    -0.018 C 
ATOM     19  C   UNL     1       5.976   0.083  10.852  0.00  0.00    +0.166 C 
ATOM     22  C   UNL     1       4.744  -0.122  11.734  0.00  0.00    -0.038 C 
ATOM     23  C   UNL     1       4.719   1.071  12.724  0.00  0.00    +0.017 C 
ATOM     24  C   UNL     1       4.907  -1.390  12.572  0.00  0.00    +0.034 C 
ATOM     25  C   UNL     1       3.457  -0.101  10.943  0.00  0.00    -0.000 C 
ATOM     26  C   UNL     1       2.230  -0.439  11.787  0.00  0.00    +0.017 C 
ATOM     27  C   UNL     1       0.993   0.046  11.015  0.00  0.00    +0.014 C 
ATOM     28  C   UNL     1       0.883  -0.667   9.672  0.00  0.00    -0.023 C 
ATOM     29  C   UNL     1       0.497  -2.133   9.935  0.00  0.00    +0.018 C 
ATOM     30  C   UNL     1      -1.480  -0.304   6.578  0.00  0.00    +0.037 C 
ATOM     31  C   UNL     1      -1.441  -0.911   5.195  0.00  0.00    -0.008 C 
ATOM     32  C   UNL     1      -1.338  -2.435   5.160  0.00  0.00    +0.018 C 
ENDROOT
BRANCH  19  20
ATOM     20  O   UNL     1       7.149  -0.243  11.609  0.00  0.00    -0.565 OA
ATOM     21  H   UNL     1       7.978  -0.091  11.135  0.00  0.00    +0.374 HD
ENDBRANCH  19  20
TORSDOF 1
