REMARK  Name = ZINC28648780
REMARK  10 active torsions:
REMARK  status: ('A' for Active; 'I' for Inactive)
REMARK    1  A    between atoms: C1_1  and  C2_2
REMARK    2  A    between atoms: C4_5  and  O4_27
REMARK    3  A    between atoms: C6_9  and  C19_24
REMARK    4  A    between atoms: C6_9  and  C20_25
REMARK    5  A    between atoms: C10_13  and  C18_23
REMARK    6  A    between atoms: C11_14  and  C12_15
REMARK    7  A    between atoms: C11_14  and  O2_22
REMARK    8  A    between atoms: C12_15  and  C13_16
REMARK    9  A    between atoms: C13_16  and  C14_17
REMARK   10  A    between atoms: C20_25  and  O3_26
REMARK                            x       y       z     vdW  Elec       q    Type
REMARK                         _______ _______ _______ _____ _____    ______ ____
ROOT
ATOM      1  C   UNL     1       0.917   1.596   0.864  0.00  0.00    +0.012 C 
ATOM      2  C   UNL     1       0.591   0.167   1.302  0.00  0.00    -0.024 C 
ATOM      3  C   UNL     1      -0.533   0.196   2.340  0.00  0.00    -0.001 C 
ATOM      4  C   UNL     1      -0.860  -1.233   2.778  0.00  0.00    +0.164 C 
ATOM      7  C   UNL     1       0.386  -1.875   3.392  0.00  0.00    +0.038 C 
ATOM      8  C   UNL     1       0.059  -3.304   3.831  0.00  0.00    -0.046 C 
ATOM     12  C   UNL     1      -1.065  -3.275   4.869  0.00  0.00    +0.024 C 
ATOM     13  C   UNL     1       1.304  -3.947   4.445  0.00  0.00    +0.018 C 
ATOM     14  C   UNL     1       2.428  -3.976   3.407  0.00  0.00    +0.000 C 
ATOM     15  C   UNL     1       2.755  -2.547   2.969  0.00  0.00    +0.020 C 
ATOM     16  C   UNL     1       1.510  -1.905   2.354  0.00  0.00    -0.023 C 
ATOM     17  C   UNL     1       1.061  -2.720   1.140  0.00  0.00    +0.042 C 
ATOM     18  C   UNL     1       1.836  -0.475   1.916  0.00  0.00    +0.152 C 
ENDROOT
BRANCH   4   5
ATOM      5  O   UNL     1      -1.278  -1.995   1.644  0.00  0.00    -0.536 OA
ATOM      6  H   UNL     1      -2.065  -1.645   1.203  0.00  0.00    +0.359 HD
ENDBRANCH   4   5
BRANCH  18  19
ATOM     19  O   UNL     1       2.255   0.287   3.050  0.00  0.00    -0.552 OA
ATOM     20  H   UNL     1       2.479   1.205   2.846  0.00  0.00    +0.368 HD
ENDBRANCH  18  19
BRANCH   8   9
ATOM      9  C   UNL     1      -0.389  -4.120   2.616  0.00  0.00    +0.197 C 
BRANCH   9  10
ATOM     10  O   UNL     1      -0.826  -5.412   3.045  0.00  0.00    -0.585 OA
ATOM     11  H   UNL     1      -1.125  -5.984   2.326  0.00  0.00    +0.371 HD
ENDBRANCH   9  10
ENDBRANCH   8   9
BRANCH  18  21
ATOM     21  C   UNL     1       2.960  -0.505   0.878  0.00  0.00    +0.009 C 
BRANCH  21  22
ATOM     22  C   UNL     1       3.404   0.926   0.567  0.00  0.00    +0.096 C 
BRANCH  22  23
ATOM     23  C   UNL     1       4.906   0.974   0.461  0.00  0.00    -0.178 A 
ATOM     24  C   UNL     1       5.818   1.215   1.514  0.00  0.00    -0.061 A 
ATOM     25  C   UNL     1       7.052   1.169   0.980  0.00  0.00    +0.160 A 
ATOM     26  O   UNL     1       6.936   0.914  -0.333  0.00  0.00    -0.178 OA
ATOM     27  C   UNL     1       5.638   0.790  -0.653  0.00  0.00    +0.153 A 
ENDBRANCH  22  23
ENDBRANCH  21  22
ENDBRANCH  18  21
TORSDOF 7
