REMARK  Name = ZINC38939526
REMARK  10 active torsions:
REMARK  status: ('A' for Active; 'I' for Inactive)
REMARK    1  A    between atoms: C1_1  and  C2_2
REMARK    2  A    between atoms: C2_2  and  C3_3
REMARK    3  A    between atoms: C2_2  and  C4_4
REMARK    4  A    between atoms: C10_10  and  C27_32
REMARK    5  A    between atoms: C12_12  and  O2_15
REMARK    6  A    between atoms: C16_18  and  O3_23
REMARK    7  A    between atoms: C17_20  and  C18_21
REMARK    8  A    between atoms: C17_20  and  C19_22
REMARK    9  A    between atoms: O3_23  and  C20_24
REMARK   10  A    between atoms: C20_24  and  C21_26
REMARK                            x       y       z     vdW  Elec       q    Type
REMARK                         _______ _______ _______ _____ _____    ______ ____
ROOT
ATOM      3  C   UNL     1       2.620   1.261   2.161  0.00  0.00    -0.193 C 
ATOM      4  C   UNL     1       1.659   0.346   2.442  0.00  0.00    +0.109 C 
ATOM      5  C   UNL     1       1.870  -0.611   3.463  0.00  0.00    -0.111 C 
ATOM      6  C   UNL     1       0.881  -1.546   3.769  0.00  0.00    +0.145 C 
ATOM      7  C   UNL     1       1.023  -2.493   4.790  0.00  0.00    -0.036 C 
ATOM      8  C   UNL     1       2.138  -2.590   5.522  0.00  0.00    -0.016 C 
ATOM      9  C   UNL     1       3.305  -1.669   5.231  0.00  0.00    +0.010 C 
ATOM     10  C   UNL     1       4.500  -2.531   4.820  0.00  0.00    +0.061 C 
ATOM     11  C   UNL     1       3.636  -0.963   6.546  0.00  0.00    +0.061 C 
ATOM     12  C   UNL     1       3.936  -2.008   7.622  0.00  0.00    +0.016 C 
ATOM     13  C   UNL     1       2.686  -2.840   7.912  0.00  0.00    +0.191 C 
ATOM     23  C   UNL     1       2.266  -3.592   6.642  0.00  0.00    -0.021 C 
ATOM     24  C   UNL     1       0.922  -4.284   6.872  0.00  0.00    +0.051 C 
ATOM     25  C   UNL     1       3.329  -4.633   6.283  0.00  0.00    +0.061 C 
ATOM     26  C   UNL     1       3.099  -0.615   4.171  0.00  0.00    -0.052 C 
ATOM     27  C   UNL     1       4.056   0.299   3.893  0.00  0.00    +0.019 C 
ATOM     30  C   UNL     1       3.834   1.261   2.876  0.00  0.00    +0.388 C 
ATOM     31  O   UNL     1       4.695   2.092   2.621  0.00  0.00    -0.471 OA
ENDROOT
BRANCH   3   2
ATOM      1  C   UNL     1       2.471   3.687   1.669  0.00  0.00    +0.027 C 
ATOM      2  C   UNL     1       2.389   2.280   1.075  0.00  0.00    +0.038 C 
ATOM     32  C   UNL     1       3.458   2.121  -0.008  0.00  0.00    +0.027 C 
ENDBRANCH   3   2
BRANCH  27  28
ATOM     28  O   UNL     1       5.228   0.294   4.584  0.00  0.00    -0.460 OA
ATOM     29  H   UNL     1       5.848   0.985   4.313  0.00  0.00    +0.400 HD
ENDBRANCH  27  28
BRANCH  13  14
ATOM     14  O   UNL     1       2.969  -3.780   8.950  0.00  0.00    -0.335 OA
BRANCH  14  15
ATOM     15  C   UNL     1       2.745  -3.379  10.216  0.00  0.00    +0.508 C 
ATOM     22  O   UNL     1       2.321  -2.261  10.433  0.00  0.00    -0.501 OA
BRANCH  15  16
ATOM     16  C   UNL     1       3.016  -4.298  11.341  0.00  0.00    -0.128 A 
ATOM     17  C   UNL     1       3.508  -5.581  11.095  0.00  0.00    +0.077 A 
ATOM     18  C   UNL     1       3.758  -6.434  12.150  0.00  0.00    -0.001 A 
ATOM     19  C   UNL     1       3.522  -6.020  13.449  0.00  0.00    +0.049 A 
ATOM     20  C   UNL     1       3.033  -4.750  13.700  0.00  0.00    +0.003 A 
ATOM     21  C   UNL     1       2.785  -3.885  12.655  0.00  0.00    +0.082 A 
ENDBRANCH  15  16
ENDBRANCH  14  15
ENDBRANCH  13  14
TORSDOF 5
