REMARK  Name = ZINC00900904
REMARK  8 active torsions:
REMARK  status: ('A' for Active; 'I' for Inactive)
REMARK    1  A    between atoms: C1_1  and  C2_2
REMARK    2  A    between atoms: C2_2  and  C3_4
REMARK    3  A    between atoms: C3_4  and  C4_5
REMARK    4  A    between atoms: C9_11  and  O3_15
REMARK    5  A    between atoms: C10_12  and  O2_13
REMARK    6  A    between atoms: O2_13  and  C11_14
REMARK    7  A    between atoms: O3_15  and  C12_16
REMARK    8  A    between atoms: N1_27  and  C23_28
REMARK                            x       y       z     vdW  Elec       q    Type
REMARK                         _______ _______ _______ _____ _____    ______ ____
ROOT
ATOM      4  C   UNL     1       2.432   0.089  -0.791  0.00  0.00    +0.261 C 
ATOM      5  C   UNL     1       1.154  -0.577  -0.369  0.00  0.00    -0.085 A 
ATOM      6  C   UNL     1      -0.020   0.166  -0.229  0.00  0.00    -0.055 A 
ATOM      7  C   UNL     1       0.044   1.632  -0.430  0.00  0.00    -0.091 A 
ATOM      8  C   UNL     1      -1.122   2.409  -0.369  0.00  0.00    +0.046 A 
ATOM      9  C   UNL     1      -1.073   3.760  -0.517  0.00  0.00    +0.013 A 
ATOM     10  C   UNL     1       0.148   4.396  -0.810  0.00  0.00    -0.024 A 
ATOM     11  C   UNL     1       0.185   5.797  -0.998  0.00  0.00    +0.045 A 
ATOM     12  C   UNL     1       1.379   6.346  -1.380  0.00  0.00    +0.048 A 
ATOM     13  C   UNL     1       2.534   5.554  -1.585  0.00  0.00    +0.033 A 
ATOM     14  O   UNL     1       3.534   6.362  -2.012  0.00  0.00    -0.305 OA
ATOM     15  C   UNL     1       2.891   7.581  -2.442  0.00  0.00    +0.435 C 
ATOM     16  C   UNL     1       2.538   4.206  -1.355  0.00  0.00    +0.078 A 
ATOM     17  O   UNL     1       1.702   7.639  -1.623  0.00  0.00    -0.305 OA
ATOM     18  C   UNL     1       1.326   3.617  -0.927  0.00  0.00    -0.044 A 
ATOM     19  C   UNL     1       1.279   2.229  -0.630  0.00  0.00    +0.156 A 
ATOM     20  C   UNL     1      -1.219  -0.468   0.085  0.00  0.00    +0.066 A 
ATOM     21  C   UNL     1      -1.243  -1.838   0.263  0.00  0.00    -0.055 A 
ATOM     22  C   UNL     1      -0.079  -2.579   0.156  0.00  0.00    +0.113 A 
ATOM     25  C   UNL     1       1.125  -1.946  -0.158  0.00  0.00    +0.077 A 
ATOM     28  N   UNL     1       2.461   1.525  -0.572  0.00  0.00    -0.502 N 
ATOM     29  C   UNL     1       3.192   1.849   0.671  0.00  0.00    +0.235 C 
ENDROOT
BRANCH  22  23
ATOM     23  O   UNL     1      -0.108  -3.923   0.354  0.00  0.00    -0.304 OA
ATOM     24  C   UNL     1      -1.374  -4.505   0.669  0.00  0.00    +0.242 C 
ENDBRANCH  22  23
BRANCH  25  26
ATOM     26  O   UNL     1       2.269  -2.681  -0.258  0.00  0.00    -0.323 OA
ATOM     27  C   UNL     1       2.980  -2.943   0.954  0.00  0.00    +0.224 C 
ENDBRANCH  25  26
BRANCH   4   3
ATOM      3  C   UNL     1       2.671  -0.209  -2.280  0.00  0.00    +0.046 C 
BRANCH   3   2
ATOM      1  C   UNL     1       4.494   0.165  -4.111  0.00  0.00    +0.054 C 
ATOM      2  C   UNL     1       4.018   0.329  -2.690  0.00  0.00    +0.361 C 
ATOM     30  O   UNL     1       4.715   0.893  -1.881  0.00  0.00    -0.442 OA
ENDBRANCH   3   2
ENDBRANCH   4   3
TORSDOF 4
