REMARK  Name = ZINC95486120
REMARK  13 active torsions:
REMARK  status: ('A' for Active; 'I' for Inactive)
REMARK    1  A    between atoms: C1_1  and  C2_2
REMARK    2  A    between atoms: C2_2  and  C4_4
REMARK    3  A    between atoms: C7_8  and  C32_40
REMARK    4  A    between atoms: C13_17  and  C31_39
REMARK    5  A    between atoms: C16_20  and  C29_35
REMARK    6  A    between atoms: C17_22  and  C27_33
REMARK    7  A    between atoms: C17_22  and  C28_34
REMARK    8  A    between atoms: C21_27  and  C26_32
REMARK    9  A    between atoms: C22_28  and  C25_31
REMARK   10  A    between atoms: C29_35  and  C30_36
REMARK   11  A    between atoms: C32_40  and  C33_41
REMARK   12  A    between atoms: C33_41  and  O4_43
REMARK   13  A    between atoms: O4_43  and  C34_44
REMARK                            x       y       z     vdW  Elec       q    Type
REMARK                         _______ _______ _______ _____ _____    ______ ____
ROOT
ATOM      3  C   UNL     1      -0.282  -0.185  -1.487  0.00  0.00    +0.038 C 
ATOM      4  C   UNL     1      -1.372   0.077  -2.552  0.00  0.00    +0.004 C 
ATOM      5  C   UNL     1      -0.751  -0.327  -3.896  0.00  0.00    +0.021 C 
ATOM      6  C   UNL     1       0.794  -0.282  -3.720  0.00  0.00    -0.025 C 
ATOM     12  C   UNL     1       1.304  -1.630  -4.217  0.00  0.00    +0.015 C 
ATOM     13  C   UNL     1       2.609  -2.083  -3.580  0.00  0.00    +0.012 C 
ATOM     14  C   UNL     1       2.447  -2.112  -2.058  0.00  0.00    -0.028 C 
ATOM     15  C   UNL     1       1.241  -2.992  -1.711  0.00  0.00    +0.017 C 
ATOM     16  C   UNL     1       3.686  -2.721  -1.385  0.00  0.00    -0.028 C 
ATOM     17  C   UNL     1       3.800  -4.155  -1.920  0.00  0.00    +0.015 C 
ATOM     18  C   UNL     1       3.482  -2.793   0.131  0.00  0.00    +0.015 C 
ATOM     19  C   UNL     1       4.668  -3.496   0.775  0.00  0.00    -0.001 C 
ATOM     20  C   UNL     1       6.008  -2.834   0.480  0.00  0.00    -0.004 C 
ATOM     21  C   UNL     1       6.449  -1.961   1.634  0.00  0.00    -0.045 C 
ATOM     22  C   UNL     1       6.940  -2.889   2.773  0.00  0.00    +0.001 C 
ATOM     23  C   UNL     1       5.305  -1.120   2.204  0.00  0.00    +0.014 C 
ATOM     24  C   UNL     1       7.617  -1.038   1.296  0.00  0.00    +0.019 C 
ATOM     29  C   UNL     1       7.304  -0.288   0.001  0.00  0.00    +0.023 C 
ATOM     30  C   UNL     1       7.271  -1.303  -1.129  0.00  0.00    +0.001 C 
ATOM     31  C   UNL     1       6.191  -2.378  -0.938  0.00  0.00    -0.026 C 
ATOM     32  C   UNL     1       6.768  -3.588  -1.734  0.00  0.00    -0.004 C 
ATOM     33  C   UNL     1       4.930  -1.898  -1.659  0.00  0.00    +0.012 C 
ATOM     34  C   UNL     1       4.700  -0.434  -1.265  0.00  0.00    +0.016 C 
ATOM     35  C   UNL     1       3.474   0.147  -1.953  0.00  0.00    -0.005 C 
ATOM     36  C   UNL     1       2.225  -0.678  -1.602  0.00  0.00    +0.015 C 
ATOM     37  C   UNL     1       1.036  -0.005  -2.243  0.00  0.00    +0.004 C 
ENDROOT
BRANCH   3   2
ATOM      1  C   UNL     1      -0.292   2.310  -0.697  0.00  0.00    +0.069 C 
ATOM      2  C   UNL     1      -0.398   0.841  -0.378  0.00  0.00    -0.114 C 
ATOM     38  C   UNL     1      -0.590   0.450   0.857  0.00  0.00    -0.008 C 
ENDBRANCH   3   2
BRANCH   6   7
ATOM      7  C   UNL     1       1.376   0.855  -4.592  0.00  0.00    +0.106 C 
BRANCH   7   8
ATOM      8  C   UNL     1       0.969   0.645  -6.028  0.00  0.00    +0.459 C 
ATOM     11  O   UNL     1       0.209  -0.249  -6.316  0.00  0.00    -0.496 OA
BRANCH   8   9
ATOM      9  O   UNL     1       1.451   1.451  -6.987  0.00  0.00    -0.357 OA
ATOM     10  C   UNL     1       1.024   1.194  -8.326  0.00  0.00    +0.252 C 
ENDBRANCH   8   9
ENDBRANCH   7   8
ENDBRANCH   6   7
BRANCH  24  25
ATOM     25  C   UNL     1       7.818  -0.029   2.431  0.00  0.00    -0.070 C 
BRANCH  25  26
ATOM     26  C   UNL     1       9.038   0.809   2.148  0.00  0.00    +0.489 C 
ATOM     27  O   UNL     1       9.376   1.677   2.934  0.00  0.00    -0.713 OA
ATOM     28  O   UNL     1       9.688   0.617   1.135  0.00  0.00    -0.694 OA
ENDBRANCH  25  26
ENDBRANCH  24  25
TORSDOF 6
