REMARK  Name = ZINC95485986
REMARK  10 active torsions:
REMARK  status: ('A' for Active; 'I' for Inactive)
REMARK    1  A    between atoms: C1_1  and  C2_2
REMARK    2  A    between atoms: C2_2  and  C24_37
REMARK    3  A    between atoms: C3_3  and  C4_4
REMARK    4  A    between atoms: C5_5  and  O9_36
REMARK    5  A    between atoms: C17_20  and  O4_22
REMARK    6  A    between atoms: O4_22  and  C19_23
REMARK    7  A    between atoms: C20_25  and  O8_35
REMARK    8  A    between atoms: C21_27  and  O7_34
REMARK    9  A    between atoms: C22_29  and  O6_33
REMARK   10  A    between atoms: C24_37  and  O10_38
REMARK                            x       y       z     vdW  Elec       q    Type
REMARK                         _______ _______ _______ _____ _____    ______ ____
ROOT
ATOM      7  C   UNL     1      -0.022  -2.111   1.564  0.00  0.00    -0.086 A 
ATOM      8  C   UNL     1      -0.684  -2.962   0.674  0.00  0.00    +0.176 A 
ATOM     11  C   UNL     1      -0.450  -4.331   0.706  0.00  0.00    -0.012 A 
ATOM     12  C   UNL     1       0.435  -4.865   1.615  0.00  0.00    +0.116 A 
ATOM     13  C   UNL     1       1.106  -4.029   2.513  0.00  0.00    -0.119 A 
ATOM     14  C   UNL     1       2.055  -4.579   3.490  0.00  0.00    +0.165 A 
ATOM     15  O   UNL     1       2.482  -5.821   3.761  0.00  0.00    -0.159 OA
ATOM     16  C   UNL     1       3.379  -5.827   4.772  0.00  0.00    +0.092 A 
ATOM     17  C   UNL     1       3.580  -4.501   5.189  0.00  0.00    -0.097 A 
ATOM     18  C   UNL     1       4.464  -4.217   6.225  0.00  0.00    +0.119 A 
ATOM     19  C   UNL     1       5.160  -5.241   6.832  0.00  0.00    -0.039 A 
ATOM     20  C   UNL     1       4.978  -6.554   6.410  0.00  0.00    +0.161 A 
ATOM     34  C   UNL     1       4.084  -6.848   5.395  0.00  0.00    +0.018 A 
ATOM     35  C   UNL     1       2.698  -3.683   4.340  0.00  0.00    -0.264 A 
ATOM     36  C   UNL     1       2.412  -2.304   4.251  0.00  0.00    +0.550 A 
ATOM     37  O   UNL     1       2.970  -1.528   5.005  0.00  0.00    -0.447 OA
ATOM     38  O   UNL     1       1.535  -1.831   3.350  0.00  0.00    -0.256 OA
ATOM     39  C   UNL     1       0.885  -2.643   2.489  0.00  0.00    +0.185 A 
ENDROOT
BRANCH   7   6
ATOM      1  C   UNL     1      -1.787   1.278   1.540  0.00  0.00    +0.096 C 
ATOM      2  C   UNL     1      -1.501  -0.190   1.721  0.00  0.00    -0.073 C 
ATOM      6  C   UNL     1      -0.274  -0.656   1.526  0.00  0.00    +0.006 C 
BRANCH   2   3
ATOM      3  C   UNL     1      -2.609  -1.129   2.123  0.00  0.00    +0.222 C 
BRANCH   3   4
ATOM      4  O   UNL     1      -3.228  -0.651   3.319  0.00  0.00    -0.569 OA
ATOM      5  H   UNL     1      -3.951  -1.208   3.638  0.00  0.00    +0.382 HD
ENDBRANCH   3   4
ENDBRANCH   2   3
ENDBRANCH   7   6
BRANCH   8   9
ATOM      9  O   UNL     1      -1.560  -2.447  -0.227  0.00  0.00    -0.482 OA
ATOM     10  H   UNL     1      -1.173  -2.271  -1.095  0.00  0.00    +0.403 HD
ENDBRANCH   8   9
BRANCH  20  21
ATOM     21  O   UNL     1       5.668  -7.557   7.013  0.00  0.00    -0.287 OA
BRANCH  21  22
ATOM     22  C   UNL     1       6.558  -7.190   8.069  0.00  0.00    +0.305 C 
ATOM     23  C   UNL     1       7.145  -8.452   8.705  0.00  0.00    +0.193 C 
ATOM     26  C   UNL     1       8.143  -8.049   9.795  0.00  0.00    +0.205 C 
ATOM     29  C   UNL     1       9.221  -7.152   9.178  0.00  0.00    +0.126 C 
ATOM     32  C   UNL     1       8.553  -5.940   8.524  0.00  0.00    +0.219 C 
ATOM     33  O   UNL     1       7.615  -6.386   7.543  0.00  0.00    -0.380 OA
BRANCH  23  24
ATOM     24  O   UNL     1       7.815  -9.223   7.705  0.00  0.00    -0.536 OA
ATOM     25  H   UNL     1       7.242  -9.509   6.980  0.00  0.00    +0.388 HD
ENDBRANCH  23  24
BRANCH  26  27
ATOM     27  O   UNL     1       8.750  -9.220  10.345  0.00  0.00    -0.544 OA
ATOM     28  H   UNL     1       9.394  -9.039  11.042  0.00  0.00    +0.390 HD
ENDBRANCH  26  27
BRANCH  29  30
ATOM     30  O   UNL     1      10.118  -6.712  10.200  0.00  0.00    -0.561 OA
ATOM     31  H   UNL     1      10.828  -6.139   9.880  0.00  0.00    +0.389 HD
ENDBRANCH  29  30
ENDBRANCH  21  22
ENDBRANCH  20  21
TORSDOF 9
