REMARK  Name = ZINC95486077
REMARK  5 active torsions:
REMARK  status: ('A' for Active; 'I' for Inactive)
REMARK    1  A    between atoms: C1_1  and  C2_2
REMARK    2  A    between atoms: C2_2  and  C20_25
REMARK    3  A    between atoms: C3_3  and  C4_4
REMARK    4  A    between atoms: C4_4  and  C5_5
REMARK    5  A    between atoms: C17_20  and  O3_24
REMARK                            x       y       z     vdW  Elec       q    Type
REMARK                         _______ _______ _______ _____ _____    ______ ____
ROOT
ATOM      6  C   UNL     1      -0.864  -0.562   3.381  0.00  0.00    -0.101 A 
ATOM      7  C   UNL     1      -2.180  -0.136   3.402  0.00  0.00    +0.056 A 
ATOM      8  C   UNL     1      -3.089  -0.709   4.267  0.00  0.00    -0.007 A 
ATOM      9  C   UNL     1      -2.693  -1.726   5.125  0.00  0.00    +0.137 A 
ATOM     10  C   UNL     1      -1.360  -2.159   5.079  0.00  0.00    -0.157 A 
ATOM     11  C   UNL     1      -1.043  -3.292   5.997  0.00  0.00    +0.222 C 
ATOM     12  C   UNL     1      -2.255  -4.266   5.792  0.00  0.00    -0.016 C 
ATOM     13  C   UNL     1      -1.679  -5.516   6.342  0.00  0.00    -0.161 A 
ATOM     14  C   UNL     1      -2.241  -6.646   6.895  0.00  0.00    +0.096 A 
ATOM     15  C   UNL     1      -1.379  -7.656   7.302  0.00  0.00    -0.033 A 
ATOM     16  C   UNL     1      -0.007  -7.533   7.159  0.00  0.00    +0.142 A 
ATOM     19  C   UNL     1       0.572  -6.394   6.608  0.00  0.00    -0.011 A 
ATOM     20  C   UNL     1      -0.281  -5.375   6.203  0.00  0.00    +0.113 A 
ATOM     21  C   UNL     1      -3.443  -3.623   6.461  0.00  0.00    +0.275 C 
ATOM     22  O   UNL     1       0.048  -4.149   5.683  0.00  0.00    -0.279 OA
ATOM     23  O   UNL     1      -3.572  -2.274   5.997  0.00  0.00    -0.323 OA
ATOM     24  C   UNL     1      -0.458  -1.584   4.224  0.00  0.00    +0.073 A 
ENDROOT
BRANCH  16  17
ATOM     17  O   UNL     1       0.795  -8.552   7.567  0.00  0.00    -0.497 OA
ATOM     18  H   UNL     1       0.975  -9.209   6.882  0.00  0.00    +0.396 HD
ENDBRANCH  16  17
BRANCH   6   5
ATOM      5  C   UNL     1       0.123   0.078   2.439  0.00  0.00    +0.111 C 
BRANCH   5   4
ATOM      1  C   UNL     1      -0.199   1.488   0.018  0.00  0.00    +0.074 C 
ATOM      2  C   UNL     1      -0.087  -0.015   0.008  0.00  0.00    -0.130 C 
ATOM      3  C   UNL     1      -0.212  -0.772  -1.289  0.00  0.00    +0.073 C 
ATOM      4  C   UNL     1       0.121  -0.664   1.128  0.00  0.00    -0.054 C 
ENDBRANCH   5   4
ENDBRANCH   6   5
TORSDOF 3
