REMARK  Name = ZINC95485977
REMARK  19 active torsions:
REMARK  status: ('A' for Active; 'I' for Inactive)
REMARK    1  A    between atoms: C1_1  and  C2_2
REMARK    2  A    between atoms: C2_2  and  C31_37
REMARK    3  A    between atoms: C3_3  and  C4_4
REMARK    4  A    between atoms: C4_4  and  C5_5
REMARK    5  A    between atoms: C5_5  and  C6_6
REMARK    6  A    between atoms: C8_8  and  O6_36
REMARK    7  A    between atoms: C11_11  and  O1_12
REMARK    8  A    between atoms: C14_16  and  C25_30
REMARK    9  A    between atoms: C15_17  and  O5_29
REMARK   10  A    between atoms: C16_18  and  O4_28
REMARK   11  A    between atoms: C17_19  and  C19_22
REMARK   12  A    between atoms: C19_22  and  C20_23
REMARK   13  A    between atoms: C20_23  and  C21_24
REMARK   14  A    between atoms: C22_25  and  C23_26
REMARK   15  A    between atoms: C22_25  and  C24_27
REMARK   16  A    between atoms: C25_30  and  C26_31
REMARK   17  A    between atoms: C26_31  and  C27_32
REMARK   18  A    between atoms: C28_33  and  C29_34
REMARK   19  A    between atoms: C28_33  and  C30_35
REMARK                            x       y       z     vdW  Elec       q    Type
REMARK                         _______ _______ _______ _____ _____    ______ ____
ROOT
ATOM      7  C   UNL     1       1.966  -2.306   7.029  0.00  0.00    -0.124 A 
ATOM      8  C   UNL     1       3.208  -2.351   7.639  0.00  0.00    +0.088 A 
ATOM      9  C   UNL     1       3.966  -1.204   7.789  0.00  0.00    +0.079 A 
ATOM     12  C   UNL     1       3.487   0.019   7.322  0.00  0.00    +0.143 A 
ATOM     13  C   UNL     1       2.230   0.061   6.698  0.00  0.00    -0.240 A 
ATOM     14  C   UNL     1       1.740   1.358   6.191  0.00  0.00    +0.442 A 
ATOM     15  C   UNL     1       2.737   2.445   6.127  0.00  0.00    -0.218 A 
ATOM     16  C   UNL     1       2.471   3.624   5.428  0.00  0.00    -0.002 A 
ATOM     23  C   UNL     1       3.426   4.618   5.380  0.00  0.00    +0.054 A 
ATOM     26  C   UNL     1       4.652   4.440   6.027  0.00  0.00    +0.154 A 
ATOM     29  C   UNL     1       4.918   3.275   6.722  0.00  0.00    -0.126 A 
ATOM     36  C   UNL     1       3.966   2.265   6.784  0.00  0.00    +0.168 A 
ATOM     37  O   UNL     1       0.583   1.522   5.847  0.00  0.00    -0.419 OA
ATOM     38  O   UNL     1       4.226   1.137   7.476  0.00  0.00    -0.208 OA
ATOM     39  C   UNL     1       1.470  -1.105   6.552  0.00  0.00    +0.197 A 
ENDROOT
BRANCH   9  10
ATOM     10  O   UNL     1       5.183  -1.270   8.394  0.00  0.00    -0.478 OA
ATOM     11  H   UNL     1       5.916  -1.438   7.787  0.00  0.00    +0.392 HD
ENDBRANCH   9  10
BRANCH  23  24
ATOM     24  O   UNL     1       3.175   5.770   4.702  0.00  0.00    -0.473 OA
ATOM     25  H   UNL     1       2.766   6.462   5.240  0.00  0.00    +0.386 HD
ENDBRANCH  23  24
BRANCH  26  27
ATOM     27  O   UNL     1       5.589   5.421   5.972  0.00  0.00    -0.474 OA
ATOM     28  H   UNL     1       5.526   6.066   6.690  0.00  0.00    +0.396 HD
ENDBRANCH  26  27
BRANCH  39  40
ATOM     40  O   UNL     1       0.254  -1.057   5.951  0.00  0.00    -0.472 OA
ATOM     41  H   UNL     1      -0.479  -0.890   6.559  0.00  0.00    +0.401 HD
ENDBRANCH  39  40
BRANCH   7   6
ATOM      6  C   UNL     1       1.155  -3.567   6.879  0.00  0.00    +0.091 C 
BRANCH   6   5
ATOM      5  C   UNL     1       1.411  -4.178   5.500  0.00  0.00    +0.060 C 
BRANCH   5   4
ATOM      1  C   UNL     1      -0.348  -4.471   3.319  0.00  0.00    +0.074 C 
ATOM      2  C   UNL     1      -0.218  -5.575   4.336  0.00  0.00    -0.126 C 
ATOM      3  C   UNL     1      -1.029  -6.836   4.186  0.00  0.00    +0.072 C 
ATOM      4  C   UNL     1       0.600  -5.439   5.350  0.00  0.00    -0.064 C 
ENDBRANCH   5   4
ENDBRANCH   6   5
ENDBRANCH   7   6
BRANCH  16  17
ATOM     17  C   UNL     1       1.147   3.809   4.732  0.00  0.00    +0.098 C 
BRANCH  17  18
ATOM     18  C   UNL     1       0.151   4.458   5.695  0.00  0.00    +0.061 C 
BRANCH  18  19
ATOM     19  C   UNL     1      -1.172   4.644   4.998  0.00  0.00    -0.047 C 
ATOM     20  C   UNL     1      -1.738   5.825   4.970  0.00  0.00    -0.137 C 
ATOM     21  C   UNL     1      -2.988   6.043   4.157  0.00  0.00    +0.072 C 
ATOM     22  C   UNL     1      -1.138   6.967   5.750  0.00  0.00    +0.070 C 
ENDBRANCH  18  19
ENDBRANCH  17  18
ENDBRANCH  16  17
BRANCH  29  30
ATOM     30  C   UNL     1       6.246   3.099   7.414  0.00  0.00    +0.102 C 
BRANCH  30  31
ATOM     31  C   UNL     1       6.148   3.630   8.846  0.00  0.00    +0.054 C 
BRANCH  31  32
ATOM     32  C   UNL     1       7.475   3.454   9.538  0.00  0.00    -0.062 C 
ATOM     33  C   UNL     1       7.538   2.824  10.685  0.00  0.00    -0.124 C 
ATOM     34  C   UNL     1       8.877   2.525  11.308  0.00  0.00    +0.072 C 
ATOM     35  C   UNL     1       6.271   2.397  11.380  0.00  0.00    +0.072 C 
ENDBRANCH  31  32
ENDBRANCH  30  31
ENDBRANCH  29  30
TORSDOF 13
