REMARK  Name = ZINC95486345
REMARK  11 active torsions:
REMARK  status: ('A' for Active; 'I' for Inactive)
REMARK    1  A    between atoms: C1_1  and  N1_2
REMARK    2  A    between atoms: C6_7  and  O5_27
REMARK    3  A    between atoms: C7_8  and  O3_24
REMARK    4  A    between atoms: C15_17  and  O2_22
REMARK    5  A    between atoms: C16_18  and  O1_20
REMARK    6  A    between atoms: O1_20  and  C18_21
REMARK    7  A    between atoms: O2_22  and  C19_23
REMARK    8  A    between atoms: O3_24  and  C20_25
REMARK    9  A    between atoms: C20_25  and  O4_26
REMARK   10  A    between atoms: O5_27  and  C21_28
REMARK   11  A    between atoms: C21_28  and  O6_29
REMARK                            x       y       z     vdW  Elec       q    Type
REMARK                         _______ _______ _______ _____ _____    ______ ____
ROOT
ATOM      1  C   UNL     1       0.614   1.815   0.437  0.00  0.00    +0.329 C 
ATOM      2  N   UNL     1       0.448   0.360   0.315  0.00  0.00    -0.382 N 
ATOM      3  H   UNL     1      -0.531   0.127   0.385  0.00  0.00    +0.425 HD
ATOM      4  C   UNL     1       0.961  -0.081  -0.983  0.00  0.00    +0.268 C 
ATOM      5  C   UNL     1       0.632  -1.545  -1.224  0.00  0.00    +0.126 C 
ATOM      6  C   UNL     1       0.775  -2.371   0.023  0.00  0.00    -0.040 A 
ATOM      7  C   UNL     1       0.648  -3.750  -0.086  0.00  0.00    -0.043 A 
ATOM      8  C   UNL     1       0.794  -4.565   1.022  0.00  0.00    +0.164 A 
ATOM     13  C   UNL     1       1.067  -4.000   2.263  0.00  0.00    +0.076 A 
ATOM     18  C   UNL     1       1.173  -2.616   2.378  0.00  0.00    +0.023 A 
ATOM     19  C   UNL     1       1.461  -1.994   3.692  0.00  0.00    -0.059 A 
ATOM     20  C   UNL     1       1.967  -2.755   4.742  0.00  0.00    +0.017 A 
ATOM     21  C   UNL     1       2.245  -2.151   5.956  0.00  0.00    +0.109 A 
ATOM     24  C   UNL     1       2.021  -0.787   6.121  0.00  0.00    +0.124 A 
ATOM     27  C   UNL     1       1.509  -0.033   5.076  0.00  0.00    -0.023 A 
ATOM     28  C   UNL     1       1.221  -0.633   3.867  0.00  0.00    -0.074 A 
ATOM     29  C   UNL     1       0.645   0.173   2.735  0.00  0.00    +0.113 C 
ATOM     30  C   UNL     1       1.034  -1.801   1.251  0.00  0.00    -0.159 A 
ATOM     31  C   UNL     1       1.190  -0.310   1.392  0.00  0.00    +0.244 C 
ENDROOT
BRANCH  21  22
ATOM     22  O   UNL     1       2.738  -2.889   6.986  0.00  0.00    -0.299 OA
ATOM     23  C   UNL     1       3.043  -4.259   6.715  0.00  0.00    +0.248 C 
ENDBRANCH  21  22
BRANCH  24  25
ATOM     25  O   UNL     1       2.304  -0.193   7.311  0.00  0.00    -0.297 OA
ATOM     26  C   UNL     1       2.049   1.210   7.412  0.00  0.00    +0.246 C 
ENDBRANCH  24  25
BRANCH   8   9
ATOM      9  O   UNL     1       0.671  -5.914   0.899  0.00  0.00    -0.260 OA
BRANCH   9  10
ATOM     10  C   UNL     1       0.390  -6.423  -0.407  0.00  0.00    +0.401 C 
BRANCH  10  11
ATOM     11  O   UNL     1       1.573  -6.363  -1.206  0.00  0.00    -0.590 OA
ATOM     12  H   UNL     1       1.456  -6.693  -2.107  0.00  0.00    +0.405 HD
ENDBRANCH  10  11
ENDBRANCH   9  10
ENDBRANCH   8   9
BRANCH  13  14
ATOM     14  O   UNL     1       1.228  -4.793   3.356  0.00  0.00    -0.297 OA
BRANCH  14  15
ATOM     15  C   UNL     1       0.045  -5.170   4.064  0.00  0.00    +0.387 C 
BRANCH  15  16
ATOM     16  O   UNL     1      -0.647  -6.181   3.330  0.00  0.00    -0.580 OA
ATOM     17  H   UNL     1      -1.499  -6.432   3.713  0.00  0.00    +0.398 HD
ENDBRANCH  15  16
ENDBRANCH  14  15
ENDBRANCH  13  14
TORSDOF 8
