REMARK  Name = ZINC95485917
REMARK  8 active torsions:
REMARK  status: ('A' for Active; 'I' for Inactive)
REMARK    1  A    between atoms: C1_1  and  C2_2
REMARK    2  A    between atoms: C2_2  and  C3_3
REMARK    3  A    between atoms: C2_2  and  C4_4
REMARK    4  A    between atoms: C2_2  and  C6_6
REMARK    5  A    between atoms: C7_7  and  O5_24
REMARK    6  A    between atoms: C9_9  and  O4_23
REMARK    7  A    between atoms: C15_16  and  O3_21
REMARK    8  A    between atoms: O3_21  and  C19_22
REMARK                            x       y       z     vdW  Elec       q    Type
REMARK                         _______ _______ _______ _____ _____    ______ ____
ROOT
ATOM      3  C   UNL     1       0.770  -0.385  -1.238  0.00  0.00    -0.135 A 
ATOM      4  C   UNL     1       1.331   0.602  -2.033  0.00  0.00    +0.196 A 
ATOM      7  C   UNL     1       2.049   0.270  -3.176  0.00  0.00    -0.059 A 
ATOM      8  C   UNL     1       2.214  -1.057  -3.529  0.00  0.00    +0.217 A 
ATOM     11  C   UNL     1       1.656  -2.059  -2.724  0.00  0.00    -0.268 A 
ATOM     12  C   UNL     1       1.827  -3.484  -3.057  0.00  0.00    +0.439 A 
ATOM     13  O   UNL     1       2.250  -3.849  -4.139  0.00  0.00    -0.424 OA
ATOM     14  C   UNL     1       1.470  -4.444  -1.986  0.00  0.00    -0.181 A 
ATOM     15  C   UNL     1       1.843  -5.783  -2.067  0.00  0.00    +0.085 A 
ATOM     16  C   UNL     1       1.496  -6.651  -1.048  0.00  0.00    +0.103 A 
ATOM     19  C   UNL     1       0.779  -6.183   0.049  0.00  0.00    +0.002 A 
ATOM     20  C   UNL     1       0.405  -4.860   0.134  0.00  0.00    +0.049 A 
ATOM     21  C   UNL     1       0.742  -3.971  -0.883  0.00  0.00    +0.112 A 
ATOM     22  O   UNL     1       0.369  -2.678  -0.797  0.00  0.00    -0.213 OA
ATOM     23  C   UNL     1       0.925  -1.723  -1.570  0.00  0.00    +0.200 A 
ENDROOT
BRANCH   3   2
ATOM      1  C   UNL     1       0.747  -0.478   1.240  0.00  0.00    +0.043 C 
ATOM      2  C   UNL     1      -0.007  -0.004  -0.004  0.00  0.00    +0.013 C 
ATOM     26  C   UNL     1      -1.387  -0.662  -0.046  0.00  0.00    +0.051 C 
BRANCH   2  24
ATOM     24  C   UNL     1      -0.166   1.494   0.046  0.00  0.00    +0.016 C 
ATOM     25  C   UNL     1       0.315   2.171   1.060  0.00  0.00    -0.035 C 
ENDBRANCH   2  24
ENDBRANCH   3   2
BRANCH   4   5
ATOM      5  O   UNL     1       1.178   1.906  -1.692  0.00  0.00    -0.472 OA
ATOM      6  H   UNL     1       1.915   2.269  -1.183  0.00  0.00    +0.398 HD
ENDBRANCH   4   5
BRANCH   8   9
ATOM      9  O   UNL     1       2.911  -1.387  -4.645  0.00  0.00    -0.473 OA
ATOM     10  H   UNL     1       3.858  -1.516  -4.494  0.00  0.00    +0.401 HD
ENDBRANCH   8   9
BRANCH  16  17
ATOM     17  O   UNL     1       1.855  -7.960  -1.117  0.00  0.00    -0.311 OA
ATOM     18  C   UNL     1       1.463  -8.799  -0.029  0.00  0.00    +0.246 C 
ENDBRANCH  16  17
TORSDOF 5
