REMARK  Name = ZINC95486109
REMARK  8 active torsions:
REMARK  status: ('A' for Active; 'I' for Inactive)
REMARK    1  A    between atoms: C1_1  and  C2_2
REMARK    2  A    between atoms: C6_6  and  C29_34
REMARK    3  A    between atoms: C6_6  and  O3_35
REMARK    4  A    between atoms: C10_11  and  C28_33
REMARK    5  A    between atoms: C14_16  and  C27_32
REMARK    6  A    between atoms: C18_20  and  C26_29
REMARK    7  A    between atoms: C21_24  and  C24_27
REMARK    8  A    between atoms: C21_24  and  C25_28
REMARK                            x       y       z     vdW  Elec       q    Type
REMARK                         _______ _______ _______ _____ _____    ______ ____
ROOT
ATOM      1  C   UNL     1      -0.901   1.224  -0.990  0.00  0.00    +0.031 C 
ATOM      2  C   UNL     1      -0.868  -0.295  -1.031  0.00  0.00    -0.035 C 
ATOM      3  C   UNL     1      -2.309  -0.790  -1.258  0.00  0.00    +0.007 C 
ATOM      4  C   UNL     1      -3.192  -0.356  -0.091  0.00  0.00    +0.006 C 
ATOM      5  C   UNL     1      -2.679  -0.955   1.214  0.00  0.00    -0.019 C 
ATOM      6  C   UNL     1      -1.224  -0.549   1.470  0.00  0.00    +0.146 C 
ATOM      9  C   UNL     1      -0.743  -1.341   2.703  0.00  0.00    -0.007 C 
ATOM     10  C   UNL     1       0.003  -0.834  -2.167  0.00  0.00    -0.001 C 
ATOM     11  C   UNL     1      -0.470  -0.420  -3.542  0.00  0.00    +0.005 C 
ATOM     12  C   UNL     1       0.289  -1.113  -4.667  0.00  0.00    +0.013 C 
ATOM     13  C   UNL     1       1.471  -1.963  -4.209  0.00  0.00    +0.014 C 
ATOM     14  C   UNL     1       0.915  -3.281  -3.660  0.00  0.00    +0.006 C 
ATOM     15  C   UNL     1       2.235  -1.277  -3.121  0.00  0.00    -0.116 C 
ATOM     16  C   UNL     1       3.539  -1.214  -3.077  0.00  0.00    -0.013 C 
ATOM     17  C   UNL     1       4.387  -1.771  -4.189  0.00  0.00    +0.048 C 
ATOM     18  C   UNL     1       3.608  -1.518  -5.487  0.00  0.00    -0.113 C 
ATOM     22  C   UNL     1       4.465  -1.905  -6.690  0.00  0.00    +0.014 C 
ATOM     23  C   UNL     1       4.793  -3.392  -6.650  0.00  0.00    +0.002 C 
ATOM     24  C   UNL     1       3.509  -4.213  -6.657  0.00  0.00    -0.065 C 
ATOM     25  C   UNL     1       3.875  -5.699  -6.509  0.00  0.00    +0.006 C 
ATOM     26  C   UNL     1       2.759  -4.027  -7.976  0.00  0.00    +0.017 C 
ATOM     27  C   UNL     1       2.609  -3.822  -5.481  0.00  0.00    +0.017 C 
ATOM     28  C   UNL     1       2.320  -2.328  -5.433  0.00  0.00    +0.020 C 
ATOM     29  C   UNL     1       1.489  -0.578  -1.987  0.00  0.00    +0.003 C 
ATOM     30  C   UNL     1       1.871   0.908  -2.070  0.00  0.00    +0.031 C 
ATOM     31  C   UNL     1       1.952  -1.149  -0.647  0.00  0.00    +0.009 C 
ATOM     32  C   UNL     1       1.110  -0.566   0.494  0.00  0.00    +0.015 C 
ATOM     33  C   UNL     1      -0.359  -0.910   0.275  0.00  0.00    +0.016 C 
ENDROOT
BRANCH  18  19
ATOM     19  C   UNL     1       3.299  -0.042  -5.603  0.00  0.00    +0.513 C 
ATOM     20  O   UNL     1       2.567   0.360  -6.490  0.00  0.00    -0.704 OA
ATOM     21  O   UNL     1       3.783   0.746  -4.808  0.00  0.00    -0.686 OA
ENDBRANCH  18  19
BRANCH   6   7
ATOM      7  O   UNL     1      -1.155   0.839   1.785  0.00  0.00    -0.545 OA
ATOM      8  H   UNL     1      -1.659   1.089   2.572  0.00  0.00    +0.366 HD
ENDBRANCH   6   7
TORSDOF 2
