REMARK  Name = ZINC05758645
REMARK  21 active torsions:
REMARK  status: ('A' for Active; 'I' for Inactive)
REMARK    1  A    between atoms: C1_1  and  C2_2
REMARK    2  A    between atoms: C2_2  and  C3_4
REMARK    3  A    between atoms: C2_2  and  C17_21
REMARK    4  A    between atoms: C3_4  and  C4_5
REMARK    5  A    between atoms: C4_5  and  C5_6
REMARK    6  A    between atoms: C5_6  and  C6_7
REMARK    7  A    between atoms: C6_7  and  C7_9
REMARK    8  A    between atoms: C6_7  and  C8_10
REMARK    9  A    between atoms: C8_10  and  C9_11
REMARK   10  A    between atoms: C9_11  and  C10_12
REMARK   11  A    between atoms: C10_12  and  C11_13
REMARK   12  A    between atoms: C11_13  and  C16_20
REMARK   13  A    between atoms: C12_14  and  C13_15
REMARK   14  A    between atoms: C13_15  and  O1_16
REMARK   15  A    between atoms: O1_16  and  C14_17
REMARK   16  A    between atoms: C14_17  and  C15_19
REMARK   17  A    between atoms: C17_21  and  C18_22
REMARK   18  A    between atoms: C18_22  and  C19_23
REMARK   19  A    between atoms: C19_23  and  C20_24
REMARK   20  A    between atoms: C20_24  and  C21_25
REMARK   21  A    between atoms: C20_24  and  C22_26
REMARK                            x       y       z     vdW  Elec       q    Type
REMARK                         _______ _______ _______ _____ _____    ______ ____
ROOT
ATOM     12  C   UNL     1       4.418  -0.168   2.335  0.00  0.00    -0.024 C 
ATOM     24  C   UNL     1       4.511   1.358   2.404  0.00  0.00    +0.013 C 
ENDROOT
BRANCH  12  11
ATOM     11  C   UNL     1       2.950  -0.593   2.408  0.00  0.00    +0.005 C 
BRANCH  11  10
ATOM     10  C   UNL     1       2.210  -0.086   1.169  0.00  0.00    +0.003 C 
BRANCH  10   9
ATOM      9  C   UNL     1       0.742  -0.511   1.242  0.00  0.00    +0.005 C 
BRANCH   9   2
ATOM      1  C   UNL     1      -0.019   1.526   0.010  0.00  0.00    +0.012 C 
ATOM      2  C   UNL     1       0.002  -0.004   0.002  0.00  0.00    -0.024 C 
BRANCH   2   3
ATOM      3  C   UNL     1      -1.433  -0.534   0.013  0.00  0.00    +0.005 C 
BRANCH   3   4
ATOM      4  C   UNL     1      -2.135  -0.131  -1.286  0.00  0.00    +0.003 C 
BRANCH   4   5
ATOM      5  C   UNL     1      -3.571  -0.661  -1.275  0.00  0.00    +0.005 C 
BRANCH   5   6
ATOM      6  C   UNL     1      -4.273  -0.258  -2.573  0.00  0.00    -0.031 C 
ATOM      7  C   UNL     1      -4.404   1.265  -2.631  0.00  0.00    +0.012 C 
ATOM      8  C   UNL     1      -5.664  -0.892  -2.618  0.00  0.00    +0.012 C 
ENDBRANCH   5   6
ENDBRANCH   4   5
ENDBRANCH   3   4
ENDBRANCH   2   3
ENDBRANCH   9   2
ENDBRANCH  10   9
ENDBRANCH  11  10
ENDBRANCH  12  11
BRANCH  12  13
ATOM     13  C   UNL     1       5.185  -0.779   3.510  0.00  0.00    +0.008 C 
BRANCH  13  14
ATOM     14  C   UNL     1       6.674  -0.457   3.369  0.00  0.00    +0.015 C 
BRANCH  14  15
ATOM     15  C   UNL     1       7.441  -1.068   4.543  0.00  0.00    +0.057 C 
BRANCH  15  16
ATOM     16  C   UNL     1       8.908  -0.752   4.404  0.00  0.00    -0.099 C 
ATOM     17  C   UNL     1       9.792  -1.631   3.557  0.00  0.00    +0.077 C 
ATOM     18  C   UNL     1       9.415   0.287   5.020  0.00  0.00    -0.051 C 
BRANCH  18  19
ATOM     19  C   UNL     1      10.882   0.604   4.881  0.00  0.00    +0.245 C 
BRANCH  19  20
ATOM     20  O   UNL     1      11.047   2.003   4.645  0.00  0.00    -0.349 OA
BRANCH  20  21
ATOM     21  C   UNL     1      12.303   2.453   4.497  0.00  0.00    +0.458 C 
ATOM     22  C   UNL     1      12.555   3.917   4.245  0.00  0.00    +0.157 C 
ATOM     23  O   UNL     1      13.232   1.683   4.566  0.00  0.00    -0.514 OA
ENDBRANCH  20  21
ENDBRANCH  19  20
ENDBRANCH  18  19
ENDBRANCH  15  16
ENDBRANCH  14  15
ENDBRANCH  13  14
ENDBRANCH  12  13
TORSDOF 15
