REMARK  Name = ZINC95486260
REMARK  10 active torsions:
REMARK  status: ('A' for Active; 'I' for Inactive)
REMARK    1  A    between atoms: C1_1  and  C2_2
REMARK    2  A    between atoms: C4_4  and  O8_31
REMARK    3  A    between atoms: C5_5  and  C14_17
REMARK    4  A    between atoms: C10_11  and  C11_13
REMARK    5  A    between atoms: C11_13  and  C12_14
REMARK    6  A    between atoms: C12_14  and  C13_16
REMARK    7  A    between atoms: C15_19  and  O7_30
REMARK    8  A    between atoms: C17_22  and  O6_29
REMARK    9  A    between atoms: C18_24  and  C19_27
REMARK   10  A    between atoms: C19_27  and  O5_28
REMARK                            x       y       z     vdW  Elec       q    Type
REMARK                         _______ _______ _______ _____ _____    ______ ____
ROOT
ATOM      1  C   UNL     1      -0.018   1.503   0.010  0.00  0.00    +0.119 C 
ATOM      2  C   UNL     1       0.002  -0.004   0.002  0.00  0.00    +0.032 A 
ATOM      3  C   UNL     1      -0.097  -0.685  -1.178  0.00  0.00    -0.051 A 
ATOM      4  C   UNL     1      -0.079  -2.078  -1.192  0.00  0.00    +0.236 A 
ATOM      7  C   UNL     1       0.040  -2.792  -0.011  0.00  0.00    -0.152 A 
ATOM     21  C   UNL     1       0.142  -2.115   1.196  0.00  0.00    +0.181 A 
ATOM     22  O   UNL     1       0.258  -2.785   2.360  0.00  0.00    -0.221 OA
ATOM     23  C   UNL     1       0.376  -2.160   3.537  0.00  0.00    +0.164 A 
ATOM     28  C   UNL     1       0.368  -0.821   3.656  0.00  0.00    -0.147 A 
ATOM     29  C   UNL     1       0.244  -0.014   2.493  0.00  0.00    +0.426 A 
ATOM     30  O   UNL     1       0.233   1.204   2.563  0.00  0.00    -0.465 OA
ATOM     31  C   UNL     1       0.128  -0.709   1.199  0.00  0.00    -0.247 A 
ENDROOT
BRANCH   7   8
ATOM      8  C   UNL     1       0.057  -4.299  -0.037  0.00  0.00    +0.232 C 
ATOM      9  C   UNL     1       1.417  -4.785  -0.547  0.00  0.00    +0.156 C 
ATOM     12  C   UNL     1       1.406  -6.314  -0.627  0.00  0.00    -0.032 C 
ATOM     13  C   UNL     1       0.253  -6.759  -1.533  0.00  0.00    +0.152 C 
ATOM     16  C   UNL     1      -1.061  -6.197  -0.985  0.00  0.00    +0.216 C 
ATOM     20  O   UNL     1      -0.973  -4.773  -0.906  0.00  0.00    -0.317 OA
BRANCH   9  10
ATOM     10  O   UNL     1       1.663  -4.239  -1.844  0.00  0.00    -0.543 OA
ATOM     11  H   UNL     1       2.509  -4.506  -2.229  0.00  0.00    +0.374 HD
ENDBRANCH   9  10
BRANCH  13  14
ATOM     14  O   UNL     1       0.469  -6.268  -2.857  0.00  0.00    -0.531 OA
ATOM     15  H   UNL     1       1.288  -6.581  -3.264  0.00  0.00    +0.372 HD
ENDBRANCH  13  14
BRANCH  16  17
ATOM     17  C   UNL     1      -1.319  -6.770   0.410  0.00  0.00    +0.152 C 
BRANCH  17  18
ATOM     18  O   UNL     1      -2.600  -6.338   0.874  0.00  0.00    -0.556 OA
ATOM     19  H   UNL     1      -2.830  -6.664   1.754  0.00  0.00    +0.381 HD
ENDBRANCH  17  18
ENDBRANCH  16  17
ENDBRANCH   7   8
BRANCH   4   5
ATOM      5  O   UNL     1      -0.180  -2.741  -2.372  0.00  0.00    -0.463 OA
ATOM      6  H   UNL     1       0.671  -2.921  -2.796  0.00  0.00    +0.401 HD
ENDBRANCH   4   5
BRANCH  23  24
ATOM     24  C   UNL     1       0.509  -2.994   4.786  0.00  0.00    +0.137 C 
BRANCH  24  25
ATOM     25  C   UNL     1      -0.860  -3.394   5.271  0.00  0.00    +0.353 C 
ATOM     26  C   UNL     1      -1.003  -4.237   6.512  0.00  0.00    +0.081 C 
ATOM     27  O   UNL     1      -1.843  -3.040   4.665  0.00  0.00    -0.437 OA
ENDBRANCH  24  25
ENDBRANCH  23  24
TORSDOF 8
