REMARK  Name = ZINC40422816
REMARK  11 active torsions:
REMARK  status: ('A' for Active; 'I' for Inactive)
REMARK    1  A    between atoms: C3_3  and  O11_37
REMARK    2  A    between atoms: C4_4  and  O10_36
REMARK    3  A    between atoms: C6_6  and  C7_7
REMARK    4  A    between atoms: C11_12  and  O9_35
REMARK    5  A    between atoms: C13_14  and  O3_18
REMARK    6  A    between atoms: O3_18  and  C16_19
REMARK    7  A    between atoms: C17_21  and  O8_34
REMARK    8  A    between atoms: C18_23  and  O7_33
REMARK    9  A    between atoms: C19_25  and  O6_32
REMARK   10  A    between atoms: C20_27  and  C21_30
REMARK   11  A    between atoms: C21_30  and  O5_31
REMARK                            x       y       z     vdW  Elec       q    Type
REMARK                         _______ _______ _______ _____ _____    ______ ____
ROOT
ATOM     11  C   UNL     1      -1.264  -0.761   0.011  0.00  0.00    +0.205 A 
ATOM     12  C   UNL     1      -2.437  -0.072   0.020  0.00  0.00    -0.140 A 
ATOM     13  C   UNL     1      -3.662  -0.781   0.029  0.00  0.00    +0.425 A 
ATOM     14  C   UNL     1      -3.594  -2.252   0.026  0.00  0.00    -0.285 A 
ATOM     15  C   UNL     1      -4.755  -3.034   0.033  0.00  0.00    +0.243 A 
ATOM     18  C   UNL     1      -4.648  -4.413   0.030  0.00  0.00    -0.095 A 
ATOM     19  C   UNL     1      -3.396  -5.016   0.020  0.00  0.00    +0.207 A 
ATOM     36  C   UNL     1      -2.241  -4.248   0.013  0.00  0.00    -0.028 A 
ATOM     37  C   UNL     1      -2.329  -2.865   0.016  0.00  0.00    +0.202 A 
ATOM     38  O   UNL     1      -4.733  -0.196   0.037  0.00  0.00    -0.454 OA
ATOM     39  O   UNL     1      -1.215  -2.102   0.003  0.00  0.00    -0.217 OA
ENDROOT
BRANCH  11  10
ATOM      1  C   UNL     1      -0.017   1.393   0.010  0.00  0.00    +0.074 A 
ATOM      2  C   UNL     1       1.168   2.098   0.002  0.00  0.00    +0.016 A 
ATOM      3  C   UNL     1       2.380   1.424  -0.014  0.00  0.00    +0.109 A 
ATOM      6  C   UNL     1       2.407   0.030  -0.021  0.00  0.00    +0.079 A 
ATOM      9  C   UNL     1       1.224  -0.683  -0.014  0.00  0.00    +0.056 A 
ATOM     10  C   UNL     1       0.002  -0.004   0.002  0.00  0.00    -0.065 A 
BRANCH   3   4
ATOM      4  O   UNL     1       3.545   2.124  -0.022  0.00  0.00    -0.485 OA
ATOM      5  H   UNL     1       3.891   2.322   0.859  0.00  0.00    +0.394 HD
ENDBRANCH   3   4
BRANCH   6   7
ATOM      7  O   UNL     1       3.597  -0.627  -0.037  0.00  0.00    -0.483 OA
ATOM      8  H   UNL     1       3.950  -0.822   0.842  0.00  0.00    +0.392 HD
ENDBRANCH   6   7
ENDBRANCH  11  10
BRANCH  15  16
ATOM     16  O   UNL     1      -5.977  -2.444   0.044  0.00  0.00    -0.473 OA
ATOM     17  H   UNL     1      -6.338  -2.271  -0.837  0.00  0.00    +0.406 HD
ENDBRANCH  15  16
BRANCH  19  20
ATOM     20  O   UNL     1      -3.302  -6.370   0.018  0.00  0.00    -0.285 OA
BRANCH  20  21
ATOM     21  C   UNL     1      -4.527  -7.106   0.026  0.00  0.00    +0.306 C 
ATOM     22  C   UNL     1      -4.232  -8.588   0.273  0.00  0.00    +0.151 C 
ATOM     25  C   UNL     1      -5.543  -9.377   0.220  0.00  0.00    +0.166 C 
ATOM     28  C   UNL     1      -6.218  -9.136  -1.134  0.00  0.00    +0.172 C 
ATOM     31  C   UNL     1      -6.436  -7.633  -1.326  0.00  0.00    +0.193 C 
ATOM     35  O   UNL     1      -5.182  -6.955  -1.235  0.00  0.00    -0.371 OA
BRANCH  22  23
ATOM     23  O   UNL     1      -3.628  -8.747   1.558  0.00  0.00    -0.552 OA
ATOM     24  H   UNL     1      -2.794  -8.269   1.663  0.00  0.00    +0.396 HD
ENDBRANCH  22  23
BRANCH  25  26
ATOM     26  O   UNL     1      -5.269 -10.771   0.378  0.00  0.00    -0.553 OA
ATOM     27  H   UNL     1      -4.835 -10.994   1.213  0.00  0.00    +0.397 HD
ENDBRANCH  25  26
BRANCH  28  29
ATOM     29  O   UNL     1      -7.477  -9.811  -1.167  0.00  0.00    -0.548 OA
ATOM     30  H   UNL     1      -7.413 -10.769  -1.047  0.00  0.00    +0.396 HD
ENDBRANCH  28  29
BRANCH  31  32
ATOM     32  C   UNL     1      -7.055  -7.379  -2.702  0.00  0.00    +0.229 C 
BRANCH  32  33
ATOM     33  O   UNL     1      -7.367  -5.991  -2.835  0.00  0.00    -0.567 OA
ATOM     34  H   UNL     1      -7.763  -5.757  -3.686  0.00  0.00    +0.386 HD
ENDBRANCH  32  33
ENDBRANCH  31  32
ENDBRANCH  20  21
ENDBRANCH  19  20
TORSDOF 11
