REMARK  Name = ZINC95486181
REMARK  13 active torsions:
REMARK  status: ('A' for Active; 'I' for Inactive)
REMARK    1  A    between atoms: C1_1  and  C2_2
REMARK    2  A    between atoms: C2_2  and  C3_4
REMARK    3  A    between atoms: C2_2  and  C10_11
REMARK    4  A    between atoms: C3_4  and  C4_5
REMARK    5  A    between atoms: C4_5  and  C5_6
REMARK    6  A    between atoms: C5_6  and  C7_8
REMARK    7  A    between atoms: C7_8  and  C8_9
REMARK    8  A    between atoms: C7_8  and  C9_10
REMARK    9  A    between atoms: C13_15  and  C31_37
REMARK   10  A    between atoms: C14_16  and  C30_36
REMARK   11  A    between atoms: C21_23  and  O1_35
REMARK   12  A    between atoms: C22_25  and  C28_33
REMARK   13  A    between atoms: C22_25  and  C29_34
REMARK                            x       y       z     vdW  Elec       q    Type
REMARK                         _______ _______ _______ _____ _____    ______ ____
ROOT
ATOM      3  C   UNL     1       1.171  -0.753   0.528  0.00  0.00    -0.004 C 
ATOM      4  C   UNL     1       0.547   0.242   1.535  0.00  0.00    +0.006 C 
ATOM      5  C   UNL     1       0.065  -0.602   2.745  0.00  0.00    +0.012 C 
ATOM      6  C   UNL     1      -0.134  -1.998   2.138  0.00  0.00    -0.056 C 
ATOM      7  C   UNL     1      -1.441  -2.058   1.344  0.00  0.00    +0.028 C 
ATOM      8  C   UNL     1      -0.059  -3.144   3.130  0.00  0.00    +0.028 C 
ATOM      9  C   UNL     1      -0.223  -4.463   2.351  0.00  0.00    +0.023 C 
ATOM     10  C   UNL     1      -0.034  -5.625   3.326  0.00  0.00    +0.007 C 
ATOM     11  C   UNL     1       1.441  -5.658   3.756  0.00  0.00    +0.023 C 
ATOM     12  C   UNL     1       2.252  -6.176   2.585  0.00  0.00    +0.009 C 
ATOM     13  C   UNL     1       3.627  -6.633   2.924  0.00  0.00    -0.034 C 
ATOM     14  C   UNL     1       3.778  -6.618   4.446  0.00  0.00    +0.027 C 
ATOM     15  C   UNL     1       3.785  -8.078   2.446  0.00  0.00    +0.029 C 
ATOM     16  C   UNL     1       4.745  -5.810   2.326  0.00  0.00    +0.174 C 
ATOM     19  C   UNL     1       4.521  -5.538   0.853  0.00  0.00    -0.018 C 
ATOM     20  C   UNL     1       3.230  -4.804   0.591  0.00  0.00    +0.050 C 
ATOM     21  C   UNL     1       2.023  -5.399   1.313  0.00  0.00    -0.086 C 
ATOM     22  C   UNL     1       0.859  -5.889   0.431  0.00  0.00    +0.007 C 
ATOM     23  C   UNL     1       0.739  -4.558   1.179  0.00  0.00    -0.093 C 
ATOM     24  C   UNL     1       0.859  -3.299   0.287  0.00  0.00    +0.073 C 
ATOM     25  C   UNL     1       1.108  -2.119   1.209  0.00  0.00    -0.046 C 
ATOM     26  C   UNL     1       2.368  -2.346   2.046  0.00  0.00    +0.030 C 
ENDROOT
BRANCH   3   2
ATOM      1  C   UNL     1       0.026   0.664  -1.181  0.00  0.00    +0.010 C 
ATOM      2  C   UNL     1       0.362  -0.771  -0.770  0.00  0.00    -0.010 C 
BRANCH   2  27
ATOM     27  C   UNL     1       1.185  -1.438  -1.874  0.00  0.00    +0.016 C 
BRANCH  27  28
ATOM     28  C   UNL     1       0.349  -1.522  -3.153  0.00  0.00    +0.049 C 
BRANCH  28  29
ATOM     29  C   UNL     1       1.159  -2.179  -4.241  0.00  0.00    -0.110 C 
ATOM     33  C   UNL     1       1.045  -3.466  -4.455  0.00  0.00    -0.010 C 
BRANCH  29  30
ATOM     30  C   UNL     1       2.099  -1.355  -5.082  0.00  0.00    +0.010 C 
ATOM     31  C   UNL     1       3.151  -0.703  -4.181  0.00  0.00    +0.024 C 
ATOM     32  C   UNL     1       1.310  -0.268  -5.814  0.00  0.00    +0.022 C 
ENDBRANCH  29  30
ENDBRANCH  28  29
ENDBRANCH  27  28
ENDBRANCH   2  27
ENDBRANCH   3   2
BRANCH  16  17
ATOM     17  O   UNL     1       5.978  -6.516   2.486  0.00  0.00    -0.564 OA
ATOM     18  H   UNL     1       6.751  -6.036   2.160  0.00  0.00    +0.375 HD
ENDBRANCH  16  17
TORSDOF 6
