REMARK  Name = ZINC95486058
REMARK  6 active torsions:
REMARK  status: ('A' for Active; 'I' for Inactive)
REMARK    1  A    between atoms: C1_1  and  C2_2
REMARK    2  A    between atoms: C10_12  and  C13_18
REMARK    3  A    between atoms: C11_14  and  C12_17
REMARK    4  A    between atoms: C13_18  and  C14_20
REMARK    5  A    between atoms: C15_22  and  C16_24
REMARK    6  A    between atoms: C15_22  and  C17_25
REMARK                            x       y       z     vdW  Elec       q    Type
REMARK                         _______ _______ _______ _____ _____    ______ ____
ROOT
ATOM      1  C   UNL     1      -0.424   1.386  -0.067  0.00  0.00    +0.111 C 
ATOM      2  C   UNL     1      -0.098  -0.084  -0.014  0.00  0.00    -0.029 A 
ATOM      3  C   UNL     1       0.032  -0.800  -1.189  0.00  0.00    -0.003 A 
ATOM      4  C   UNL     1       0.333  -2.149  -1.144  0.00  0.00    +0.064 A 
ATOM      5  C   UNL     1       0.510  -2.778   0.071  0.00  0.00    +0.007 A 
ATOM      6  C   UNL     1       0.385  -2.067   1.258  0.00  0.00    +0.128 A 
ATOM      7  O   UNL     1       0.585  -2.719   2.436  0.00  0.00    -0.292 OA
ATOM      8  C   UNL     1       0.526  -2.038   3.600  0.00  0.00    +0.509 C 
ATOM      9  O   UNL     1       0.168  -2.560   4.629  0.00  0.00    -0.416 OA
ATOM     10  C   UNL     1       0.915  -0.590   3.513  0.00  0.00    -0.032 C 
ATOM     11  C   UNL     1       0.563   0.295   4.719  0.00  0.00    -0.013 C 
ATOM     19  C   UNL     1       0.342   1.670   4.023  0.00  0.00    +0.190 C 
ATOM     20  C   UNL     1       1.610   2.519   4.134  0.00  0.00    +0.061 C 
ATOM     21  O   UNL     1       0.063   1.401   2.632  0.00  0.00    -0.332 OA
ATOM     22  C   UNL     1      -0.081   0.017   2.483  0.00  0.00    +0.213 C 
ATOM     23  C   UNL     1       0.075  -0.705   1.205  0.00  0.00    -0.143 A 
ENDROOT
BRANCH  11  12
ATOM     12  C   UNL     1      -0.698  -0.182   5.393  0.00  0.00    +0.382 C 
ATOM     18  O   UNL     1      -1.569  -0.706   4.741  0.00  0.00    -0.418 OA
BRANCH  12  13
ATOM     13  C   UNL     1      -0.871  -0.005   6.879  0.00  0.00    +0.082 C 
ATOM     14  C   UNL     1      -2.152   0.671   7.372  0.00  0.00    +0.051 C 
ATOM     15  C   UNL     1      -3.170   1.121   6.322  0.00  0.00    +0.091 C 
ATOM     16  C   UNL     1      -2.060   1.543   8.626  0.00  0.00    +0.101 C 
ATOM     17  O   UNL     1      -1.921  -0.733   7.519  0.00  0.00    -0.312 OA
ENDBRANCH  12  13
ENDBRANCH  11  12
TORSDOF 2
