REMARK  Name = ZINC95486092
REMARK  16 active torsions:
REMARK  status: ('A' for Active; 'I' for Inactive)
REMARK    1  A    between atoms: C1_1  and  C2_2
REMARK    2  A    between atoms: C2_2  and  C31_42
REMARK    3  A    between atoms: C3_3  and  C4_4
REMARK    4  A    between atoms: C4_4  and  C5_5
REMARK    5  A    between atoms: C5_5  and  C6_6
REMARK    6  A    between atoms: C6_6  and  C7_8
REMARK    7  A    between atoms: C6_6  and  C29_38
REMARK    8  A    between atoms: C8_10  and  O3_37
REMARK    9  A    between atoms: C10_13  and  C28_36
REMARK   10  A    between atoms: C11_14  and  C27_35
REMARK   11  A    between atoms: C17_21  and  O2_34
REMARK   12  A    between atoms: C19_25  and  C26_33
REMARK   13  A    between atoms: C23_30  and  C24_31
REMARK   14  A    between atoms: C23_30  and  C25_32
REMARK   15  A    between atoms: C29_38  and  O5_40
REMARK   16  A    between atoms: O5_40  and  C30_41
REMARK                            x       y       z     vdW  Elec       q    Type
REMARK                         _______ _______ _______ _____ _____    ______ ____
ROOT
ATOM     12  C   UNL     1       2.860  -1.473   4.603  0.00  0.00    +0.029 C 
ATOM     13  C   UNL     1       3.094  -0.869   6.013  0.00  0.00    +0.178 C 
ATOM     16  C   UNL     1       2.228  -1.708   6.997  0.00  0.00    +0.003 C 
ATOM     17  C   UNL     1       1.215  -2.384   6.053  0.00  0.00    -0.015 C 
ATOM     18  C   UNL     1       0.161  -1.363   5.597  0.00  0.00    +0.047 C 
ATOM     19  C   UNL     1       0.540  -3.609   6.599  0.00  0.00    -0.071 C 
ATOM     20  C   UNL     1       0.029  -3.571   7.787  0.00  0.00    -0.086 C 
ATOM     21  C   UNL     1      -0.733  -4.729   8.388  0.00  0.00    +0.209 C 
ATOM     24  C   UNL     1      -1.473  -5.470   7.270  0.00  0.00    +0.048 C 
ATOM     25  C   UNL     1      -0.468  -5.918   6.213  0.00  0.00    -0.041 C 
ATOM     26  C   UNL     1      -1.183  -6.472   4.977  0.00  0.00    +0.038 C 
ATOM     27  C   UNL     1       0.424  -7.034   6.788  0.00  0.00    +0.034 C 
ATOM     28  C   UNL     1      -0.406  -8.261   7.142  0.00  0.00    +0.025 C 
ATOM     29  C   UNL     1      -1.501  -7.846   8.090  0.00  0.00    +0.365 C 
ATOM     30  O   UNL     1      -1.727  -8.500   9.091  0.00  0.00    -0.454 OA
ATOM     31  C   UNL     1      -2.324  -6.613   7.801  0.00  0.00    -0.096 C 
ATOM     32  C   UNL     1      -3.036  -6.248   9.119  0.00  0.00    +0.057 C 
ATOM     33  C   UNL     1      -3.465  -6.972   6.833  0.00  0.00    +0.055 C 
ATOM     34  C   UNL     1       0.482  -4.828   5.735  0.00  0.00    +0.035 C 
ATOM     35  C   UNL     1       0.358  -4.476   4.267  0.00  0.00    +0.032 C 
ATOM     36  C   UNL     1       1.371  -3.426   3.780  0.00  0.00    +0.025 C 
ATOM     37  C   UNL     1       2.152  -2.807   4.893  0.00  0.00    -0.043 C 
ATOM     38  C   UNL     1       3.249  -3.762   5.369  0.00  0.00    +0.029 C 
ENDROOT
BRANCH  13  14
ATOM     14  O   UNL     1       2.689   0.500   6.036  0.00  0.00    -0.556 OA
ATOM     15  H   UNL     1       2.811   0.932   6.893  0.00  0.00    +0.377 HD
ENDBRANCH  13  14
BRANCH  21  22
ATOM     22  O   UNL     1      -1.623  -4.111   9.330  0.00  0.00    -0.558 OA
ATOM     23  H   UNL     1      -1.174  -3.612  10.026  0.00  0.00    +0.376 HD
ENDBRANCH  21  22
BRANCH  12   7
ATOM      7  C   UNL     1       4.195  -1.739   3.907  0.00  0.00    +0.037 C 
BRANCH   7   8
ATOM      8  C   UNL     1       4.952  -0.444   3.760  0.00  0.00    +0.464 C 
ATOM     11  O   UNL     1       5.254  -0.042   2.662  0.00  0.00    -0.500 OA
BRANCH   8   9
ATOM      9  O   UNL     1       5.289   0.263   4.850  0.00  0.00    -0.345 OA
ATOM     10  C   UNL     1       6.006   1.481   4.637  0.00  0.00    +0.250 C 
ENDBRANCH   8   9
ENDBRANCH   7   8
BRANCH   7   6
ATOM      6  C   UNL     1       3.938  -2.339   2.523  0.00  0.00    +0.056 C 
BRANCH   6   5
ATOM      5  C   UNL     1       5.274  -2.671   1.855  0.00  0.00    +0.047 C 
BRANCH   5   4
ATOM      1  C   UNL     1       6.620  -1.648  -0.402  0.00  0.00    +0.072 C 
ATOM      2  C   UNL     1       5.602  -2.747  -0.563  0.00  0.00    -0.128 C 
ATOM      3  C   UNL     1       5.253  -3.255  -1.939  0.00  0.00    +0.070 C 
ATOM      4  C   UNL     1       5.021  -3.261   0.492  0.00  0.00    -0.063 C 
ENDBRANCH   5   4
ENDBRANCH   6   5
ENDBRANCH   7   6
ENDBRANCH  12   7
TORSDOF 8
