REMARK  Name = ZINC95486003
REMARK  9 active torsions:
REMARK  status: ('A' for Active; 'I' for Inactive)
REMARK    1  A    between atoms: C1_1  and  C2_2
REMARK    2  A    between atoms: C7_8  and  C20_26
REMARK    3  A    between atoms: C7_8  and  C21_27
REMARK    4  A    between atoms: C8_9  and  O3_25
REMARK    5  A    between atoms: C10_12  and  C19_24
REMARK    6  A    between atoms: C11_13  and  C18_23
REMARK    7  A    between atoms: C14_16  and  O2_22
REMARK    8  A    between atoms: C15_18  and  C16_19
REMARK    9  A    between atoms: C15_18  and  C17_20
REMARK                            x       y       z     vdW  Elec       q    Type
REMARK                         _______ _______ _______ _____ _____    ______ ____
ROOT
ATOM      1  C   UNL     1       0.348   1.493  -0.191  0.00  0.00    +0.020 C 
ATOM      2  C   UNL     1       0.334  -0.053  -0.128  0.00  0.00    -0.014 C 
ATOM      3  C   UNL     1      -1.135  -0.482  -0.192  0.00  0.00    +0.024 C 
ATOM      4  C   UNL     1      -1.878   0.025   1.049  0.00  0.00    +0.013 C 
ATOM      5  C   UNL     1      -1.251  -0.574   2.305  0.00  0.00    -0.002 C 
ATOM      6  C   UNL     1      -2.023  -0.136   3.546  0.00  0.00    +0.034 C 
ATOM      7  C   UNL     1      -1.438  -0.767   4.807  0.00  0.00    -0.018 C 
ATOM     10  C   UNL     1      -1.722  -2.272   4.823  0.00  0.00    +0.038 C 
ATOM     11  C   UNL     1       0.065  -0.521   4.912  0.00  0.00    +0.177 C 
ATOM     14  C   UNL     1       0.793  -0.945   3.635  0.00  0.00    +0.000 C 
ATOM     15  C   UNL     1       0.222  -0.183   2.426  0.00  0.00    -0.025 C 
ATOM     16  C   UNL     1       0.364   1.306   2.750  0.00  0.00    +0.023 C 
ATOM     17  C   UNL     1       1.081  -0.463  -1.396  0.00  0.00    -0.092 C 
ATOM     20  C   UNL     1       0.779  -1.874  -1.879  0.00  0.00    +0.064 C 
ATOM     21  C   UNL     1       2.584  -0.230  -1.287  0.00  0.00    +0.182 C 
ATOM     24  C   UNL     1       3.191  -0.705   0.023  0.00  0.00    -0.015 C 
ATOM     25  C   UNL     1       2.434  -0.132   1.222  0.00  0.00    +0.028 C 
ATOM     26  C   UNL     1       0.970  -0.573   1.151  0.00  0.00    -0.019 C 
ATOM     27  C   UNL     1       0.979  -2.122   1.123  0.00  0.00    +0.020 C 
ENDROOT
BRANCH   7   8
ATOM      8  C   UNL     1      -2.113  -0.145   6.013  0.00  0.00    -0.044 C 
ATOM      9  C   UNL     1      -2.783  -0.898   6.849  0.00  0.00    +0.007 C 
ENDBRANCH   7   8
BRANCH  11  12
ATOM     12  O   UNL     1       0.580  -1.301   6.005  0.00  0.00    -0.568 OA
ATOM     13  H   UNL     1       1.532  -1.204   6.143  0.00  0.00    +0.374 HD
ENDBRANCH  11  12
BRANCH  17  18
ATOM     18  C   UNL     1       0.596   0.482  -2.502  0.00  0.00    +0.437 C 
ATOM     19  O   UNL     1       1.384   1.195  -3.075  0.00  0.00    -0.456 OA
ENDBRANCH  17  18
BRANCH  21  22
ATOM     22  O   UNL     1       3.237  -0.897  -2.377  0.00  0.00    -0.565 OA
ATOM     23  H   UNL     1       4.189  -0.735  -2.424  0.00  0.00    +0.377 HD
ENDBRANCH  21  22
TORSDOF 4
