REMARK  Name = ZINC95486218
REMARK  11 active torsions:
REMARK  status: ('A' for Active; 'I' for Inactive)
REMARK    1  A    between atoms: C1_1  and  C2_2
REMARK    2  A    between atoms: C8_8  and  O4_29
REMARK    3  A    between atoms: C10_10  and  O3_28
REMARK    4  A    between atoms: C11_11  and  C12_12
REMARK    5  A    between atoms: C13_13  and  O2_26
REMARK    6  A    between atoms: C17_17  and  C23_25
REMARK    7  A    between atoms: C18_19  and  C22_24
REMARK    8  A    between atoms: C20_21  and  O1_22
REMARK    9  A    between atoms: O1_22  and  C21_23
REMARK   10  A    between atoms: O2_26  and  C24_27
REMARK   11  A    between atoms: O4_29  and  C25_30
REMARK                            x       y       z     vdW  Elec       q    Type
REMARK                         _______ _______ _______ _____ _____    ______ ____
ROOT
ATOM     16  C   UNL     1      -0.026   0.775   2.221  0.00  0.00    -0.049 A 
ATOM     17  C   UNL     1       1.180   1.144   2.848  0.00  0.00    +0.232 A 
ATOM     20  C   UNL     1       1.192   1.575   4.143  0.00  0.00    -0.074 A 
ATOM     21  C   UNL     1      -0.007   1.653   4.865  0.00  0.00    +0.070 A 
ATOM     22  C   UNL     1      -0.043   2.092   6.202  0.00  0.00    +0.071 A 
ATOM     23  C   UNL     1      -1.245   2.143   6.841  0.00  0.00    +0.111 A 
ATOM     24  C   UNL     1      -1.293   2.610   8.273  0.00  0.00    +0.175 C 
ATOM     25  N   UNL     1      -2.373   1.792   6.239  0.00  0.00    -0.468 N 
ATOM     26  H   UNL     1      -3.203   1.846   6.739  0.00  0.00    +0.443 HD
ATOM     27  C   UNL     1      -2.414   1.373   4.995  0.00  0.00    +0.266 A 
ATOM     28  C   UNL     1      -3.732   0.989   4.372  0.00  0.00    +0.199 C 
ATOM     29  C   UNL     1      -1.231   1.284   4.247  0.00  0.00    -0.151 A 
ATOM     30  C   UNL     1      -1.229   0.847   2.909  0.00  0.00    +0.203 A 
ENDROOT
BRANCH  16  15
ATOM      1  C   UNL     1      -0.317   2.701   0.098  0.00  0.00    +0.092 C 
ATOM      2  C   UNL     1      -0.152   1.239  -0.228  0.00  0.00    -0.042 A 
ATOM      3  C   UNL     1      -0.136   0.840  -1.526  0.00  0.00    +0.017 A 
ATOM      4  C   UNL     1       0.018  -0.522  -1.844  0.00  0.00    +0.012 A 
ATOM      5  C   UNL     1       0.037  -0.955  -3.181  0.00  0.00    -0.022 A 
ATOM      6  C   UNL     1       0.188  -2.278  -3.466  0.00  0.00    +0.076 A 
ATOM      7  C   UNL     1       0.324  -3.220  -2.450  0.00  0.00    -0.092 A 
ATOM      8  C   UNL     1       0.310  -2.837  -1.128  0.00  0.00    +0.159 A 
ATOM     11  C   UNL     1       0.156  -1.473  -0.803  0.00  0.00    -0.104 A 
ATOM     12  C   UNL     1       0.138  -1.043   0.536  0.00  0.00    +0.190 A 
ATOM     15  C   UNL     1      -0.011   0.310   0.814  0.00  0.00    -0.108 A 
BRANCH   8   9
ATOM      9  O   UNL     1       0.443  -3.764  -0.144  0.00  0.00    -0.297 OA
ATOM     10  C   UNL     1       0.594  -5.125  -0.552  0.00  0.00    +0.245 C 
ENDBRANCH   8   9
BRANCH  12  13
ATOM     13  O   UNL     1       0.269  -1.940   1.546  0.00  0.00    -0.475 OA
ATOM     14  H   UNL     1       1.184  -2.096   1.817  0.00  0.00    +0.392 HD
ENDBRANCH  12  13
ENDBRANCH  16  15
BRANCH  17  18
ATOM     18  O   UNL     1       2.345   1.071   2.154  0.00  0.00    -0.285 OA
ATOM     19  C   UNL     1       3.535   1.459   2.844  0.00  0.00    +0.270 C 
ENDBRANCH  17  18
BRANCH  30  31
ATOM     31  O   UNL     1      -2.390   0.495   2.301  0.00  0.00    -0.314 OA
ATOM     32  C   UNL     1      -3.037   1.494   1.510  0.00  0.00    +0.257 C 
ENDBRANCH  30  31
TORSDOF 5
