REMARK  Name = ZINC31852149
REMARK  5 active torsions:
REMARK  status: ('A' for Active; 'I' for Inactive)
REMARK    1  A    between atoms: C1_1  and  C2_2
REMARK    2  A    between atoms: C13_14  and  O4_30
REMARK    3  A    between atoms: C15_16  and  O3_28
REMARK    4  A    between atoms: C21_24  and  C22_27
REMARK    5  A    between atoms: O3_28  and  C23_29
REMARK                            x       y       z     vdW  Elec       q    Type
REMARK                         _______ _______ _______ _____ _____    ______ ____
ROOT
ATOM      1  C   UNL     1      -0.019   1.530   0.011  0.00  0.00    +0.038 C 
ATOM      2  C   UNL     1       0.002  -0.004   0.002  0.00  0.00    +0.129 C 
ATOM      3  C   UNL     1      -1.435  -0.524   0.001  0.00  0.00    +0.102 C 
ATOM      4  C   UNL     1      -1.459  -2.005   0.278  0.00  0.00    -0.029 A 
ATOM      5  C   UNL     1      -2.621  -2.706  -0.029  0.00  0.00    +0.005 A 
ATOM      6  C   UNL     1      -2.706  -4.061   0.193  0.00  0.00    +0.068 A 
ATOM      7  C   UNL     1      -1.613  -4.745   0.720  0.00  0.00    -0.108 A 
ATOM      8  C   UNL     1      -1.628  -6.201   0.932  0.00  0.00    -0.013 A 
ATOM      9  C   UNL     1      -2.486  -7.092   0.261  0.00  0.00    +0.004 A 
ATOM     10  C   UNL     1      -3.258  -6.695  -0.839  0.00  0.00    +0.016 A 
ATOM     11  C   UNL     1      -4.174  -7.548  -1.380  0.00  0.00    +0.054 A 
ATOM     12  C   UNL     1      -4.327  -8.836  -0.883  0.00  0.00    -0.007 A 
ATOM     13  C   UNL     1      -3.525  -9.293   0.142  0.00  0.00    +0.141 A 
ATOM     16  C   UNL     1      -2.540  -8.447   0.686  0.00  0.00    -0.072 A 
ATOM     17  C   UNL     1      -1.597  -8.922   1.623  0.00  0.00    +0.159 A 
ATOM     20  C   UNL     1      -0.683  -8.071   2.179  0.00  0.00    -0.029 A 
ATOM     21  C   UNL     1      -0.688  -6.714   1.848  0.00  0.00    -0.122 A 
ATOM     22  C   UNL     1       0.290  -5.759   2.402  0.00  0.00    +0.533 A 
ATOM     23  O   UNL     1       0.594  -4.684   1.632  0.00  0.00    -0.282 OA
ATOM     24  O   UNL     1       0.798  -5.926   3.491  0.00  0.00    -0.422 OA
ATOM     25  C   UNL     1      -0.451  -4.029   1.061  0.00  0.00    +0.128 A 
ATOM     26  C   UNL     1      -0.378  -2.660   0.825  0.00  0.00    -0.074 A 
ATOM     27  C   UNL     1       0.891  -1.934   1.184  0.00  0.00    +0.231 C 
ATOM     28  C   UNL     1       1.991  -2.289   0.183  0.00  0.00    +0.008 C 
ATOM     29  N   UNL     1       0.688  -0.487   1.206  0.00  0.00    -0.683 NA
ATOM     30  H   UNL     1       1.557   0.004   1.354  0.00  0.00    +0.353 HD
ENDROOT
BRANCH  13  14
ATOM     14  O   UNL     1      -3.706 -10.553   0.615  0.00  0.00    -0.478 OA
ATOM     15  H   UNL     1      -3.177 -11.223   0.160  0.00  0.00    +0.394 HD
ENDBRANCH  13  14
BRANCH  17  18
ATOM     18  O   UNL     1      -1.576 -10.231   1.982  0.00  0.00    -0.296 OA
ATOM     19  C   UNL     1      -0.589 -10.626   2.937  0.00  0.00    +0.250 C 
ENDBRANCH  17  18
TORSDOF 2
