REMARK  Name = ZINC14422042
REMARK  10 active torsions:
REMARK  status: ('A' for Active; 'I' for Inactive)
REMARK    1  A    between atoms: C2_2  and  C7_10
REMARK    2  A    between atoms: C4_4  and  O3_9
REMARK    3  A    between atoms: C5_5  and  O2_8
REMARK    4  A    between atoms: C6_6  and  O1_7
REMARK    5  A    between atoms: C7_10  and  O5_12
REMARK    6  A    between atoms: O5_12  and  C8_13
REMARK    7  A    between atoms: C8_13  and  C9_14
REMARK    8  A    between atoms: C10_16  and  O9_26
REMARK    9  A    between atoms: C11_18  and  O8_25
REMARK   10  A    between atoms: C12_20  and  O7_24
REMARK                            x       y       z     vdW  Elec       q    Type
REMARK                         _______ _______ _______ _____ _____    ______ ____
ROOT
ATOM      3  C   UNL     1       3.431  -2.761   3.282  0.00  0.00    +0.515 C 
ATOM     18  O   UNL     1       3.892  -2.155   4.228  0.00  0.00    -0.497 OA
ENDROOT
BRANCH   3   2
ATOM      1  C   UNL     1       4.116  -4.932   4.287  0.00  0.00    +0.081 A 
ATOM      2  C   UNL     1       3.510  -4.233   3.239  0.00  0.00    -0.102 A 
ATOM     19  C   UNL     1       2.975  -4.932   2.154  0.00  0.00    +0.075 A 
ATOM     20  C   UNL     1       3.056  -6.311   2.114  0.00  0.00    +0.085 A 
ATOM     23  C   UNL     1       3.660  -7.005   3.159  0.00  0.00    +0.094 A 
ATOM     26  C   UNL     1       4.189  -6.312   4.244  0.00  0.00    +0.087 A 
BRANCH  20  21
ATOM     21  O   UNL     1       2.540  -6.992   1.055  0.00  0.00    -0.479 OA
ATOM     22  H   UNL     1       1.612  -7.242   1.163  0.00  0.00    +0.392 HD
ENDBRANCH  20  21
BRANCH  23  24
ATOM     24  O   UNL     1       3.733  -8.361   3.120  0.00  0.00    -0.473 OA
ATOM     25  H   UNL     1       2.976  -8.808   3.523  0.00  0.00    +0.392 HD
ENDBRANCH  23  24
BRANCH  26  27
ATOM     27  O   UNL     1       4.779  -6.992   5.263  0.00  0.00    -0.478 OA
ATOM     28  H   UNL     1       4.171  -7.244   5.972  0.00  0.00    +0.393 HD
ENDBRANCH  26  27
ENDBRANCH   3   2
BRANCH   3   4
ATOM      4  O   UNL     1       2.846  -2.088   2.271  0.00  0.00    -0.344 OA
BRANCH   4   5
ATOM      5  C   UNL     1       2.803  -0.641   2.380  0.00  0.00    +0.270 C 
BRANCH   5   6
ATOM      6  C   UNL     1       2.108  -0.057   1.149  0.00  0.00    +0.186 C 
ATOM      7  C   UNL     1       2.172   1.471   1.203  0.00  0.00    +0.173 C 
ATOM     10  C   UNL     1       1.421   2.049  -0.001  0.00  0.00    +0.158 C 
ATOM     13  C   UNL     1      -0.019   1.527   0.010  0.00  0.00    +0.116 C 
ATOM     16  C   UNL     1       0.002  -0.004   0.002  0.00  0.00    +0.204 C 
ATOM     17  O   UNL     1       0.741  -0.475   1.131  0.00  0.00    -0.355 OA
BRANCH   7   8
ATOM      8  O   UNL     1       3.536   1.894   1.164  0.00  0.00    -0.552 OA
ATOM      9  H   UNL     1       3.652   2.854   1.195  0.00  0.00    +0.396 HD
ENDBRANCH   7   8
BRANCH  10  11
ATOM     11  O   UNL     1       1.413   3.476   0.081  0.00  0.00    -0.560 OA
ATOM     12  H   UNL     1       0.947   3.909  -0.647  0.00  0.00    +0.394 HD
ENDBRANCH  10  11
BRANCH  13  14
ATOM     14  O   UNL     1      -0.708   2.001  -1.148  0.00  0.00    -0.560 OA
ATOM     15  H   UNL     1      -1.626   1.704  -1.209  0.00  0.00    +0.389 HD
ENDBRANCH  13  14
ENDBRANCH   5   6
ENDBRANCH   4   5
ENDBRANCH   3   4
TORSDOF 10
