REMARK  Name = ZINC03589229
REMARK  4 active torsions:
REMARK  status: ('A' for Active; 'I' for Inactive)
REMARK    1  A    between atoms: C1_1  and  C2_2
REMARK    2  A    between atoms: C3_4  and  C11_17
REMARK    3  A    between atoms: C6_9  and  O4_16
REMARK    4  A    between atoms: C8_11  and  O3_15
REMARK                            x       y       z     vdW  Elec       q    Type
REMARK                         _______ _______ _______ _____ _____    ______ ____
ROOT
ATOM      1  C   UNL     1       1.249   1.789   4.976  0.00  0.00    +0.068 C 
ATOM      2  C   UNL     1       2.114   1.612   3.726  0.00  0.00    -0.052 C 
ATOM      3  C   UNL     1       3.032   2.830   3.549  0.00  0.00    +0.179 C 
ATOM      4  C   UNL     1       3.971   2.942   4.751  0.00  0.00    +0.086 C 
ATOM      5  O   UNL     1       3.801   2.672   2.357  0.00  0.00    -0.302 OA
ATOM      6  C   UNL     1       3.156   2.401   1.198  0.00  0.00    +0.214 A 
ATOM      7  C   UNL     1       3.758   2.693  -0.013  0.00  0.00    -0.054 A 
ATOM      8  C   UNL     1       3.104   2.410  -1.205  0.00  0.00    +0.197 A 
ATOM     11  C   UNL     1       1.841   1.830  -1.201  0.00  0.00    -0.077 A 
ATOM     12  C   UNL     1       1.220   1.531  -0.001  0.00  0.00    +0.221 A 
ATOM     15  C   UNL     1       1.871   1.826   1.207  0.00  0.00    -0.293 A 
ATOM     16  C   UNL     1       1.232   1.530   2.494  0.00  0.00    +0.399 C 
ATOM     17  O   UNL     1       0.056   1.239   2.569  0.00  0.00    -0.422 OA
ENDROOT
BRANCH   8   9
ATOM      9  O   UNL     1       3.704   2.703  -2.386  0.00  0.00    -0.491 OA
ATOM     10  H   UNL     1       3.510   3.590  -2.717  0.00  0.00    +0.403 HD
ENDBRANCH   8   9
BRANCH  12  13
ATOM     13  O   UNL     1      -0.011   0.963   0.007  0.00  0.00    -0.477 OA
ATOM     14  H   UNL     1       0.002  -0.004   0.002  0.00  0.00    +0.401 HD
ENDBRANCH  12  13
TORSDOF 2
