REMARK  Name = ZINC95486199
REMARK  7 active torsions:
REMARK  status: ('A' for Active; 'I' for Inactive)
REMARK    1  A    between atoms: C1_1  and  C2_2
REMARK    2  A    between atoms: C3_3  and  O3_33
REMARK    3  A    between atoms: C11_12  and  C29_32
REMARK    4  A    between atoms: C14_15  and  C28_31
REMARK    5  A    between atoms: C15_16  and  C27_30
REMARK    6  A    between atoms: C18_19  and  C25_27
REMARK    7  A    between atoms: C25_27  and  C26_29
REMARK                            x       y       z     vdW  Elec       q    Type
REMARK                         _______ _______ _______ _____ _____    ______ ____
ROOT
ATOM      1  C   UNL     1       0.454   3.277   0.995  0.00  0.00    +0.108 C 
ATOM      2  C   UNL     1       0.545   1.774   0.948  0.00  0.00    -0.073 C 
ATOM      3  C   UNL     1       0.593   1.134  -0.249  0.00  0.00    +0.014 C 
ATOM      6  C   UNL     1       0.682  -0.279  -0.286  0.00  0.00    +0.380 C 
ATOM      7  C   UNL     1       0.741  -1.015   0.912  0.00  0.00    -0.108 C 
ATOM      8  C   UNL     1       0.698  -0.379   2.114  0.00  0.00    +0.030 C 
ATOM      9  C   UNL     1       0.779  -1.189   3.372  0.00  0.00    -0.003 C 
ATOM     10  C   UNL     1       2.154  -1.859   3.420  0.00  0.00    +0.065 C 
ATOM     11  C   UNL     1      -0.275  -2.297   3.371  0.00  0.00    +0.053 C 
ATOM     12  C   UNL     1      -0.184  -3.090   4.679  0.00  0.00    +0.036 C 
ATOM     13  C   UNL     1      -0.480  -2.168   5.859  0.00  0.00    -0.041 C 
ATOM     14  C   UNL     1      -1.841  -1.502   5.652  0.00  0.00    +0.028 C 
ATOM     15  C   UNL     1       0.618  -1.075   5.941  0.00  0.00    -0.020 C 
ATOM     16  C   UNL     1       1.984  -1.711   6.206  0.00  0.00    +0.050 C 
ATOM     17  C   UNL     1       0.253  -0.105   7.065  0.00  0.00    +0.027 C 
ATOM     18  C   UNL     1       0.237  -0.871   8.390  0.00  0.00    +0.042 C 
ATOM     19  C   UNL     1      -0.791  -2.003   8.333  0.00  0.00    -0.096 C 
ATOM     23  C   UNL     1      -0.755  -2.770   9.658  0.00  0.00    +0.048 C 
ATOM     24  C   UNL     1      -1.892  -3.846   9.647  0.00  0.00    +0.056 C 
ATOM     25  C   UNL     1      -1.699  -4.718   8.426  0.00  0.00    -0.105 C 
ATOM     26  C   UNL     1      -1.641  -6.022   8.533  0.00  0.00    -0.016 C 
ATOM     27  C   UNL     1      -1.575  -4.043   7.079  0.00  0.00    +0.078 C 
ATOM     28  C   UNL     1      -0.498  -2.954   7.170  0.00  0.00    +0.032 C 
ATOM     29  C   UNL     1       0.640  -0.351   4.611  0.00  0.00    -0.009 C 
ATOM     30  C   UNL     1       0.526   0.978   4.579  0.00  0.00    -0.046 C 
ATOM     31  C   UNL     1       0.515   1.697   3.377  0.00  0.00    +0.150 C 
ATOM     32  O   UNL     1       0.707  -0.860  -1.362  0.00  0.00    -0.488 OA
ATOM     33  C   UNL     1       0.587   1.030   2.152  0.00  0.00    -0.107 C 
ENDROOT
BRANCH  19  20
ATOM     20  C   UNL     1      -2.166  -1.422   8.127  0.00  0.00    +0.372 C 
ATOM     21  C   UNL     1      -2.410   0.044   8.380  0.00  0.00    +0.052 C 
ATOM     22  O   UNL     1      -3.072  -2.130   7.760  0.00  0.00    -0.446 OA
ENDBRANCH  19  20
BRANCH   3   4
ATOM      4  O   UNL     1       0.555   1.847  -1.406  0.00  0.00    -0.464 OA
ATOM      5  H   UNL     1       0.594   1.303  -2.204  0.00  0.00    +0.403 HD
ENDBRANCH   3   4
TORSDOF 2
