REMARK  Name = ZINC95486318
REMARK  8 active torsions:
REMARK  status: ('A' for Active; 'I' for Inactive)
REMARK    1  A    between atoms: C1_1  and  C2_2
REMARK    2  A    between atoms: C7_8  and  C12_16
REMARK    3  A    between atoms: C8_9  and  O1_15
REMARK    4  A    between atoms: C10_11  and  C11_14
REMARK    5  A    between atoms: C17_22  and  O2_31
REMARK    6  A    between atoms: C19_24  and  C23_30
REMARK    7  A    between atoms: C21_27  and  C22_29
REMARK    8  A    between atoms: O2_31  and  C24_32
REMARK                            x       y       z     vdW  Elec       q    Type
REMARK                         _______ _______ _______ _____ _____    ______ ____
ROOT
ATOM      1  C   UNL     1      -0.040   1.489  -0.221  0.00  0.00    +0.093 C 
ATOM      2  C   UNL     1      -0.064  -0.041  -0.248  0.00  0.00    +0.167 C 
ATOM      3  C   UNL     1      -1.471  -0.538   0.086  0.00  0.00    +0.130 C 
ATOM      4  C   UNL     1      -1.450  -2.032   0.286  0.00  0.00    -0.076 A 
ATOM      5  C   UNL     1      -2.651  -2.724   0.254  0.00  0.00    +0.020 A 
ATOM      6  C   UNL     1      -2.674  -4.093   0.436  0.00  0.00    +0.083 A 
ATOM      7  C   UNL     1      -1.495  -4.779   0.652  0.00  0.00    -0.077 A 
ATOM     22  C   UNL     1      -0.293  -4.091   0.684  0.00  0.00    +0.137 A 
ATOM     25  C   UNL     1      -0.270  -2.711   0.498  0.00  0.00    -0.156 A 
ATOM     26  C   UNL     1       1.058  -2.002   0.531  0.00  0.00    +0.236 C 
ATOM     27  C   UNL     1       1.775  -2.212  -0.804  0.00  0.00    +0.093 C 
ATOM     28  N   UNL     1       0.874  -0.567   0.756  0.00  0.00    -0.501 N 
ATOM     29  H   UNL     1       0.498  -0.418   1.680  0.00  0.00    +0.429 HD
ATOM     30  H   UNL     1       1.761  -0.093   0.670  0.00  0.00    +0.431 HD
ENDROOT
BRANCH   7   8
ATOM      8  C   UNL     1      -1.516  -6.277   0.854  0.00  0.00    +0.100 C 
ATOM      9  C   UNL     1      -2.487  -6.622   1.947  0.00  0.00    -0.036 A 
ATOM     10  C   UNL     1      -2.467  -5.846   3.100  0.00  0.00    -0.038 A 
ATOM     11  C   UNL     1      -3.343  -6.093   4.138  0.00  0.00    +0.042 A 
ATOM     12  C   UNL     1      -4.237  -7.141   4.043  0.00  0.00    -0.078 A 
ATOM     13  C   UNL     1      -4.241  -7.937   2.911  0.00  0.00    +0.133 A 
ATOM     16  C   UNL     1      -3.366  -7.678   1.855  0.00  0.00    -0.088 A 
ATOM     17  C   UNL     1      -3.414  -8.596   0.667  0.00  0.00    +0.037 C 
ATOM     18  C   UNL     1      -4.759  -8.479  -0.050  0.00  0.00    +0.032 C 
ATOM     19  C   UNL     1      -2.267  -8.386  -0.301  0.00  0.00    +0.031 C 
ATOM     20  C   UNL     1      -1.869  -6.931  -0.473  0.00  0.00    -0.008 C 
ATOM     21  C   UNL     1      -2.934  -6.114  -1.203  0.00  0.00    +0.026 C 
BRANCH  13  14
ATOM     14  O   UNL     1      -5.100  -8.989   2.852  0.00  0.00    -0.311 OA
ATOM     15  C   UNL     1      -5.948  -9.198   3.983  0.00  0.00    +0.242 C 
ENDBRANCH  13  14
ENDBRANCH   7   8
BRANCH  22  23
ATOM     23  O   UNL     1       0.868  -4.765   0.896  0.00  0.00    -0.490 OA
ATOM     24  H   UNL     1       1.295  -5.078   0.087  0.00  0.00    +0.397 HD
ENDBRANCH  22  23
TORSDOF 3
