REMARK  Name = ZINC33950770
REMARK  6 active torsions:
REMARK  status: ('A' for Active; 'I' for Inactive)
REMARK    1  A    between atoms: C1_1  and  C2_2
REMARK    2  A    between atoms: C2_2  and  C10_11
REMARK    3  A    between atoms: C3_3  and  C4_4
REMARK    4  A    between atoms: C4_4  and  C5_6
REMARK    5  A    between atoms: C5_6  and  C6_7
REMARK    6  A    between atoms: C6_7  and  C8_9
REMARK                            x       y       z     vdW  Elec       q    Type
REMARK                         _______ _______ _______ _____ _____    ______ ____
ROOT
ATOM      5  C   UNL     1       0.125   0.044   2.422  0.00  0.00    +0.379 C 
ATOM     11  O   UNL     1      -0.073   1.241   2.442  0.00  0.00    -0.447 OA
ENDROOT
BRANCH   5   4
ATOM      1  C   UNL     1      -0.765   1.360   0.086  0.00  0.00    +0.098 C 
ATOM      2  C   UNL     1      -0.219  -0.043   0.025  0.00  0.00    -0.023 C 
ATOM      3  C   UNL     1      -0.059  -0.732  -1.306  0.00  0.00    +0.095 C 
ATOM      4  C   UNL     1       0.123  -0.676   1.149  0.00  0.00    -0.138 C 
ENDBRANCH   5   4
BRANCH   5   6
ATOM      6  C   UNL     1       0.374  -0.700   3.708  0.00  0.00    +0.076 C 
BRANCH   6   7
ATOM      7  C   UNL     1       0.325   0.265   4.865  0.00  0.00    -0.091 C 
ATOM     10  C   UNL     1      -0.804   0.426   5.547  0.00  0.00    +0.038 C 
BRANCH   7   8
ATOM      8  C   UNL     1       1.526   1.028   5.238  0.00  0.00    -0.001 C 
ATOM      9  C   UNL     1       2.654   0.866   4.556  0.00  0.00    +0.015 C 
ENDBRANCH   7   8
ENDBRANCH   6   7
ENDBRANCH   5   6
TORSDOF 4
