REMARK  Name = ZINC95486178
REMARK  13 active torsions:
REMARK  status: ('A' for Active; 'I' for Inactive)
REMARK    1  A    between atoms: C1_1  and  C2_2
REMARK    2  A    between atoms: C10_13  and  C11_15
REMARK    3  A    between atoms: C16_22  and  O9_42
REMARK    4  A    between atoms: C17_24  and  C27_40
REMARK    5  A    between atoms: C17_24  and  C28_41
REMARK    6  A    between atoms: C18_25  and  C22_31
REMARK    7  A    between atoms: C19_27  and  C21_30
REMARK    8  A    between atoms: C22_31  and  C23_32
REMARK    9  A    between atoms: C22_31  and  C25_36
REMARK   10  A    between atoms: C23_32  and  O6_34
REMARK   11  A    between atoms: O6_34  and  C24_35
REMARK   12  A    between atoms: C25_36  and  O8_38
REMARK   13  A    between atoms: O8_38  and  C26_39
REMARK                            x       y       z     vdW  Elec       q    Type
REMARK                         _______ _______ _______ _____ _____    ______ ____
ROOT
ATOM      1  C   UNL     1      10.162  -0.708  -3.218  0.00  0.00    +0.047 C 
ATOM      2  C   UNL     1       9.418  -2.043  -3.143  0.00  0.00    -0.041 C 
ATOM      3  C   UNL     1       8.806  -2.155  -1.761  0.00  0.00    +0.048 C 
ATOM      4  C   UNL     1       7.419  -1.490  -1.684  0.00  0.00    +0.054 C 
ATOM      5  C   UNL     1       6.519  -2.236  -2.643  0.00  0.00    +0.048 C 
ATOM      6  C   UNL     1       7.135  -2.162  -4.030  0.00  0.00    -0.085 C 
ATOM      7  C   UNL     1       5.965  -2.235  -4.992  0.00  0.00    -0.027 C 
ATOM      8  C   UNL     1       5.763  -0.810  -5.539  0.00  0.00    +0.216 C 
ATOM     11  C   UNL     1       5.533   0.204  -4.428  0.00  0.00    -0.046 C 
ATOM     12  C   UNL     1       6.846   0.921  -4.093  0.00  0.00    +0.045 C 
ATOM     13  C   UNL     1       4.590   1.292  -5.009  0.00  0.00    +0.043 C 
ATOM     14  C   UNL     1       4.876  -0.314  -3.170  0.00  0.00    +0.051 C 
ATOM     24  C   UNL     1       4.733  -2.530  -4.137  0.00  0.00    +0.389 C 
ATOM     25  O   UNL     1       3.749  -3.173  -4.392  0.00  0.00    -0.403 OA
ATOM     26  C   UNL     1       5.083  -1.777  -2.832  0.00  0.00    -0.093 C 
ATOM     27  C   UNL     1       4.173  -2.236  -1.679  0.00  0.00    +0.058 C 
ATOM     28  C   UNL     1      10.442  -3.157  -3.385  0.00  0.00    +0.284 C 
ATOM     34  O   UNL     1      10.956  -3.052  -4.717  0.00  0.00    -0.371 OA
ATOM     35  C   UNL     1      10.063  -3.070  -5.726  0.00  0.00    +0.497 C 
ATOM     36  O   UNL     1      10.153  -3.865  -6.630  0.00  0.00    -0.444 OA
ATOM     37  C   UNL     1       8.933  -2.055  -5.683  0.00  0.00    +0.106 C 
ATOM     38  C   UNL     1       8.405  -2.081  -4.259  0.00  0.00    -0.105 C 
ENDROOT
BRANCH  28  29
ATOM     29  C   UNL     1      11.579  -3.022  -2.404  0.00  0.00    -0.186 A 
ATOM     30  C   UNL     1      11.759  -3.766  -1.216  0.00  0.00    -0.047 A 
ATOM     31  C   UNL     1      12.896  -3.325  -0.648  0.00  0.00    +0.170 A 
ATOM     32  O   UNL     1      13.411  -2.359  -1.426  0.00  0.00    -0.173 OA
ATOM     33  C   UNL     1      12.619  -2.174  -2.495  0.00  0.00    +0.204 A 
ENDBRANCH  28  29
BRANCH   8   9
ATOM      9  O   UNL     1       4.649  -0.791  -6.447  0.00  0.00    -0.556 OA
ATOM     10  H   UNL     1       4.754  -1.375  -7.211  0.00  0.00    +0.379 HD
ENDBRANCH   8   9
BRANCH  14  15
ATOM     15  C   UNL     1       5.184   0.594  -1.980  0.00  0.00    +0.078 C 
BRANCH  15  16
ATOM     16  C   UNL     1       4.571   0.012  -0.732  0.00  0.00    +0.475 C 
ATOM     19  O   UNL     1       3.381   0.102  -0.545  0.00  0.00    -0.470 OA
BRANCH  16  17
ATOM     17  O   UNL     1       5.348  -0.606   0.171  0.00  0.00    -0.347 OA
ATOM     18  C   UNL     1       4.700  -1.134   1.331  0.00  0.00    +0.264 C 
ENDBRANCH  16  17
ENDBRANCH  15  16
BRANCH  15  20
ATOM     20  C   UNL     1       4.607   1.963  -2.231  0.00  0.00    +0.473 C 
ATOM     23  O   UNL     1       5.176   2.733  -2.969  0.00  0.00    -0.472 OA
BRANCH  20  21
ATOM     21  O   UNL     1       3.461   2.328  -1.636  0.00  0.00    -0.328 OA
ATOM     22  C   UNL     1       2.972   3.641  -1.920  0.00  0.00    +0.264 C 
ENDBRANCH  20  21
ENDBRANCH  15  20
ENDBRANCH  14  15
TORSDOF 7
