REMARK  Name = ZINC85815475
REMARK  17 active torsions:
REMARK  status: ('A' for Active; 'I' for Inactive)
REMARK    1  A    between atoms: C3_3  and  O16_49
REMARK    2  A    between atoms: C4_4  and  O15_48
REMARK    3  A    between atoms: C6_6  and  C7_7
REMARK    4  A    between atoms: C8_8  and  O5_20
REMARK    5  A    between atoms: C11_12  and  O4_19
REMARK    6  A    between atoms: C13_14  and  O3_18
REMARK    7  A    between atoms: O5_20  and  C16_21
REMARK    8  A    between atoms: C17_23  and  O14_47
REMARK    9  A    between atoms: C18_25  and  O13_46
REMARK   10  A    between atoms: C19_27  and  O12_45
REMARK   11  A    between atoms: C20_29  and  C21_32
REMARK   12  A    between atoms: C21_32  and  O7_33
REMARK   13  A    between atoms: O7_33  and  C22_34
REMARK   14  A    between atoms: C22_34  and  C23_36
REMARK   15  A    between atoms: C25_38  and  O11_44
REMARK   16  A    between atoms: C26_39  and  O10_43
REMARK   17  A    between atoms: C27_40  and  O9_42
REMARK                            x       y       z     vdW  Elec       q    Type
REMARK                         _______ _______ _______ _____ _____    ______ ____
ROOT
ATOM     14  C   UNL     1      -1.377   2.041   0.005  0.00  0.00    +0.332 C 
ATOM     15  C   UNL     1      -1.712   3.510  -0.269  0.00  0.00    +0.147 C 
ATOM     18  C   UNL     1      -2.422   4.100   0.953  0.00  0.00    +0.168 C 
ATOM     21  C   UNL     1      -1.526   3.928   2.183  0.00  0.00    +0.167 C 
ATOM     24  C   UNL     1      -1.199   2.443   2.363  0.00  0.00    +0.192 C 
ATOM     41  O   UNL     1      -0.568   1.949   1.179  0.00  0.00    -0.353 OA
ENDROOT
BRANCH  15  16
ATOM     16  O   UNL     1      -0.506   4.235  -0.519  0.00  0.00    -0.515 OA
ATOM     17  H   UNL     1      -0.046   3.967  -1.326  0.00  0.00    +0.377 HD
ENDBRANCH  15  16
BRANCH  18  19
ATOM     19  O   UNL     1      -2.674   5.490   0.734  0.00  0.00    -0.551 OA
ATOM     20  H   UNL     1      -3.232   5.672  -0.035  0.00  0.00    +0.386 HD
ENDBRANCH  18  19
BRANCH  21  22
ATOM     22  O   UNL     1      -0.316   4.666   2.000  0.00  0.00    -0.531 OA
ATOM     23  H   UNL     1      -0.450   5.616   1.876  0.00  0.00    +0.386 HD
ENDBRANCH  21  22
BRANCH  14  13
ATOM     13  O   UNL     1      -2.587   1.306   0.201  0.00  0.00    -0.306 OA
BRANCH  13  12
ATOM     11  C   UNL     1      -2.846  -0.766   1.306  0.00  0.00    +0.188 A 
ATOM     12  C   UNL     1      -2.491  -0.052   0.200  0.00  0.00    -0.075 A 
ATOM     42  C   UNL     1      -2.022  -0.735  -0.951  0.00  0.00    +0.412 A 
ATOM     43  C   UNL     1      -1.945  -2.203  -0.883  0.00  0.00    -0.263 A 
ATOM     44  C   UNL     1      -1.493  -2.959  -1.973  0.00  0.00    +0.222 A 
ATOM     47  C   UNL     1      -1.434  -4.336  -1.869  0.00  0.00    -0.053 A 
ATOM     48  C   UNL     1      -1.822  -4.965  -0.691  0.00  0.00    +0.197 A 
ATOM     51  C   UNL     1      -2.271  -4.224   0.391  0.00  0.00    -0.022 A 
ATOM     52  C   UNL     1      -2.336  -2.842   0.307  0.00  0.00    +0.182 A 
ATOM     53  O   UNL     1      -1.696  -0.129  -1.959  0.00  0.00    -0.445 OA
ATOM     54  O   UNL     1      -2.764  -2.107   1.354  0.00  0.00    -0.199 OA
BRANCH  11  10
ATOM      1  C   UNL     1      -4.295   0.962   2.357  0.00  0.00    +0.081 A 
ATOM      2  C   UNL     1      -4.748   1.639   3.470  0.00  0.00    +0.006 A 
ATOM      3  C   UNL     1      -4.248   1.328   4.726  0.00  0.00    +0.110 A 
ATOM      6  C   UNL     1      -3.286   0.330   4.870  0.00  0.00    +0.080 A 
ATOM      9  C   UNL     1      -2.828  -0.353   3.760  0.00  0.00    +0.063 A 
ATOM     10  C   UNL     1      -3.331  -0.040   2.494  0.00  0.00    -0.062 A 
BRANCH   3   4
ATOM      4  O   UNL     1      -4.697   1.999   5.819  0.00  0.00    -0.484 OA
ATOM      5  H   UNL     1      -5.466   1.593   6.242  0.00  0.00    +0.395 HD
ENDBRANCH   3   4
BRANCH   6   7
ATOM      7  O   UNL     1      -2.798   0.028   6.103  0.00  0.00    -0.480 OA
ATOM      8  H   UNL     1      -3.296  -0.660   6.566  0.00  0.00    +0.391 HD
ENDBRANCH   6   7
ENDBRANCH  11  10
BRANCH  44  45
ATOM     45  O   UNL     1      -1.116  -2.343  -3.122  0.00  0.00    -0.472 OA
ATOM     46  H   UNL     1      -0.179  -2.106  -3.152  0.00  0.00    +0.403 HD
ENDBRANCH  44  45
BRANCH  48  49
ATOM     49  O   UNL     1      -1.761  -6.318  -0.600  0.00  0.00    -0.486 OA
ATOM     50  H   UNL     1      -0.915  -6.653  -0.271  0.00  0.00    +0.404 HD
ENDBRANCH  48  49
ENDBRANCH  13  12
ENDBRANCH  14  13
BRANCH  24  25
ATOM     25  C   UNL     1      -0.256   2.269   3.555  0.00  0.00    +0.260 C 
BRANCH  25  26
ATOM     26  O   UNL     1      -0.043   0.876   3.794  0.00  0.00    -0.337 OA
BRANCH  26  27
ATOM     27  C   UNL     1       0.770   0.549   4.818  0.00  0.00    +0.513 C 
ATOM     40  O   UNL     1       1.284   1.422   5.489  0.00  0.00    -0.493 OA
BRANCH  27  28
ATOM     28  C   UNL     1       1.035  -0.869   5.124  0.00  0.00    -0.092 A 
ATOM     29  C   UNL     1       0.449  -1.874   4.350  0.00  0.00    +0.060 A 
ATOM     30  C   UNL     1       0.700  -3.202   4.639  0.00  0.00    +0.087 A 
ATOM     33  C   UNL     1       1.535  -3.539   5.701  0.00  0.00    +0.092 A 
ATOM     36  C   UNL     1       2.120  -2.540   6.474  0.00  0.00    +0.090 A 
ATOM     39  C   UNL     1       1.878  -1.210   6.185  0.00  0.00    +0.080 A 
BRANCH  30  31
ATOM     31  O   UNL     1       0.130  -4.181   3.886  0.00  0.00    -0.477 OA
ATOM     32  H   UNL     1       0.661  -4.451   3.124  0.00  0.00    +0.389 HD
ENDBRANCH  30  31
BRANCH  33  34
ATOM     34  O   UNL     1       1.779  -4.846   5.983  0.00  0.00    -0.472 OA
ATOM     35  H   UNL     1       2.546  -5.211   5.521  0.00  0.00    +0.391 HD
ENDBRANCH  33  34
BRANCH  36  37
ATOM     37  O   UNL     1       2.935  -2.873   7.511  0.00  0.00    -0.478 OA
ATOM     38  H   UNL     1       3.867  -2.956   7.267  0.00  0.00    +0.393 HD
ENDBRANCH  36  37
ENDBRANCH  27  28
ENDBRANCH  26  27
ENDBRANCH  25  26
ENDBRANCH  24  25
TORSDOF 17
