REMARK  Name = ZINC95485968
REMARK  23 active torsions:
REMARK  status: ('A' for Active; 'I' for Inactive)
REMARK    1  A    between atoms: C1_1  and  C2_2
REMARK    2  A    between atoms: C2_2  and  C41_49
REMARK    3  A    between atoms: C3_3  and  C4_4
REMARK    4  A    between atoms: C4_4  and  C5_5
REMARK    5  A    between atoms: C5_5  and  C6_6
REMARK    6  A    between atoms: C10_11  and  C35_43
REMARK    7  A    between atoms: C11_13  and  C33_41
REMARK    8  A    between atoms: C11_13  and  C34_42
REMARK    9  A    between atoms: C13_16  and  C26_31
REMARK   10  A    between atoms: C15_19  and  C20_25
REMARK   11  A    between atoms: C17_22  and  C18_23
REMARK   12  A    between atoms: C17_22  and  C19_24
REMARK   13  A    between atoms: C20_25  and  C21_26
REMARK   14  A    between atoms: C21_26  and  C22_27
REMARK   15  A    between atoms: C23_28  and  C24_29
REMARK   16  A    between atoms: C23_28  and  C25_30
REMARK   17  A    between atoms: C26_31  and  C27_33
REMARK   18  A    between atoms: C30_36  and  O6_40
REMARK   19  A    between atoms: C31_37  and  O5_39
REMARK   20  A    between atoms: C35_43  and  C36_44
REMARK   21  A    between atoms: C36_44  and  C37_45
REMARK   22  A    between atoms: C38_46  and  C39_47
REMARK   23  A    between atoms: C38_46  and  C40_48
REMARK                            x       y       z     vdW  Elec       q    Type
REMARK                         _______ _______ _______ _____ _____    ______ ____
ROOT
ATOM      7  C   UNL     1      -2.327  -3.817   5.268  0.00  0.00    -0.014 C 
ATOM      8  C   UNL     1      -3.007  -2.449   5.206  0.00  0.00    +0.086 C 
ATOM      9  C   UNL     1      -2.658  -1.657   6.474  0.00  0.00    -0.100 C 
ATOM     10  C   UNL     1      -3.364  -0.319   6.477  0.00  0.00    +0.066 C 
ATOM     11  C   UNL     1      -2.582   0.777   5.775  0.00  0.00    -0.011 C 
ATOM     18  C   UNL     1      -1.129   0.801   6.244  0.00  0.00    +0.115 C 
ATOM     19  C   UNL     1      -1.079   1.104   7.743  0.00  0.00    +0.036 C 
ATOM     20  C   UNL     1      -0.360   1.877   5.475  0.00  0.00    +0.088 C 
ATOM     21  O   UNL     1      -0.541  -0.480   5.994  0.00  0.00    -0.283 OA
ATOM     22  C   UNL     1      -3.129  -2.482   7.662  0.00  0.00    +0.384 C 
ATOM     23  O   UNL     1      -3.935  -2.071   8.462  0.00  0.00    -0.405 OA
ATOM     24  C   UNL     1      -2.505  -3.868   7.765  0.00  0.00    -0.129 C 
ATOM     31  C   UNL     1      -1.007  -3.662   7.827  0.00  0.00    +0.432 C 
ATOM     32  O   UNL     1      -0.304  -4.480   8.384  0.00  0.00    -0.425 OA
ATOM     33  C   UNL     1      -0.409  -2.481   7.215  0.00  0.00    -0.329 C 
ATOM     46  C   UNL     1      -1.162  -1.527   6.566  0.00  0.00    +0.241 C 
ATOM     47  C   UNL     1      -2.845  -4.612   6.467  0.00  0.00    -0.034 C 
ATOM     48  C   UNL     1      -2.184  -5.992   6.487  0.00  0.00    +0.048 C 
ATOM     49  C   UNL     1      -4.362  -4.776   6.351  0.00  0.00    +0.046 C 
ENDROOT
BRANCH  33  34
ATOM     34  C   UNL     1       1.049  -2.301   7.294  0.00  0.00    +0.469 C 
ATOM     45  O   UNL     1       1.726  -2.371   6.286  0.00  0.00    -0.429 OA
BRANCH  34  35
ATOM     35  C   UNL     1       1.691  -2.036   8.597  0.00  0.00    -0.145 A 
ATOM     36  C   UNL     1       0.907  -1.862   9.741  0.00  0.00    +0.070 A 
ATOM     37  C   UNL     1       1.508  -1.615  10.956  0.00  0.00    -0.000 A 
ATOM     38  C   UNL     1       2.891  -1.537  11.048  0.00  0.00    +0.115 A 
ATOM     41  C   UNL     1       3.679  -1.709   9.910  0.00  0.00    +0.071 A 
ATOM     44  C   UNL     1       3.083  -1.964   8.690  0.00  0.00    +0.074 A 
BRANCH  38  39
ATOM     39  O   UNL     1       3.478  -1.293  12.248  0.00  0.00    -0.486 OA
ATOM     40  H   UNL     1       3.686  -2.090  12.753  0.00  0.00    +0.394 HD
ENDBRANCH  38  39
BRANCH  41  42
ATOM     42  O   UNL     1       5.033  -1.632  10.003  0.00  0.00    -0.483 OA
ATOM     43  H   UNL     1       5.464  -2.478  10.188  0.00  0.00    +0.390 HD
ENDBRANCH  41  42
ENDBRANCH  34  35
ENDBRANCH  33  34
BRANCH   7   6
ATOM      6  C   UNL     1      -2.624  -4.590   3.982  0.00  0.00    +0.038 C 
BRANCH   6   5
ATOM      5  C   UNL     1      -1.986  -3.867   2.794  0.00  0.00    +0.045 C 
BRANCH   5   4
ATOM      1  C   UNL     1       0.217  -4.396   1.113  0.00  0.00    +0.071 C 
ATOM      2  C   UNL     1      -1.134  -4.987   0.799  0.00  0.00    -0.130 C 
ATOM      3  C   UNL     1      -1.293  -5.917  -0.376  0.00  0.00    +0.070 C 
ATOM      4  C   UNL     1      -2.168  -4.693   1.547  0.00  0.00    -0.061 C 
ENDBRANCH   5   4
ENDBRANCH   6   5
ENDBRANCH   7   6
BRANCH  11  12
ATOM     12  C   UNL     1      -2.617   0.530   4.266  0.00  0.00    +0.029 C 
BRANCH  12  13
ATOM     13  C   UNL     1      -4.062   0.611   3.769  0.00  0.00    +0.049 C 
BRANCH  13  14
ATOM     14  C   UNL     1      -4.085   0.481   2.268  0.00  0.00    -0.062 C 
ATOM     15  C   UNL     1      -4.702   1.380   1.542  0.00  0.00    -0.129 C 
ATOM     16  C   UNL     1      -4.609   1.328   0.039  0.00  0.00    +0.071 C 
ATOM     17  C   UNL     1      -5.504   2.467   2.211  0.00  0.00    +0.071 C 
ENDBRANCH  13  14
ENDBRANCH  12  13
ENDBRANCH  11  12
BRANCH  24  25
ATOM     25  C   UNL     1      -3.012  -4.614   9.000  0.00  0.00    +0.083 C 
BRANCH  25  26
ATOM     26  C   UNL     1      -2.682  -3.804  10.256  0.00  0.00    +0.044 C 
BRANCH  26  27
ATOM     27  C   UNL     1      -3.181  -4.539  11.473  0.00  0.00    -0.055 C 
ATOM     28  C   UNL     1      -3.951  -3.927  12.338  0.00  0.00    -0.129 C 
ATOM     29  C   UNL     1      -4.551  -4.693  13.489  0.00  0.00    +0.072 C 
ATOM     30  C   UNL     1      -4.238  -2.455  12.182  0.00  0.00    +0.072 C 
ENDBRANCH  26  27
ENDBRANCH  25  26
ENDBRANCH  24  25
TORSDOF 13
