REMARK  Name = ZINC95486132
REMARK  10 active torsions:
REMARK  status: ('A' for Active; 'I' for Inactive)
REMARK    1  A    between atoms: C1_1  and  C2_2
REMARK    2  A    between atoms: C10_12  and  C18_26
REMARK    3  A    between atoms: C10_12  and  C19_27
REMARK    4  A    between atoms: C11_13  and  C15_19
REMARK    5  A    between atoms: C12_15  and  C14_18
REMARK    6  A    between atoms: C15_19  and  C16_21
REMARK    7  A    between atoms: C15_19  and  O4_25
REMARK    8  A    between atoms: C16_21  and  O3_23
REMARK    9  A    between atoms: O3_23  and  C17_24
REMARK   10  A    between atoms: C23_34  and  C24_36
REMARK                            x       y       z     vdW  Elec       q    Type
REMARK                         _______ _______ _______ _____ _____    ______ ____
ROOT
ATOM      1  C   UNL     1      -1.770   1.100  -1.212  0.00  0.00    +0.035 C 
ATOM      2  C   UNL     1      -1.458  -0.377  -1.198  0.00  0.00    -0.075 C 
ATOM      3  C   UNL     1       0.057  -0.557  -1.532  0.00  0.00    +0.054 C 
ATOM      4  C   UNL     1       0.345  -2.081  -1.501  0.00  0.00    +0.032 C 
ATOM      5  C   UNL     1       0.196  -2.602  -0.036  0.00  0.00    +0.053 C 
ATOM      6  C   UNL     1      -1.258  -2.371   0.391  0.00  0.00    -0.107 C 
ATOM      7  C   UNL     1      -1.908  -3.235   0.918  0.00  0.00    -0.007 C 
ATOM      8  C   UNL     1      -1.433  -4.555   1.275  0.00  0.00    +0.020 C 
ATOM      9  C   UNL     1      -1.842  -5.609   0.218  0.00  0.00    +0.066 C 
ATOM     10  C   UNL     1      -1.176  -5.431  -1.058  0.00  0.00    -0.059 C 
ATOM     11  C   UNL     1      -1.056  -6.910  -1.634  0.00  0.00    +0.011 C 
ATOM     12  C   UNL     1      -2.038  -4.721  -2.043  0.00  0.00    +0.042 C 
ATOM     13  C   UNL     1       0.193  -4.875  -1.112  0.00  0.00    +0.036 C 
ATOM     21  C   UNL     1       0.022  -4.580   1.301  0.00  0.00    +0.356 C 
ATOM     22  O   UNL     1       0.709  -4.905   2.328  0.00  0.00    -0.451 OA
ATOM     23  C   UNL     1       0.643  -4.013   0.081  0.00  0.00    -0.070 C 
ATOM     24  C   UNL     1       2.162  -4.082   0.201  0.00  0.00    +0.069 C 
ATOM     25  C   UNL     1      -2.327  -1.026  -2.237  0.00  0.00    +0.284 C 
ATOM     31  O   UNL     1      -3.774  -1.006  -1.840  0.00  0.00    -0.378 OA
ATOM     32  C   UNL     1      -3.999  -1.553  -0.644  0.00  0.00    +0.500 C 
ATOM     33  O   UNL     1      -4.830  -2.319  -0.467  0.00  0.00    -0.420 OA
ATOM     34  C   UNL     1      -3.259  -0.853   0.540  0.00  0.00    +0.025 C 
ATOM     35  C   UNL     1      -1.747  -0.915   0.240  0.00  0.00    +0.070 C 
ENDROOT
BRANCH  25  26
ATOM     26  C   UNL     1      -2.196  -0.291  -3.546  0.00  0.00    -0.190 A 
ATOM     27  C   UNL     1      -1.407  -0.678  -4.654  0.00  0.00    -0.049 A 
ATOM     28  C   UNL     1      -1.584   0.258  -5.604  0.00  0.00    +0.169 A 
ATOM     29  O   UNL     1      -2.433   1.186  -5.133  0.00  0.00    -0.173 OA
ATOM     30  C   UNL     1      -2.811   0.855  -3.887  0.00  0.00    +0.202 A 
ENDBRANCH  25  26
BRANCH  13  14
ATOM     14  C   UNL     1       1.267  -6.083  -1.244  0.00  0.00    +0.242 C 
BRANCH  14  15
ATOM     15  O   UNL     1       1.165  -6.938  -0.104  0.00  0.00    -0.520 OA
ATOM     16  H   UNL     1       0.280  -6.971   0.285  0.00  0.00    +0.382 HD
ENDBRANCH  14  15
BRANCH  14  17
ATOM     17  C   UNL     1       0.980  -6.875  -2.494  0.00  0.00    +0.459 C 
ATOM     20  O   UNL     1       0.955  -8.082  -2.451  0.00  0.00    -0.507 OA
BRANCH  17  18
ATOM     18  O   UNL     1       0.753  -6.239  -3.654  0.00  0.00    -0.359 OA
ATOM     19  C   UNL     1       0.488  -7.053  -4.798  0.00  0.00    +0.257 C 
ENDBRANCH  17  18
ENDBRANCH  14  17
ENDBRANCH  13  14
TORSDOF 5
