REMARK  Name = ZINC95486068
REMARK  3 active torsions:
REMARK  status: ('A' for Active; 'I' for Inactive)
REMARK    1  A    between atoms: C1_1  and  O1_2
REMARK    2  A    between atoms: O1_2  and  C2_3
REMARK    3  A    between atoms: C7_8  and  C8_9
REMARK                            x       y       z     vdW  Elec       q    Type
REMARK                         _______ _______ _______ _____ _____    ______ ____
ROOT
ATOM     12  C   UNL     1       0.021  -2.826  -0.013  0.00  0.00    +0.048 C 
ATOM     13  C   UNL     1       0.077  -3.742   1.198  0.00  0.00    +0.417 C 
ATOM     14  C   UNL     1      -0.635  -5.027   1.087  0.00  0.00    -0.252 A 
ATOM     15  C   UNL     1      -0.886  -5.787   2.228  0.00  0.00    +0.192 A 
ATOM     16  C   UNL     1      -1.549  -7.001   2.106  0.00  0.00    -0.161 A 
ATOM     17  C   UNL     1      -1.976  -8.035   3.058  0.00  0.00    -0.027 A 
ATOM     18  C   UNL     1      -2.574  -8.987   2.331  0.00  0.00    +0.229 A 
ATOM     19  O   UNL     1      -2.564  -8.653   1.028  0.00  0.00    -0.185 OA
ATOM     20  C   UNL     1      -1.962  -7.462   0.840  0.00  0.00    +0.118 A 
ATOM     21  C   UNL     1      -1.711  -6.694  -0.290  0.00  0.00    +0.029 A 
ATOM     22  C   UNL     1      -1.058  -5.481  -0.178  0.00  0.00    +0.185 A 
ATOM     23  O   UNL     1      -0.843  -4.734  -1.292  0.00  0.00    -0.286 OA
ATOM     24  O   UNL     1       0.678  -3.431   2.205  0.00  0.00    -0.409 OA
ATOM     25  C   UNL     1       0.054  -3.728  -1.234  0.00  0.00    +0.507 C 
ATOM     26  O   UNL     1       0.856  -3.551  -2.120  0.00  0.00    -0.400 OA
ENDROOT
BRANCH  12  11
ATOM      3  C   UNL     1      -1.201  -0.638   0.010  0.00  0.00    +0.174 A 
ATOM      4  C   UNL     1      -2.374   0.102   0.020  0.00  0.00    -0.038 A 
ATOM      5  C   UNL     1      -3.599  -0.543   0.028  0.00  0.00    +0.094 A 
ATOM      6  C   UNL     1      -3.651  -1.936   0.027  0.00  0.00    +0.003 A 
ATOM      7  O   UNL     1      -4.960  -2.324   0.036  0.00  0.00    -0.302 OA
ATOM      8  C   UNL     1      -5.702  -1.163   0.455  0.00  0.00    +0.439 C 
ATOM      9  C   UNL     1      -2.477  -2.670   0.017  0.00  0.00    +0.094 A 
ATOM     10  O   UNL     1      -4.876  -0.060   0.038  0.00  0.00    -0.302 OA
ATOM     11  C   UNL     1      -1.254  -2.023   0.003  0.00  0.00    -0.119 A 
BRANCH   3   2
ATOM      1  C   UNL     1      -0.017   1.425   0.010  0.00  0.00    +0.255 C 
ATOM      2  O   UNL     1       0.002  -0.004   0.002  0.00  0.00    -0.302 OA
ENDBRANCH   3   2
ENDBRANCH  12  11
TORSDOF 2
