REMARK  Name = ZINC95486016
REMARK  8 active torsions:
REMARK  status: ('A' for Active; 'I' for Inactive)
REMARK    1  A    between atoms: C1_1  and  O1_2
REMARK    2  A    between atoms: O1_2  and  C2_3
REMARK    3  A    between atoms: C7_8  and  O2_9
REMARK    4  A    between atoms: O2_9  and  C8_10
REMARK    5  A    between atoms: C9_11  and  O7_33
REMARK    6  A    between atoms: C20_24  and  C21_27
REMARK    7  A    between atoms: C21_27  and  C23_29
REMARK    8  A    between atoms: C23_29  and  O5_30
REMARK                            x       y       z     vdW  Elec       q    Type
REMARK                         _______ _______ _______ _____ _____    ______ ____
ROOT
ATOM      3  C   UNL     1       0.606  -0.608  -1.056  0.00  0.00    +0.120 A 
ATOM      4  C   UNL     1       1.172   0.155  -2.061  0.00  0.00    -0.044 A 
ATOM      5  C   UNL     1       1.789  -0.450  -3.149  0.00  0.00    -0.051 A 
ATOM      6  C   UNL     1       1.829  -1.827  -3.229  0.00  0.00    -0.120 A 
ATOM      7  C   UNL     1       2.453  -2.532  -4.398  0.00  0.00    +0.117 C 
ATOM     10  C   UNL     1       3.448  -1.599  -5.100  0.00  0.00    +0.204 C 
ATOM     11  O   UNL     1       3.972  -2.264  -6.247  0.00  0.00    -0.281 OA
ATOM     12  C   UNL     1       4.516  -3.488  -6.061  0.00  0.00    +0.242 A 
ATOM     13  C   UNL     1       4.200  -4.279  -4.934  0.00  0.00    -0.282 A 
ATOM     14  C   UNL     1       4.778  -5.536  -4.752  0.00  0.00    +0.155 A 
ATOM     15  C   UNL     1       5.664  -6.059  -5.656  0.00  0.00    -0.032 A 
ATOM     16  C   UNL     1       5.980  -5.290  -6.785  0.00  0.00    +0.187 A 
ATOM     17  O   UNL     1       6.806  -5.603  -7.802  0.00  0.00    -0.284 OA
ATOM     18  C   UNL     1       7.168  -4.402  -8.511  0.00  0.00    +0.226 C 
ATOM     24  C   UNL     1       5.964  -3.462  -8.246  0.00  0.00    +0.102 C 
ATOM     25  C   UNL     1       5.409  -4.024  -6.965  0.00  0.00    -0.231 A 
ATOM     26  C   UNL     1       2.706  -0.319  -5.479  0.00  0.00    +0.077 C 
ATOM     27  C   UNL     1       3.236  -3.749  -3.949  0.00  0.00    +0.386 C 
ATOM     28  O   UNL     1       3.081  -4.253  -2.856  0.00  0.00    -0.428 OA
ATOM     29  C   UNL     1       1.270  -2.596  -2.219  0.00  0.00    +0.008 A 
ATOM     30  C   UNL     1       2.395   0.449  -4.194  0.00  0.00    +0.100 C 
ATOM     31  C   UNL     1       0.663  -1.996  -1.131  0.00  0.00    +0.095 A 
ENDROOT
BRANCH   3   2
ATOM      1  C   UNL     1      -0.017   1.425   0.010  0.00  0.00    +0.240 C 
ATOM      2  O   UNL     1       0.002  -0.004   0.002  0.00  0.00    -0.303 OA
ENDBRANCH   3   2
BRANCH   7   8
ATOM      8  O   UNL     1       1.432  -2.932  -5.315  0.00  0.00    -0.515 OA
ATOM      9  H   UNL     1       0.777  -3.533  -4.937  0.00  0.00    +0.385 HD
ENDBRANCH   7   8
BRANCH  18  19
ATOM     19  C   UNL     1       7.317  -4.674  -9.986  0.00  0.00    -0.150 C 
ATOM     23  C   UNL     1       8.380  -4.253 -10.625  0.00  0.00    +0.093 C 
BRANCH  19  20
ATOM     20  C   UNL     1       6.242  -5.429 -10.725  0.00  0.00    +0.234 C 
BRANCH  20  21
ATOM     21  O   UNL     1       6.611  -5.558 -12.100  0.00  0.00    -0.571 OA
ATOM     22  H   UNL     1       5.964  -6.035 -12.637  0.00  0.00    +0.386 HD
ENDBRANCH  20  21
ENDBRANCH  19  20
ENDBRANCH  18  19
BRANCH  31  32
ATOM     32  O   UNL     1       0.120  -2.757  -0.143  0.00  0.00    -0.304 OA
ATOM     33  C   UNL     1       0.217  -4.175  -0.289  0.00  0.00    +0.240 C 
ENDBRANCH  31  32
TORSDOF 6
