REMARK  Name = ZINC95486198
REMARK  5 active torsions:
REMARK  status: ('A' for Active; 'I' for Inactive)
REMARK    1  A    between atoms: C1_1  and  O1_2
REMARK    2  A    between atoms: O1_2  and  C2_3
REMARK    3  A    between atoms: C7_8  and  O2_9
REMARK    4  A    between atoms: O2_9  and  C8_10
REMARK    5  A    between atoms: C28_34  and  O6_35
REMARK                            x       y       z     vdW  Elec       q    Type
REMARK                         _______ _______ _______ _____ _____    ______ ____
ROOT
ATOM      3  C   UNL     1      -1.199  -0.637   0.010  0.00  0.00    +0.152 A 
ATOM      4  C   UNL     1      -2.371   0.100   0.026  0.00  0.00    -0.092 A 
ATOM      5  C   UNL     1      -3.598  -0.542   0.090  0.00  0.00    +0.000 A 
ATOM      6  C   UNL     1      -3.646  -1.918   0.100  0.00  0.00    -0.166 A 
ATOM      7  C   UNL     1      -2.484  -2.673  -0.042  0.00  0.00    +0.138 A 
ATOM      8  O   UNL     1      -2.575  -3.987  -0.326  0.00  0.00    -0.125 OA
ATOM      9  O   UNL     1      -1.462  -4.890  -0.162  0.00  0.00    -0.102 OA
ATOM     10  C   UNL     1      -0.628  -5.171  -1.181  0.00  0.00    +0.080 A 
ATOM     11  C   UNL     1      -0.221  -4.170  -2.054  0.00  0.00    +0.007 A 
ATOM     12  C   UNL     1       0.735  -4.409  -3.015  0.00  0.00    +0.030 A 
ATOM     13  C   UNL     1       1.275  -5.676  -3.134  0.00  0.00    +0.007 A 
ATOM     14  C   UNL     1       0.801  -6.707  -2.341  0.00  0.00    -0.054 A 
ATOM     15  C   UNL     1       1.426  -8.074  -2.488  0.00  0.00    +0.094 C 
ATOM     16  C   UNL     1       0.990  -8.947  -1.307  0.00  0.00    +0.147 C 
ATOM     17  N   UNL     1      -0.503  -8.919  -1.306  0.00  0.00    -0.601 NA
ATOM     18  H   UNL     1      -0.731  -9.582  -0.502  0.00  0.00    +0.322 HD
ATOM     19  C   UNL     1      -0.915  -7.608  -0.742  0.00  0.00    +0.191 C 
ATOM     20  C   UNL     1      -0.732  -7.620   0.766  0.00  0.00    +0.073 C 
ATOM     21  C   UNL     1      -2.094  -7.634   1.422  0.00  0.00    -0.067 A 
ATOM     22  C   UNL     1      -3.174  -8.202   0.770  0.00  0.00    +0.028 A 
ATOM     23  C   UNL     1      -4.434  -8.158   1.335  0.00  0.00    +0.020 A 
ATOM     24  C   UNL     1      -4.611  -7.558   2.571  0.00  0.00    +0.072 A 
ATOM     25  O   UNL     1      -5.871  -7.406   3.076  0.00  0.00    -0.247 OA
ATOM     26  C   UNL     1      -6.426  -6.185   2.796  0.00  0.00    +0.087 A 
ATOM     27  C   UNL     1      -5.584  -5.156   2.406  0.00  0.00    -0.037 A 
ATOM     28  C   UNL     1      -6.099  -3.898   2.142  0.00  0.00    -0.048 A 
ATOM     29  C   UNL     1      -5.154  -2.785   1.810  0.00  0.00    +0.077 C 
ATOM     30  C   UNL     1      -7.461  -3.677   2.224  0.00  0.00    +0.021 A 
ATOM     31  C   UNL     1      -8.307  -4.708   2.599  0.00  0.00    +0.023 A 
ATOM     32  C   UNL     1      -7.791  -5.965   2.892  0.00  0.00    +0.085 A 
ATOM     35  C   UNL     1      -3.516  -7.062   3.260  0.00  0.00    +0.004 A 
ATOM     36  C   UNL     1      -2.260  -7.094   2.685  0.00  0.00    +0.024 A 
ATOM     37  C   UNL     1      -0.200  -6.483  -1.419  0.00  0.00    -0.076 A 
ATOM     38  C   UNL     1      -4.952  -2.627   0.305  0.00  0.00    +0.209 C 
ATOM     39  N   UNL     1      -6.087  -1.836  -0.259  0.00  0.00    -0.584 NA
ATOM     40  H   UNL     1      -5.693  -1.554  -1.217  0.00  0.00    +0.322 HD
ATOM     41  C   UNL     1      -6.102  -0.520   0.435  0.00  0.00    +0.173 C 
ATOM     42  C   UNL     1      -4.854   0.280   0.117  0.00  0.00    +0.064 C 
ATOM     43  C   UNL     1      -1.248  -2.026   0.003  0.00  0.00    -0.007 A 
ENDROOT
BRANCH   3   2
ATOM      1  C   UNL     1      -0.017   1.425   0.010  0.00  0.00    +0.244 C 
ATOM      2  O   UNL     1       0.002  -0.004   0.002  0.00  0.00    -0.299 OA
ENDBRANCH   3   2
BRANCH  32  33
ATOM     33  O   UNL     1      -8.623  -6.970   3.270  0.00  0.00    -0.487 OA
ATOM     34  H   UNL     1      -8.767  -7.024   4.225  0.00  0.00    +0.387 HD
ENDBRANCH  32  33
BRANCH  43  44
ATOM     44  O   UNL     1      -0.082  -2.720   0.111  0.00  0.00    -0.304 OA
ATOM     45  C   UNL     1       0.355  -3.053   1.430  0.00  0.00    +0.216 C 
ENDBRANCH  43  44
TORSDOF 3
