REMARK  Name = ZINC95486008
REMARK  4 active torsions:
REMARK  status: ('A' for Active; 'I' for Inactive)
REMARK    1  A    between atoms: C1_1  and  C2_2
REMARK    2  A    between atoms: C2_2  and  C21_28
REMARK    3  A    between atoms: C3_3  and  O4_27
REMARK    4  A    between atoms: C19_24  and  O3_26
REMARK                            x       y       z     vdW  Elec       q    Type
REMARK                         _______ _______ _______ _____ _____    ______ ____
ROOT
ATOM      1  C   UNL     1      -0.019   1.526   0.010  0.00  0.00    +0.082 C 
ATOM      2  C   UNL     1       0.002  -0.004   0.002  0.00  0.00    +0.124 C 
ATOM      3  C   UNL     1      -1.432  -0.539   0.000  0.00  0.00    +0.041 C 
ATOM      4  C   UNL     1       0.742  -0.504  -1.246  0.00  0.00    +0.153 C 
ATOM      7  C   UNL     1       0.647  -2.031  -1.280  0.00  0.00    +0.063 C 
ATOM      8  C   UNL     1       1.008  -2.592   0.071  0.00  0.00    -0.159 A 
ATOM      9  C   UNL     1       1.336  -3.936   0.171  0.00  0.00    +0.073 A 
ATOM     10  C   UNL     1       1.669  -4.472   1.387  0.00  0.00    -0.121 A 
ATOM     11  C   UNL     1       1.698  -3.687   2.540  0.00  0.00    -0.034 A 
ATOM     12  C   UNL     1       2.133  -4.251   3.861  0.00  0.00    +0.083 C 
ATOM     13  C   UNL     1       1.844  -5.738   4.053  0.00  0.00    +0.048 C 
ATOM     14  C   UNL     1       1.143  -6.304   2.845  0.00  0.00    +0.021 C 
ATOM     15  C   UNL     1       1.071  -7.780   2.684  0.00  0.00    -0.163 A 
ATOM     16  C   UNL     1       0.849  -8.805   3.577  0.00  0.00    +0.091 A 
ATOM     17  C   UNL     1       0.834 -10.099   3.071  0.00  0.00    -0.038 A 
ATOM     18  C   UNL     1       1.035 -10.349   1.724  0.00  0.00    +0.136 A 
ATOM     21  C   UNL     1       1.280  -9.311   0.803  0.00  0.00    -0.017 A 
ATOM     22  C   UNL     1       1.295  -8.015   1.304  0.00  0.00    +0.113 A 
ATOM     23  O   UNL     1       1.500  -6.846   0.635  0.00  0.00    -0.286 OA
ATOM     24  C   UNL     1       1.352  -2.353   2.437  0.00  0.00    -0.016 A 
ATOM     25  C   UNL     1       2.000  -5.916   1.593  0.00  0.00    +0.222 C 
ATOM     26  C   UNL     1       1.010  -1.802   1.207  0.00  0.00    +0.156 A 
ATOM     27  O   UNL     1       0.692  -0.482   1.157  0.00  0.00    -0.297 OA
ENDROOT
BRANCH   4   5
ATOM      5  O   UNL     1       2.113  -0.107  -1.184  0.00  0.00    -0.550 OA
ATOM      6  H   UNL     1       2.640  -0.391  -1.944  0.00  0.00    +0.380 HD
ENDBRANCH   4   5
BRANCH  18  19
ATOM     19  O   UNL     1       1.005 -11.632   1.277  0.00  0.00    -0.497 OA
ATOM     20  H   UNL     1       0.127 -11.933   1.005  0.00  0.00    +0.394 HD
ENDBRANCH  18  19
TORSDOF 2
