REMARK  Name = ZINC95486018
REMARK  16 active torsions:
REMARK  status: ('A' for Active; 'I' for Inactive)
REMARK    1  A    between atoms: C1_1  and  C2_2
REMARK    2  A    between atoms: C4_4  and  O5_35
REMARK    3  A    between atoms: C7_7  and  C8_8
REMARK    4  A    between atoms: C9_9  and  O2_25
REMARK    5  A    between atoms: C11_11  and  O1_23
REMARK    6  A    between atoms: C15_15  and  C20_22
REMARK    7  A    between atoms: N1_17  and  C19_21
REMARK    8  A    between atoms: C16_18  and  C17_19
REMARK    9  A    between atoms: C16_18  and  C18_20
REMARK   10  A    between atoms: O1_23  and  C21_24
REMARK   11  A    between atoms: O2_25  and  C22_26
REMARK   12  A    between atoms: C24_28  and  O4_33
REMARK   13  A    between atoms: C26_30  and  O3_31
REMARK   14  A    between atoms: O3_31  and  C27_32
REMARK   15  A    between atoms: O4_33  and  C28_34
REMARK   16  A    between atoms: O5_35  and  C29_36
REMARK                            x       y       z     vdW  Elec       q    Type
REMARK                         _______ _______ _______ _____ _____    ______ ____
ROOT
ATOM     18  C   UNL     1      -0.262   0.197   2.160  0.00  0.00    -0.077 A 
ATOM     19  C   UNL     1       0.997   0.625   2.592  0.00  0.00    +0.209 A 
ATOM     22  C   UNL     1       1.114   1.303   3.793  0.00  0.00    -0.147 A 
ATOM     23  C   UNL     1      -0.013   1.551   4.559  0.00  0.00    +0.202 A 
ATOM     26  C   UNL     1      -1.269   1.125   4.132  0.00  0.00    -0.195 A 
ATOM     27  C   UNL     1      -2.461   1.416   5.006  0.00  0.00    +0.130 C 
ATOM     28  C   UNL     1      -2.338   2.833   5.571  0.00  0.00    +0.102 C 
ATOM     29  C   UNL     1      -2.497   0.415   6.162  0.00  0.00    +0.097 C 
ATOM     30  N   UNL     1      -3.704   1.324   4.228  0.00  0.00    -0.378 N 
ATOM     31  H   UNL     1      -3.726   2.050   3.527  0.00  0.00    +0.422 HD
ATOM     32  C   UNL     1      -4.856   1.470   5.127  0.00  0.00    +0.319 C 
ATOM     33  C   UNL     1      -3.754   0.007   3.574  0.00  0.00    +0.166 C 
ATOM     34  C   UNL     1      -5.157  -0.241   3.018  0.00  0.00    +0.092 C 
ATOM     35  C   UNL     1      -2.738  -0.008   2.432  0.00  0.00    +0.137 C 
ATOM     36  C   UNL     1      -1.396   0.457   2.935  0.00  0.00    -0.001 A 
ENDROOT
BRANCH  18  17
ATOM      1  C   UNL     1      -0.709   1.673  -0.266  0.00  0.00    +0.093 C 
ATOM      2  C   UNL     1      -0.611   0.170  -0.299  0.00  0.00    +0.014 A 
ATOM      3  C   UNL     1      -0.733  -0.500  -1.511  0.00  0.00    -0.122 A 
ATOM      4  C   UNL     1      -0.648  -1.874  -1.572  0.00  0.00    +0.199 A 
ATOM      7  C   UNL     1      -0.436  -2.617  -0.394  0.00  0.00    -0.135 A 
ATOM      8  C   UNL     1      -0.311  -1.942   0.843  0.00  0.00    +0.083 A 
ATOM      9  C   UNL     1      -0.099  -2.681   2.015  0.00  0.00    -0.084 A 
ATOM     10  C   UNL     1      -0.014  -4.055   1.949  0.00  0.00    +0.196 A 
ATOM     13  C   UNL     1      -0.138  -4.719   0.728  0.00  0.00    -0.183 A 
ATOM     14  C   UNL     1      -0.345  -4.023  -0.429  0.00  0.00    +0.217 A 
ATOM     17  C   UNL     1      -0.396  -0.529   0.876  0.00  0.00    -0.112 A 
BRANCH   4   5
ATOM      5  O   UNL     1      -0.771  -2.510  -2.765  0.00  0.00    -0.288 OA
ATOM      6  C   UNL     1      -0.985  -1.693  -3.918  0.00  0.00    +0.245 C 
ENDBRANCH   4   5
BRANCH  10  11
ATOM     11  O   UNL     1       0.191  -4.771   3.086  0.00  0.00    -0.313 OA
ATOM     12  C   UNL     1       0.269  -6.191   2.952  0.00  0.00    +0.245 C 
ENDBRANCH  10  11
BRANCH  14  15
ATOM     15  O   UNL     1      -0.464  -4.684  -1.610  0.00  0.00    -0.285 OA
ATOM     16  C   UNL     1      -0.362  -6.109  -1.569  0.00  0.00    +0.246 C 
ENDBRANCH  14  15
ENDBRANCH  18  17
BRANCH  19  20
ATOM     20  O   UNL     1       2.099   0.377   1.837  0.00  0.00    -0.291 OA
ATOM     21  C   UNL     1       3.351   0.845   2.343  0.00  0.00    +0.251 C 
ENDBRANCH  19  20
BRANCH  23  24
ATOM     24  O   UNL     1       0.108   2.215   5.738  0.00  0.00    -0.307 OA
ATOM     25  C   UNL     1       1.422   2.625   6.120  0.00  0.00    +0.251 C 
ENDBRANCH  23  24
TORSDOF 6
