REMARK  Name = ZINC95485992
REMARK  17 active torsions:
REMARK  status: ('A' for Active; 'I' for Inactive)
REMARK    1  A    between atoms: C1_1  and  C2_2
REMARK    2  A    between atoms: C3_3  and  C4_4
REMARK    3  A    between atoms: C3_3  and  C5_5
REMARK    4  A    between atoms: C5_5  and  C6_6
REMARK    5  A    between atoms: C6_6  and  C7_7
REMARK    6  A    between atoms: C9_9  and  C13_14
REMARK    7  A    between atoms: C12_12  and  O1_13
REMARK    8  A    between atoms: C14_15  and  C15_16
REMARK    9  A    between atoms: C15_16  and  C16_18
REMARK   10  A    between atoms: C18_20  and  C22_26
REMARK   11  A    between atoms: C19_21  and  O4_25
REMARK   12  A    between atoms: C21_23  and  O3_24
REMARK   13  A    between atoms: C22_26  and  C23_27
REMARK   14  A    between atoms: C23_27  and  C24_28
REMARK   15  A    between atoms: C24_28  and  C25_30
REMARK   16  A    between atoms: C24_28  and  O5_33
REMARK   17  A    between atoms: C25_30  and  C27_32
REMARK                            x       y       z     vdW  Elec       q    Type
REMARK                         _______ _______ _______ _____ _____    ______ ____
ROOT
ATOM     11  C   UNL     1      -3.124  -9.143   0.792  0.00  0.00    +0.423 C 
ATOM     30  O   UNL     1      -3.876  -8.551   1.547  0.00  0.00    -0.443 OA
ENDROOT
BRANCH  11  12
ATOM     12  C   UNL     1      -3.101 -10.617   0.781  0.00  0.00    -0.195 A 
ATOM     13  C   UNL     1      -2.235 -11.299  -0.080  0.00  0.00    +0.097 A 
ATOM     14  C   UNL     1      -2.216 -12.674  -0.087  0.00  0.00    -0.128 A 
ATOM     23  C   UNL     1      -3.056 -13.391   0.760  0.00  0.00    +0.159 A 
ATOM     26  C   UNL     1      -3.919 -12.725   1.617  0.00  0.00    -0.044 A 
ATOM     27  C   UNL     1      -3.943 -11.341   1.638  0.00  0.00    +0.180 A 
BRANCH  23  24
ATOM     24  O   UNL     1      -3.032 -14.748   0.746  0.00  0.00    -0.489 OA
ATOM     25  H   UNL     1      -2.400 -15.137   1.366  0.00  0.00    +0.394 HD
ENDBRANCH  23  24
BRANCH  27  28
ATOM     28  O   UNL     1      -4.782 -10.688   2.481  0.00  0.00    -0.479 OA
ATOM     29  H   UNL     1      -5.654 -10.503   2.103  0.00  0.00    +0.398 HD
ENDBRANCH  27  28
BRANCH  14  15
ATOM     15  C   UNL     1      -1.282 -13.407  -1.015  0.00  0.00    +0.091 C 
BRANCH  15  16
ATOM     16  C   UNL     1      -0.046 -13.865  -0.238  0.00  0.00    -0.001 C 
BRANCH  16  17
ATOM     17  C   UNL     1       0.902 -14.610  -1.181  0.00  0.00    +0.247 C 
BRANCH  17  20
ATOM     20  C   UNL     1       2.172 -14.954  -0.447  0.00  0.00    -0.165 C 
ATOM     21  C   UNL     1       2.136 -15.916   0.712  0.00  0.00    +0.077 C 
ATOM     22  C   UNL     1       3.308 -14.416  -0.817  0.00  0.00    +0.024 C 
ENDBRANCH  17  20
BRANCH  17  18
ATOM     18  O   UNL     1       0.275 -15.810  -1.637  0.00  0.00    -0.552 OA
ATOM     19  H   UNL     1       0.038 -16.424  -0.928  0.00  0.00    +0.374 HD
ENDBRANCH  17  18
ENDBRANCH  16  17
ENDBRANCH  15  16
ENDBRANCH  14  15
ENDBRANCH  11  12
BRANCH  11  10
ATOM      9  C   UNL     1      -2.266  -7.040  -0.091  0.00  0.00    +0.127 C 
ATOM     10  C   UNL     1      -2.245  -8.391  -0.102  0.00  0.00    -0.104 C 
BRANCH   9   8
ATOM      6  C   UNL     1      -0.573  -4.181  -1.825  0.00  0.00    -0.109 A 
ATOM      7  C   UNL     1      -1.403  -4.884  -0.981  0.00  0.00    +0.059 A 
ATOM      8  C   UNL     1      -1.383  -6.284  -0.990  0.00  0.00    -0.088 A 
ATOM     31  C   UNL     1      -0.518  -6.962  -1.858  0.00  0.00    +0.046 A 
ATOM     32  C   UNL     1       0.308  -6.249  -2.697  0.00  0.00    -0.011 A 
ATOM     33  C   UNL     1       0.280  -4.859  -2.689  0.00  0.00    +0.125 A 
BRANCH  33  34
ATOM     34  O   UNL     1       1.092  -4.161  -3.523  0.00  0.00    -0.493 OA
ATOM     35  H   UNL     1       1.958  -3.953  -3.146  0.00  0.00    +0.391 HD
ENDBRANCH  33  34
BRANCH   6   5
ATOM      5  C   UNL     1      -0.593  -2.674  -1.817  0.00  0.00    +0.084 C 
BRANCH   5   4
ATOM      4  C   UNL     1       0.589  -2.153  -0.998  0.00  0.00    +0.060 C 
BRANCH   4   3
ATOM      1  C   UNL     1      -0.018   1.503   0.010  0.00  0.00    +0.064 C 
ATOM      2  C   UNL     1       0.002  -0.004   0.002  0.00  0.00    -0.057 C 
ATOM      3  C   UNL     1       0.569  -0.646  -0.989  0.00  0.00    -0.134 C 
ATOM     36  C   UNL     1       1.200   0.122  -2.122  0.00  0.00    +0.073 C 
ENDBRANCH   4   3
ENDBRANCH   5   4
ENDBRANCH   6   5
ENDBRANCH   9   8
ENDBRANCH  11  10
TORSDOF 14
