REMARK  Name = ZINC15156307
REMARK  7 active torsions:
REMARK  status: ('A' for Active; 'I' for Inactive)
REMARK    1  A    between atoms: C1_1  and  C2_2
REMARK    2  A    between atoms: C5_6  and  C20_24
REMARK    3  A    between atoms: C7_9  and  C8_10
REMARK    4  A    between atoms: C7_9  and  C9_11
REMARK    5  A    between atoms: C9_11  and  C10_12
REMARK    6  A    between atoms: C10_12  and  C11_13
REMARK    7  A    between atoms: C18_21  and  C19_22
REMARK                            x       y       z     vdW  Elec       q    Type
REMARK                         _______ _______ _______ _____ _____    ______ ____
ROOT
ATOM      1  C   UNL     1      -0.587   5.221   3.290  0.00  0.00    +0.007 C 
ATOM      2  C   UNL     1      -0.470   5.717   1.846  0.00  0.00    -0.019 C 
ATOM      3  C   UNL     1      -1.714   5.341   1.061  0.00  0.00    -0.007 C 
ATOM      4  C   UNL     1      -1.795   3.834   0.819  0.00  0.00    +0.049 C 
ATOM      5  C   UNL     1      -0.567   3.370   0.045  0.00  0.00    +0.013 C 
ATOM      6  C   UNL     1      -0.610   3.978  -1.358  0.00  0.00    +0.022 C 
ATOM      7  C   UNL     1       0.703   3.740   0.793  0.00  0.00    -0.004 C 
ATOM      8  C   UNL     1       1.917   3.245   0.006  0.00  0.00    +0.007 C 
ATOM      9  C   UNL     1       1.915   1.712   0.045  0.00  0.00    +0.042 C 
ATOM     10  C   UNL     1       0.534   1.160  -0.127  0.00  0.00    -0.053 C 
ATOM     11  C   UNL     1      -0.575   1.872  -0.136  0.00  0.00    -0.133 C 
ATOM     15  C   UNL     1       0.818   5.184   1.221  0.00  0.00    -0.031 C 
ATOM     23  C   UNL     1       1.912   5.275   2.315  0.00  0.00    +0.007 C 
ENDROOT
BRANCH  11  12
ATOM     12  C   UNL     1      -1.854   1.183  -0.336  0.00  0.00    +0.485 C 
ATOM     13  O   UNL     1      -2.989   1.896  -0.479  0.00  0.00    -0.749 OA
ATOM     14  O   UNL     1      -1.891  -0.031  -0.373  0.00  0.00    -0.643 OA
ENDBRANCH  11  12
BRANCH  15  16
ATOM     16  C   UNL     1       1.257   6.098   0.074  0.00  0.00    +0.028 C 
BRANCH  16  17
ATOM     17  C   UNL     1       1.486   7.513   0.610  0.00  0.00    +0.089 C 
BRANCH  17  18
ATOM     18  C   UNL     1       2.017   8.388  -0.496  0.00  0.00    -0.167 A 
ATOM     19  C   UNL     1       1.253   9.158  -1.403  0.00  0.00    -0.061 A 
ATOM     20  C   UNL     1       2.124   9.782  -2.216  0.00  0.00    +0.151 A 
ATOM     21  O   UNL     1       3.369   9.432  -1.851  0.00  0.00    -0.181 OA
ATOM     22  C   UNL     1       3.310   8.591  -0.806  0.00  0.00    +0.147 A 
ENDBRANCH  17  18
ENDBRANCH  16  17
ENDBRANCH  15  16
TORSDOF 4
