REMARK  Name = ZINC95485910
REMARK  2 active torsions:
REMARK  status: ('A' for Active; 'I' for Inactive)
REMARK    1  A    between atoms: C6_6  and  O5_25
REMARK    2  A    between atoms: C7_7  and  O4_24
REMARK                            x       y       z     vdW  Elec       q    Type
REMARK                         _______ _______ _______ _____ _____    ______ ____
ROOT
ATOM      1  C   UNL     1      -0.017   1.405   0.010  0.00  0.00    +0.020 A 
ATOM      2  C   UNL     1       1.146   2.103   0.002  0.00  0.00    +0.077 A 
ATOM      3  C   UNL     1       2.386   1.441  -0.014  0.00  0.00    -0.102 A 
ATOM      4  C   UNL     1       3.643   2.212  -0.020  0.00  0.00    +0.018 A 
ATOM      5  C   UNL     1       3.644   3.603  -0.006  0.00  0.00    +0.014 A 
ATOM      6  C   UNL     1       4.847   4.286  -0.011  0.00  0.00    +0.126 A 
ATOM      9  C   UNL     1       6.058   3.588  -0.031  0.00  0.00    +0.070 A 
ATOM     12  C   UNL     1       6.071   2.208  -0.045  0.00  0.00    +0.097 A 
ATOM     13  C   UNL     1       4.865   1.506  -0.039  0.00  0.00    -0.140 A 
ATOM     14  C   UNL     1       4.833   0.039  -0.052  0.00  0.00    +0.560 A 
ATOM     15  N   UNL     1       3.657  -0.614  -0.044  0.00  0.00    -0.634 N 
ATOM     16  H   UNL     1       3.661  -1.583  -0.052  0.00  0.00    +0.416 HD
ATOM     17  O   UNL     1       5.876  -0.590  -0.070  0.00  0.00    -0.514 OA
ATOM     18  C   UNL     1       2.446   0.047  -0.025  0.00  0.00    +0.204 A 
ATOM     19  C   UNL     1       1.240  -0.690  -0.015  0.00  0.00    -0.066 A 
ATOM     20  C   UNL     1       1.254  -2.094  -0.021  0.00  0.00    +0.039 A 
ATOM     21  C   UNL     1       0.077  -2.785  -0.011  0.00  0.00    +0.050 A 
ATOM     22  O   UNL     1      -0.172  -4.129  -0.014  0.00  0.00    -0.304 OA
ATOM     23  C   UNL     1      -1.539  -4.267   0.415  0.00  0.00    +0.440 C 
ATOM     24  O   UNL     1      -2.156  -3.032   0.011  0.00  0.00    -0.303 OA
ATOM     25  C   UNL     1      -1.152  -2.106   0.005  0.00  0.00    +0.060 A 
ATOM     26  C   UNL     1      -1.193  -0.741   0.011  0.00  0.00    +0.050 A 
ATOM     27  C   UNL     1       0.002  -0.004   0.002  0.00  0.00    -0.000 A 
ENDROOT
BRANCH   6   7
ATOM      7  O   UNL     1       4.851   5.644   0.002  0.00  0.00    -0.483 OA
ATOM      8  H   UNL     1       4.861   6.029   0.889  0.00  0.00    +0.396 HD
ENDBRANCH   6   7
BRANCH   9  10
ATOM     10  O   UNL     1       7.232   4.274  -0.037  0.00  0.00    -0.481 OA
ATOM     11  H   UNL     1       7.581   4.464   0.845  0.00  0.00    +0.391 HD
ENDBRANCH   9  10
TORSDOF 2
