REMARK  Name = ZINC95486089
REMARK  8 active torsions:
REMARK  status: ('A' for Active; 'I' for Inactive)
REMARK    1  A    between atoms: C1_1  and  C2_2
REMARK    2  A    between atoms: C5_5  and  C29_33
REMARK    3  A    between atoms: C5_5  and  C30_34
REMARK    4  A    between atoms: C8_9  and  C28_32
REMARK    5  A    between atoms: C12_14  and  C27_31
REMARK    6  A    between atoms: C16_19  and  C25_29
REMARK    7  A    between atoms: C16_19  and  C26_30
REMARK    8  A    between atoms: C20_24  and  C24_28
REMARK                            x       y       z     vdW  Elec       q    Type
REMARK                         _______ _______ _______ _____ _____    ______ ____
ROOT
ATOM      1  C   UNL     1      -1.283   2.335  -0.260  0.00  0.00    +0.026 C 
ATOM      2  C   UNL     1      -1.417   0.829  -0.478  0.00  0.00    -0.043 C 
ATOM      3  C   UNL     1      -1.154   0.525  -1.966  0.00  0.00    +0.009 C 
ATOM      4  C   UNL     1       0.283   0.864  -2.338  0.00  0.00    +0.012 C 
ATOM      5  C   UNL     1       1.282   0.102  -1.471  0.00  0.00    -0.063 C 
ATOM      6  C   UNL     1       2.696   0.617  -1.784  0.00  0.00    +0.014 C 
ATOM      7  C   UNL     1       1.229  -1.393  -1.779  0.00  0.00    +0.020 C 
ATOM      8  C   UNL     1       0.996   0.354   0.012  0.00  0.00    +0.027 C 
ATOM      9  C   UNL     1      -2.858   0.402  -0.178  0.00  0.00    +0.055 C 
ATOM     10  C   UNL     1      -3.088   0.264   1.293  0.00  0.00    -0.057 C 
ATOM     11  C   UNL     1      -2.154   0.067   2.179  0.00  0.00    -0.092 C 
ATOM     12  C   UNL     1      -2.626  -0.291   3.588  0.00  0.00    -0.003 C 
ATOM     13  C   UNL     1      -3.421  -1.601   3.461  0.00  0.00    +0.030 C 
ATOM     14  C   UNL     1      -3.545   0.819   4.100  0.00  0.00    +0.020 C 
ATOM     15  C   UNL     1      -3.898   0.564   5.571  0.00  0.00    +0.021 C 
ATOM     16  C   UNL     1      -2.614   0.545   6.396  0.00  0.00    +0.005 C 
ATOM     17  C   UNL     1      -2.879   0.644   7.885  0.00  0.00    -0.093 C 
ATOM     18  C   UNL     1      -3.326   2.089   8.208  0.00  0.00    +0.042 C 
ATOM     19  C   UNL     1      -3.992  -0.293   8.352  0.00  0.00    +0.056 C 
ATOM     20  C   UNL     1      -1.622   0.387   8.681  0.00  0.00    +0.368 C 
ATOM     21  O   UNL     1      -1.414   1.025   9.695  0.00  0.00    -0.458 OA
ATOM     22  C   UNL     1      -0.626  -0.649   8.229  0.00  0.00    +0.020 C 
ATOM     23  C   UNL     1      -0.380  -0.496   6.729  0.00  0.00    +0.035 C 
ATOM     24  C   UNL     1      -1.714  -0.610   5.968  0.00  0.00    -0.040 C 
ATOM     25  C   UNL     1      -2.312  -1.977   6.256  0.00  0.00    +0.032 C 
ATOM     26  C   UNL     1      -1.405  -0.415   4.480  0.00  0.00    +0.005 C 
ATOM     27  C   UNL     1      -0.421  -1.427   3.934  0.00  0.00    +0.014 C 
ATOM     28  C   UNL     1      -0.019  -1.157   2.491  0.00  0.00    +0.009 C 
ATOM     29  C   UNL     1      -0.694   0.061   1.859  0.00  0.00    +0.001 C 
ATOM     30  C   UNL     1      -0.021   1.319   2.407  0.00  0.00    +0.025 C 
ATOM     31  C   UNL     1      -0.449   0.010   0.353  0.00  0.00    +0.002 C 
ENDROOT
TORSDOF 0
