REMARK  Name = ZINC00006256
REMARK  0 active torsions:
REMARK  status: ('A' for Active; 'I' for Inactive)
REMARK                            x       y       z     vdW  Elec       q    Type
REMARK                         _______ _______ _______ _____ _____    ______ ____
ROOT
ATOM      1  C   UNL     1      -1.226   1.748   0.017  0.00  0.00    +0.052 A 
ATOM      2  C   UNL     1      -0.013   1.076   0.008  0.00  0.00    +0.013 A 
ATOM      3  C   UNL     1       1.174   1.775   0.000  0.00  0.00    +0.089 A 
ATOM      4  C   UNL     1       1.156   3.172   0.007  0.00  0.00    -0.148 A 
ATOM      5  C   UNL     1      -0.076   3.854   0.023  0.00  0.00    -0.003 A 
ATOM      6  C   UNL     1      -0.102   5.327   0.032  0.00  0.00    -0.027 A 
ATOM      7  C   UNL     1       1.103   6.056   0.023  0.00  0.00    -0.053 A 
ATOM      8  C   UNL     1       1.064   7.474   0.030  0.00  0.00    -0.021 A 
ATOM      9  C   UNL     1      -0.176   8.137   0.048  0.00  0.00    +0.068 A 
ATOM     10  C   UNL     1      -1.337   7.419   0.059  0.00  0.00    +0.061 A 
ATOM     11  O   UNL     1      -2.640   7.828   0.077  0.00  0.00    -0.298 OA
ATOM     12  C   UNL     1      -3.398   6.678   0.496  0.00  0.00    +0.444 C 
ATOM     13  O   UNL     1      -2.600   5.561   0.063  0.00  0.00    -0.292 OA
ATOM     14  C   UNL     1       2.282   8.169   0.020  0.00  0.00    +0.045 A 
ATOM     15  C   UNL     1       3.460   7.448   0.004  0.00  0.00    +0.249 A 
ATOM     16  N   UNL     1       3.470   6.130  -0.002  0.00  0.00    -0.416 NA
ATOM     17  C   UNL     1       2.357   5.411   0.006  0.00  0.00    +0.094 A 
ATOM     18  C   UNL     1      -1.315   6.014   0.050  0.00  0.00    +0.083 A 
ATOM     19  C   UNL     1       2.414   3.936  -0.002  0.00  0.00    +0.443 C 
ATOM     20  O   UNL     1       3.486   3.359  -0.014  0.00  0.00    -0.412 OA
ATOM     21  C   UNL     1      -1.266   3.125   0.030  0.00  0.00    +0.031 A 
ENDROOT
TORSDOF 0
