REMARK  Name = ZINC04098841
REMARK  9 active torsions:
REMARK  status: ('A' for Active; 'I' for Inactive)
REMARK    1  A    between atoms: C1_1  and  N1_2
REMARK    2  A    between atoms: C11_13  and  O5_23
REMARK    3  A    between atoms: C12_14  and  O4_21
REMARK    4  A    between atoms: C13_15  and  O3_19
REMARK    5  A    between atoms: C14_16  and  O2_17
REMARK    6  A    between atoms: O2_17  and  C15_18
REMARK    7  A    between atoms: O3_19  and  C16_20
REMARK    8  A    between atoms: O4_21  and  C17_22
REMARK    9  A    between atoms: O5_23  and  C18_24
REMARK                            x       y       z     vdW  Elec       q    Type
REMARK                         _______ _______ _______ _____ _____    ______ ____
ROOT
ATOM      1  C   UNL     1      -3.716   3.135   0.734  0.00  0.00    +0.319 C 
ATOM      2  N   UNL     1      -2.459   3.883   0.647  0.00  0.00    -0.510 N 
ATOM      3  C   UNL     1      -1.293   3.272   1.056  0.00  0.00    +0.217 A 
ATOM      4  C   UNL     1      -1.323   1.964   1.536  0.00  0.00    -0.047 A 
ATOM      5  C   UNL     1      -0.160   1.354   1.950  0.00  0.00    +0.087 A 
ATOM      6  C   UNL     1       1.053   2.025   1.886  0.00  0.00    -0.033 A 
ATOM      7  C   UNL     1       1.107   3.316   1.410  0.00  0.00    +0.119 A 
ATOM      8  C   UNL     1      -0.065   3.949   0.992  0.00  0.00    -0.210 A 
ATOM      9  C   UNL     1      -0.031   5.332   0.479  0.00  0.00    +0.438 A 
ATOM     10  C   UNL     1      -1.304   5.933   0.057  0.00  0.00    -0.224 A 
ATOM     11  C   UNL     1      -1.345   7.244  -0.440  0.00  0.00    +0.189 A 
ATOM     14  C   UNL     1      -2.556   7.790  -0.832  0.00  0.00    +0.020 A 
ATOM     17  C   UNL     1      -3.726   7.041  -0.731  0.00  0.00    +0.148 A 
ATOM     20  C   UNL     1      -3.694   5.744  -0.241  0.00  0.00    +0.010 A 
ATOM     23  O   UNL     1       1.015   5.953   0.408  0.00  0.00    -0.445 OA
ATOM     24  C   UNL     1      -2.486   5.176   0.158  0.00  0.00    +0.236 A 
ENDROOT
BRANCH  11  12
ATOM     12  O   UNL     1      -0.203   7.974  -0.536  0.00  0.00    -0.314 OA
ATOM     13  C   UNL     1       0.524   7.881  -1.763  0.00  0.00    +0.249 C 
ENDBRANCH  11  12
BRANCH  14  15
ATOM     15  O   UNL     1      -2.603   9.062  -1.315  0.00  0.00    -0.312 OA
ATOM     16  C   UNL     1      -2.665  10.119  -0.356  0.00  0.00    +0.227 C 
ENDBRANCH  14  15
BRANCH  17  18
ATOM     18  O   UNL     1      -4.910   7.586  -1.117  0.00  0.00    -0.319 OA
ATOM     19  C   UNL     1      -5.721   8.168  -0.095  0.00  0.00    +0.242 C 
ENDBRANCH  17  18
BRANCH  20  21
ATOM     21  O   UNL     1      -4.846   5.023  -0.149  0.00  0.00    -0.315 OA
ATOM     22  C   UNL     1      -5.304   4.378  -1.339  0.00  0.00    +0.228 C 
ENDBRANCH  20  21
TORSDOF 4
