REMARK  Name = ZINC00898100
REMARK  1 active torsions:
REMARK  status: ('A' for Active; 'I' for Inactive)
REMARK    1  A    between atoms: C1_1  and  N1_2
REMARK                            x       y       z     vdW  Elec       q    Type
REMARK                         _______ _______ _______ _____ _____    ______ ____
ROOT
ATOM      1  C   UNL     1       3.687  -0.714  -0.036  0.00  0.00    +0.331 C 
ATOM      2  N   UNL     1       2.414   0.010  -0.020  0.00  0.00    -0.399 N 
ATOM      3  C   UNL     1       1.237  -0.691  -0.013  0.00  0.00    +0.167 A 
ATOM      4  C   UNL     1       1.242  -2.086  -0.021  0.00  0.00    -0.025 A 
ATOM      5  C   UNL     1       0.062  -2.772  -0.014  0.00  0.00    +0.086 A 
ATOM      6  C   UNL     1      -1.156  -2.100   0.001  0.00  0.00    -0.005 A 
ATOM      7  C   UNL     1      -1.198  -0.738   0.009  0.00  0.00    +0.090 A 
ATOM      8  C   UNL     1       0.002  -0.004   0.002  0.00  0.00    -0.104 A 
ATOM      9  C   UNL     1      -0.017   1.402   0.010  0.00  0.00    +0.183 A 
ATOM     10  C   UNL     1       1.192   2.100   0.002  0.00  0.00    +0.071 A 
ATOM     11  N   UNL     1       1.458   3.421   0.006  0.00  0.00    -0.536 NA
ATOM     12  C   UNL     1       2.772   3.640  -0.006  0.00  0.00    +0.181 A 
ATOM     13  C   UNL     1       3.567   4.799  -0.009  0.00  0.00    +0.004 A 
ATOM     14  C   UNL     1       4.924   4.687  -0.023  0.00  0.00    +0.053 A 
ATOM     15  C   UNL     1       5.555   3.446  -0.035  0.00  0.00    -0.054 A 
ATOM     16  C   UNL     1       4.842   2.285  -0.034  0.00  0.00    +0.064 A 
ATOM     17  C   UNL     1       3.442   2.334  -0.015  0.00  0.00    -0.228 A 
ATOM     18  C   UNL     1       2.413   1.375  -0.012  0.00  0.00    +0.121 A 
ENDROOT
TORSDOF 0
