REMARK  Name = ZINC95486097
REMARK  7 active torsions:
REMARK  status: ('A' for Active; 'I' for Inactive)
REMARK    1  A    between atoms: C1_1  and  C2_2
REMARK    2  A    between atoms: C2_2  and  C19_25
REMARK    3  A    between atoms: C11_13  and  O2_21
REMARK    4  A    between atoms: C12_15  and  O1_20
REMARK    5  A    between atoms: C13_17  and  C14_18
REMARK    6  A    between atoms: C13_17  and  C15_19
REMARK    7  A    between atoms: C16_22  and  C18_24
REMARK                            x       y       z     vdW  Elec       q    Type
REMARK                         _______ _______ _______ _____ _____    ______ ____
ROOT
ATOM      1  C   UNL     1       1.081   1.663   0.712  0.00  0.00    +0.031 C 
ATOM      2  C   UNL     1       0.600   0.266   0.315  0.00  0.00    -0.033 C 
ATOM      5  C   UNL     1      -0.908   0.299   0.051  0.00  0.00    +0.022 C 
ATOM      6  C   UNL     1      -1.365  -1.095  -0.383  0.00  0.00    +0.020 C 
ATOM      7  C   UNL     1      -1.054  -2.114   0.702  0.00  0.00    +0.033 C 
ATOM      8  C   UNL     1      -1.909  -1.924   1.909  0.00  0.00    -0.041 C 
ATOM      9  C   UNL     1      -1.539  -2.143   3.134  0.00  0.00    -0.029 C 
ATOM     10  C   UNL     1      -0.159  -2.600   3.500  0.00  0.00    +0.075 C 
ATOM     11  C   UNL     1       0.586  -3.025   2.273  0.00  0.00    -0.073 C 
ATOM     12  C   UNL     1       1.302  -4.105   2.186  0.00  0.00    -0.081 C 
ATOM     13  C   UNL     1       1.393  -5.074   3.337  0.00  0.00    +0.171 C 
ATOM     16  C   UNL     1       0.052  -5.038   4.085  0.00  0.00    +0.194 C 
ATOM     19  C   UNL     1      -0.167  -3.633   4.603  0.00  0.00    -0.045 C 
ATOM     20  C   UNL     1      -1.517  -3.585   5.322  0.00  0.00    +0.043 C 
ATOM     21  C   UNL     1       0.941  -3.302   5.604  0.00  0.00    +0.036 C 
ATOM     22  C   UNL     1       0.431  -2.123   1.056  0.00  0.00    -0.010 C 
ATOM     23  C   UNL     1       1.260  -2.663  -0.111  0.00  0.00    +0.034 C 
ATOM     24  C   UNL     1       0.887  -0.715   1.451  0.00  0.00    +0.038 C 
ENDROOT
BRANCH   2   3
ATOM      3  C   UNL     1       1.322  -0.180  -0.931  0.00  0.00    -0.017 C 
ATOM      4  C   UNL     1       0.703  -0.170  -2.086  0.00  0.00    -0.016 C 
ENDBRANCH   2   3
BRANCH  13  14
ATOM     14  O   UNL     1       1.638  -6.392   2.844  0.00  0.00    -0.565 OA
ATOM     15  H   UNL     1       2.458  -6.476   2.339  0.00  0.00    +0.382 HD
ENDBRANCH  13  14
BRANCH  16  17
ATOM     17  O   UNL     1      -1.007  -5.388   3.192  0.00  0.00    -0.547 OA
ATOM     18  H   UNL     1      -0.921  -6.270   2.806  0.00  0.00    +0.379 HD
ENDBRANCH  16  17
TORSDOF 3
