REMARK  Name = ZINC95486147
REMARK  10 active torsions:
REMARK  status: ('A' for Active; 'I' for Inactive)
REMARK    1  A    between atoms: C1_1  and  C2_2
REMARK    2  A    between atoms: C5_5  and  O5_30
REMARK    3  A    between atoms: C6_7  and  C20_28
REMARK    4  A    between atoms: C6_7  and  C21_29
REMARK    5  A    between atoms: C11_13  and  C12_15
REMARK    6  A    between atoms: C12_15  and  C13_16
REMARK    7  A    between atoms: C14_17  and  C15_18
REMARK    8  A    between atoms: C14_17  and  C17_22
REMARK    9  A    between atoms: C17_22  and  O3_24
REMARK   10  A    between atoms: O3_24  and  C18_25
REMARK                            x       y       z     vdW  Elec       q    Type
REMARK                         _______ _______ _______ _____ _____    ______ ____
ROOT
ATOM      1  C   UNL     1      -0.413   1.317   0.237  0.00  0.00    +0.032 C 
ATOM      2  C   UNL     1      -0.299  -0.210   0.096  0.00  0.00    -0.033 C 
ATOM      3  C   UNL     1      -1.710  -0.791   0.002  0.00  0.00    +0.028 C 
ATOM      4  C   UNL     1      -2.452  -0.552   1.318  0.00  0.00    -0.013 C 
ATOM      5  C   UNL     1      -1.734  -1.296   2.438  0.00  0.00    +0.167 C 
ATOM      8  C   UNL     1      -0.285  -0.837   2.585  0.00  0.00    -0.041 C 
ATOM      9  C   UNL     1       0.409  -1.865   3.512  0.00  0.00    +0.020 C 
ATOM     10  C   UNL     1      -0.239   0.514   3.297  0.00  0.00    +0.037 C 
ATOM     11  C   UNL     1       0.452  -0.481  -1.217  0.00  0.00    +0.036 C 
ATOM     22  C   UNL     1       1.901  -0.005  -1.091  0.00  0.00    +0.029 C 
ATOM     23  C   UNL     1       2.275   1.349  -1.688  0.00  0.00    +0.182 C 
ATOM     24  O   UNL     1       2.649   0.116  -2.307  0.00  0.00    -0.343 OA
ATOM     25  C   UNL     1       2.662  -0.486   0.144  0.00  0.00    +0.049 C 
ATOM     26  C   UNL     1       1.840  -0.184   1.403  0.00  0.00    +0.036 C 
ATOM     27  C   UNL     1       0.458  -0.824   1.261  0.00  0.00    +0.005 C 
ENDROOT
BRANCH   5   6
ATOM      6  O   UNL     1      -2.424  -1.075   3.674  0.00  0.00    -0.564 OA
ATOM      7  H   UNL     1      -3.342  -1.378   3.672  0.00  0.00    +0.376 HD
ENDBRANCH   5   6
BRANCH  11  12
ATOM     12  C   UNL     1       0.428  -1.960  -1.588  0.00  0.00    +0.070 C 
BRANCH  12  13
ATOM     13  C   UNL     1       1.069  -2.149  -2.939  0.00  0.00    +0.082 C 
ATOM     14  C   UNL     1       2.068  -3.017  -3.086  0.00  0.00    -0.140 C 
BRANCH  14  19
ATOM     19  C   UNL     1       2.648  -3.273  -4.453  0.00  0.00    +0.183 C 
ATOM     20  C   UNL     1       4.112  -2.893  -4.689  0.00  0.00    +0.217 C 
ATOM     21  O   UNL     1       3.682  -4.253  -4.564  0.00  0.00    -0.349 OA
ENDBRANCH  14  19
BRANCH  14  15
ATOM     15  C   UNL     1       2.605  -3.724  -1.915  0.00  0.00    +0.515 C 
ATOM     18  O   UNL     1       3.644  -3.354  -1.405  0.00  0.00    -0.489 OA
BRANCH  15  16
ATOM     16  O   UNL     1       1.945  -4.784  -1.407  0.00  0.00    -0.349 OA
ATOM     17  C   UNL     1       2.524  -5.424  -0.269  0.00  0.00    +0.256 C 
ENDBRANCH  15  16
ENDBRANCH  14  15
ENDBRANCH  12  13
ENDBRANCH  11  12
TORSDOF 6
