REMARK  Name = ZINC95486305
REMARK  14 active torsions:
REMARK  status: ('A' for Active; 'I' for Inactive)
REMARK    1  A    between atoms: C1_1  and  C2_2
REMARK    2  A    between atoms: C2_2  and  O2_4
REMARK    3  A    between atoms: O2_4  and  C3_5
REMARK    4  A    between atoms: C3_5  and  C4_6
REMARK    5  A    between atoms: C5_7  and  C6_8
REMARK    6  A    between atoms: C6_8  and  C7_10
REMARK    7  A    between atoms: C7_10  and  C8_11
REMARK    8  A    between atoms: C9_13  and  O7_41
REMARK    9  A    between atoms: C11_16  and  C29_40
REMARK   10  A    between atoms: C12_17  and  C28_39
REMARK   11  A    between atoms: C15_21  and  C27_38
REMARK   12  A    between atoms: C22_30  and  O6_37
REMARK   13  A    between atoms: C24_34  and  C25_35
REMARK   14  A    between atoms: C24_34  and  C26_36
REMARK                            x       y       z     vdW  Elec       q    Type
REMARK                         _______ _______ _______ _____ _____    ______ ____
ROOT
ATOM      9  C   UNL     1      -6.027  -6.001  -1.292  0.00  0.00    +0.025 C 
ATOM     10  C   UNL     1      -6.415  -6.988  -0.161  0.00  0.00    +0.176 C 
ATOM     13  C   UNL     1      -7.015  -8.244  -0.860  0.00  0.00    +0.013 C 
ATOM     14  C   UNL     1      -7.443  -7.663  -2.222  0.00  0.00    -0.040 C 
ATOM     15  C   UNL     1      -8.615  -6.691  -1.929  0.00  0.00    +0.022 C 
ATOM     16  C   UNL     1      -7.910  -8.596  -3.272  0.00  0.00    +0.006 C 
ATOM     17  C   UNL     1      -7.797 -10.091  -3.030  0.00  0.00    +0.087 C 
ATOM     18  C   UNL     1      -8.663 -10.756  -4.079  0.00  0.00    -0.041 C 
ATOM     19  C   UNL     1      -8.978 -10.207  -5.226  0.00  0.00    -0.095 C 
ATOM     20  C   UNL     1      -8.563  -8.812  -5.617  0.00  0.00    +0.069 C 
ATOM     21  C   UNL     1      -8.118  -8.771  -7.074  0.00  0.00    +0.074 C 
ATOM     22  C   UNL     1      -9.324  -9.145  -7.948  0.00  0.00    +0.150 C 
ATOM     25  C   UNL     1      -9.716 -10.559  -7.602  0.00  0.00    +0.339 C 
ATOM     26  O   UNL     1      -9.933 -11.354  -8.501  0.00  0.00    -0.446 OA
ATOM     27  C   UNL     1      -9.849 -11.012  -6.171  0.00  0.00    -0.064 C 
ATOM     28  C   UNL     1     -11.318 -10.884  -5.735  0.00  0.00    +0.067 C 
ATOM     29  C   UNL     1      -9.457 -12.500  -6.117  0.00  0.00    +0.057 C 
ATOM     30  C   UNL     1      -7.464  -8.281  -4.694  0.00  0.00    -0.080 C 
ATOM     31  C   UNL     1      -6.191  -9.032  -5.071  0.00  0.00    +0.055 C 
ATOM     32  C   UNL     1      -7.242  -6.803  -4.855  0.00  0.00    +0.374 C 
ATOM     33  O   UNL     1      -7.743  -6.210  -5.799  0.00  0.00    -0.451 OA
ATOM     34  C   UNL     1      -6.406  -6.035  -3.844  0.00  0.00    +0.050 C 
ATOM     35  C   UNL     1      -6.198  -6.832  -2.585  0.00  0.00    -0.045 C 
ATOM     36  C   UNL     1      -4.928  -7.686  -2.680  0.00  0.00    +0.041 C 
ENDROOT
BRANCH  10  11
ATOM     11  O   UNL     1      -5.254  -7.355   0.587  0.00  0.00    -0.563 OA
ATOM     12  H   UNL     1      -5.431  -7.972   1.310  0.00  0.00    +0.377 HD
ENDBRANCH  10  11
BRANCH  22  23
ATOM     23  O   UNL     1     -10.405  -8.251  -7.691  0.00  0.00    -0.534 OA
ATOM     24  H   UNL     1     -11.199  -8.433  -8.212  0.00  0.00    +0.381 HD
ENDBRANCH  22  23
BRANCH   9   8
ATOM      8  C   UNL     1      -4.558  -5.595  -1.150  0.00  0.00    +0.056 C 
BRANCH   8   7
ATOM      7  C   UNL     1      -4.394  -4.718   0.065  0.00  0.00    +0.394 C 
ATOM     37  O   UNL     1      -5.358  -4.444   0.750  0.00  0.00    -0.456 OA
BRANCH   7   6
ATOM      5  C   UNL     1      -2.930  -3.420   1.494  0.00  0.00    +0.067 C 
ATOM      6  C   UNL     1      -3.074  -4.196   0.418  0.00  0.00    -0.086 C 
BRANCH   5   4
ATOM      4  C   UNL     1      -1.570  -2.883   1.858  0.00  0.00    +0.256 C 
BRANCH   4   3
ATOM      3  O   UNL     1      -1.678  -1.497   2.192  0.00  0.00    -0.350 OA
BRANCH   3   2
ATOM      1  C   UNL     1      -0.584   0.597   2.907  0.00  0.00    +0.161 C 
ATOM      2  C   UNL     1      -0.547  -0.865   2.542  0.00  0.00    +0.461 C 
ATOM     38  O   UNL     1       0.500  -1.467   2.564  0.00  0.00    -0.510 OA
ENDBRANCH   3   2
ENDBRANCH   4   3
ENDBRANCH   5   4
ENDBRANCH   7   6
ENDBRANCH   8   7
ENDBRANCH   9   8
TORSDOF 8
