REMARK  Name = ZINC95486353
REMARK  11 active torsions:
REMARK  status: ('A' for Active; 'I' for Inactive)
REMARK    1  A    between atoms: C1_1  and  C2_2
REMARK    2  A    between atoms: C4_6  and  O4_13
REMARK    3  A    between atoms: C4_6  and  O5_14
REMARK    4  A    between atoms: C5_7  and  O3_12
REMARK    5  A    between atoms: C6_9  and  O2_11
REMARK    6  A    between atoms: O5_14  and  C7_15
REMARK    7  A    between atoms: C8_16  and  C17_28
REMARK    8  A    between atoms: C12_20  and  O8_27
REMARK    9  A    between atoms: C14_22  and  O7_26
REMARK   10  A    between atoms: C20_31  and  O10_35
REMARK   11  A    between atoms: C21_32  and  O9_34
REMARK                            x       y       z     vdW  Elec       q    Type
REMARK                         _______ _______ _______ _____ _____    ______ ____
ROOT
ATOM      7  C   UNL     1      -2.716  -2.335   2.388  0.00  0.00    -0.005 C 
ATOM      8  C   UNL     1      -3.145  -3.340   1.601  0.00  0.00    -0.019 C 
ATOM     19  C   UNL     1      -4.467  -4.016   1.764  0.00  0.00    +0.185 C 
ATOM     20  C   UNL     1      -5.439  -3.223   2.587  0.00  0.00    -0.004 A 
ATOM     21  C   UNL     1      -6.783  -3.528   2.525  0.00  0.00    -0.023 A 
ATOM     22  C   UNL     1      -7.705  -2.813   3.281  0.00  0.00    +0.166 A 
ATOM     25  C   UNL     1      -7.286  -1.783   4.111  0.00  0.00    -0.043 A 
ATOM     26  C   UNL     1      -5.941  -1.463   4.184  0.00  0.00    +0.194 A 
ATOM     29  C   UNL     1      -5.014  -2.181   3.415  0.00  0.00    -0.201 A 
ATOM     30  C   UNL     1      -3.579  -1.836   3.468  0.00  0.00    +0.416 C 
ATOM     31  O   UNL     1      -3.126  -1.158   4.374  0.00  0.00    -0.412 OA
ENDROOT
BRANCH   8   9
ATOM      9  C   UNL     1      -2.261  -3.798   0.519  0.00  0.00    -0.056 A 
ATOM     10  C   UNL     1      -2.607  -3.562  -0.817  0.00  0.00    +0.042 A 
ATOM     11  C   UNL     1      -1.777  -3.992  -1.829  0.00  0.00    +0.007 A 
ATOM     12  C   UNL     1      -0.597  -4.660  -1.528  0.00  0.00    +0.092 A 
ATOM     15  C   UNL     1      -0.246  -4.899  -0.200  0.00  0.00    +0.086 A 
ATOM     18  C   UNL     1      -1.070  -4.467   0.822  0.00  0.00    +0.042 A 
BRANCH  12  13
ATOM     13  O   UNL     1       0.217  -5.082  -2.530  0.00  0.00    -0.488 OA
ATOM     14  H   UNL     1       0.883  -4.434  -2.795  0.00  0.00    +0.390 HD
ENDBRANCH  12  13
BRANCH  15  16
ATOM     16  O   UNL     1       0.909  -5.555   0.090  0.00  0.00    -0.487 OA
ATOM     17  H   UNL     1       1.674  -4.974   0.199  0.00  0.00    +0.390 HD
ENDBRANCH  15  16
ENDBRANCH   8   9
BRANCH  22  23
ATOM     23  O   UNL     1      -9.024  -3.125   3.207  0.00  0.00    -0.493 OA
ATOM     24  H   UNL     1      -9.307  -3.790   3.849  0.00  0.00    +0.401 HD
ENDBRANCH  22  23
BRANCH  26  27
ATOM     27  O   UNL     1      -5.522  -0.459   4.994  0.00  0.00    -0.478 OA
ATOM     28  H   UNL     1      -5.299  -0.744   5.891  0.00  0.00    +0.402 HD
ENDBRANCH  26  27
BRANCH   7   6
ATOM      6  O   UNL     1      -1.488  -1.787   2.187  0.00  0.00    -0.315 OA
BRANCH   6   5
ATOM      1  C   UNL     1       1.113   0.625   4.973  0.00  0.00    +0.050 C 
ATOM      2  C   UNL     1       0.290   0.764   3.691  0.00  0.00    -0.039 C 
ATOM      3  C   UNL     1      -1.161   0.361   3.968  0.00  0.00    +0.274 C 
ATOM      4  O   UNL     1      -1.914   0.436   2.756  0.00  0.00    -0.397 OA
ATOM      5  C   UNL     1      -1.448  -0.436   1.724  0.00  0.00    +0.401 C 
ATOM     34  C   UNL     1      -0.008  -0.065   1.357  0.00  0.00    +0.193 C 
ATOM     37  C   UNL     1       0.870  -0.152   2.609  0.00  0.00    +0.200 C 
BRANCH   5  32
ATOM     32  O   UNL     1      -2.283  -0.301   0.573  0.00  0.00    -0.533 OA
ATOM     33  H   UNL     1      -3.201  -0.566   0.720  0.00  0.00    +0.388 HD
ENDBRANCH   5  32
BRANCH  34  35
ATOM     35  O   UNL     1       0.480  -0.970   0.365  0.00  0.00    -0.546 OA
ATOM     36  H   UNL     1      -0.033  -0.969  -0.455  0.00  0.00    +0.389 HD
ENDBRANCH  34  35
BRANCH  37  38
ATOM     38  O   UNL     1       2.199   0.265   2.292  0.00  0.00    -0.552 OA
ATOM     39  H   UNL     1       2.628  -0.272   1.612  0.00  0.00    +0.386 HD
ENDBRANCH  37  38
ENDBRANCH   6   5
ENDBRANCH   7   6
TORSDOF 10
