REMARK  Name = ZINC95486222
REMARK  13 active torsions:
REMARK  status: ('A' for Active; 'I' for Inactive)
REMARK    1  A    between atoms: C1_1  and  C2_2
REMARK    2  A    between atoms: C3_3  and  C4_4
REMARK    3  A    between atoms: C3_3  and  C5_5
REMARK    4  A    between atoms: C5_5  and  O2_7
REMARK    5  A    between atoms: O2_7  and  C6_8
REMARK    6  A    between atoms: C6_8  and  C7_9
REMARK    7  A    between atoms: N2_26  and  C18_27
REMARK    8  A    between atoms: C20_30  and  O5_35
REMARK    9  A    between atoms: C21_31  and  C23_34
REMARK   10  A    between atoms: O5_35  and  C24_36
REMARK   11  A    between atoms: C26_40  and  C30_46
REMARK   12  A    between atoms: C27_41  and  O9_44
REMARK   13  A    between atoms: O9_44  and  C29_45
REMARK                            x       y       z     vdW  Elec       q    Type
REMARK                         _______ _______ _______ _____ _____    ______ ____
ROOT
ATOM      7  C   UNL     1      -4.777  -0.962   0.937  0.00  0.00    +0.208 C 
ATOM      8  C   UNL     1      -4.577  -1.803  -0.295  0.00  0.00    -0.116 C 
ATOM      9  C   UNL     1      -4.995  -3.069  -0.370  0.00  0.00    -0.086 C 
ATOM     10  C   UNL     1      -4.778  -3.849  -1.613  0.00  0.00    +0.416 C 
ATOM     11  C   UNL     1      -4.103  -3.246  -2.765  0.00  0.00    -0.144 C 
ATOM     12  C   UNL     1      -3.887  -4.049  -4.021  0.00  0.00    +0.136 C 
ATOM     13  C   UNL     1      -3.675  -1.968  -2.697  0.00  0.00    +0.062 C 
ATOM     16  O   UNL     1      -5.164  -5.000  -1.677  0.00  0.00    -0.405 OA
ATOM     17  C   UNL     1      -5.691  -3.748   0.781  0.00  0.00    +0.133 C 
ATOM     18  C   UNL     1      -6.195  -2.708   1.787  0.00  0.00    +0.108 C 
ATOM     19  C   UNL     1      -6.661  -3.439   3.051  0.00  0.00    +0.249 C 
ATOM     20  N   UNL     1      -5.663  -3.230   4.123  0.00  0.00    -0.489 NA
ATOM     21  C   UNL     1      -4.332  -3.699   3.713  0.00  0.00    +0.184 C 
ATOM     22  C   UNL     1      -5.627  -1.810   4.499  0.00  0.00    +0.153 C 
ATOM     23  C   UNL     1      -6.939  -1.452   5.187  0.00  0.00    +0.201 C 
ATOM     24  O   UNL     1      -6.943  -2.002   6.506  0.00  0.00    -0.846 OA
ATOM     25  C   UNL     1      -8.116  -1.998   4.420  0.00  0.00    -0.036 C 
ATOM     26  C   UNL     1      -9.468  -1.491   4.765  0.00  0.00    +0.405 C 
ATOM     27  O   UNL     1      -9.593  -0.656   5.639  0.00  0.00    -0.393 OA
ATOM     28  C   UNL     1     -10.653  -1.987   4.061  0.00  0.00    -0.143 C 
ATOM     29  C   UNL     1     -12.020  -1.463   4.420  0.00  0.00    +0.126 C 
ATOM     30  C   UNL     1     -10.519  -2.914   3.090  0.00  0.00    +0.046 C 
ATOM     33  C   UNL     1      -9.170  -3.421   2.744  0.00  0.00    +0.402 C 
ATOM     34  O   UNL     1      -9.043  -4.258   1.873  0.00  0.00    -0.442 OA
ATOM     35  C   UNL     1      -5.405  -0.951   3.261  0.00  0.00    +0.127 C 
ATOM     36  C   UNL     1      -7.975  -2.911   3.456  0.00  0.00    -0.206 C 
ATOM     37  C   UNL     1      -3.893  -1.187  -1.457  0.00  0.00    +0.399 C 
ATOM     38  O   UNL     1      -3.510  -0.037  -1.392  0.00  0.00    -0.410 OA
ATOM     39  N   UNL     1      -5.082  -1.801   2.104  0.00  0.00    -0.496 NA
ENDROOT
BRANCH  13  14
ATOM     14  O   UNL     1      -3.050  -1.402  -3.756  0.00  0.00    -0.310 OA
ATOM     15  C   UNL     1      -3.717  -0.312  -4.396  0.00  0.00    +0.245 C 
ENDBRANCH  13  14
BRANCH  30  31
ATOM     31  O   UNL     1     -11.609  -3.378   2.436  0.00  0.00    -0.316 OA
ATOM     32  C   UNL     1     -11.946  -4.753   2.631  0.00  0.00    +0.236 C 
ENDBRANCH  30  31
BRANCH   7   6
ATOM      6  C   UNL     1      -3.500  -0.164   1.212  0.00  0.00    +0.242 C 
BRANCH   6   5
ATOM      5  O   UNL     1      -2.393  -1.061   1.320  0.00  0.00    -0.327 OA
BRANCH   5   4
ATOM      4  C   UNL     1      -1.185  -0.514   1.564  0.00  0.00    +0.496 C 
ATOM     40  O   UNL     1      -1.075   0.691   1.680  0.00  0.00    -0.507 OA
BRANCH   4   3
ATOM      1  C   UNL     1       1.328   0.658   2.073  0.00  0.00    +0.091 C 
ATOM      2  C   UNL     1       1.192  -0.836   1.928  0.00  0.00    +0.067 C 
ATOM      3  C   UNL     1      -0.000  -1.375   1.688  0.00  0.00    -0.166 C 
ATOM     41  C   UNL     1      -0.136  -2.869   1.543  0.00  0.00    +0.104 C 
ENDBRANCH   4   3
ENDBRANCH   5   4
ENDBRANCH   6   5
ENDBRANCH   7   6
TORSDOF 6
