REMARK  Name = ZINC95486116
REMARK  19 active torsions:
REMARK  status: ('A' for Active; 'I' for Inactive)
REMARK    1  A    between atoms: C1_1  and  C2_2
REMARK    2  A    between atoms: C3_3  and  C4_4
REMARK    3  A    between atoms: C3_3  and  C5_5
REMARK    4  A    between atoms: C5_5  and  C6_7
REMARK    5  A    between atoms: C6_7  and  C7_8
REMARK    6  A    between atoms: C8_10  and  O11_55
REMARK    7  A    between atoms: C13_19  and  O6_36
REMARK    8  A    between atoms: C14_21  and  C23_35
REMARK    9  A    between atoms: C18_28  and  C19_30
REMARK   10  A    between atoms: O6_36  and  C24_37
REMARK   11  A    between atoms: C24_37  and  C25_39
REMARK   12  A    between atoms: C26_40  and  C34_54
REMARK   13  A    between atoms: C27_42  and  C31_47
REMARK   14  A    between atoms: C28_44  and  C29_45
REMARK   15  A    between atoms: C28_44  and  C30_46
REMARK   16  A    between atoms: C31_47  and  C32_49
REMARK   17  A    between atoms: C31_47  and  O10_53
REMARK   18  A    between atoms: C32_49  and  O9_51
REMARK   19  A    between atoms: O9_51  and  C33_52
REMARK                            x       y       z     vdW  Elec       q    Type
REMARK                         _______ _______ _______ _____ _____    ______ ____
ROOT
ATOM      6  C   UNL     1      -2.528  -5.071  -1.011  0.00  0.00    +0.008 C 
ATOM      7  C   UNL     1      -1.292  -5.509  -0.298  0.00  0.00    +0.192 C 
ATOM     10  C   UNL     1      -1.130  -6.940   0.117  0.00  0.00    +0.127 C 
ATOM     11  C   UNL     1      -1.747  -7.456   1.415  0.00  0.00    +0.058 C 
ATOM     12  C   UNL     1      -2.348  -6.372   2.304  0.00  0.00    +0.085 C 
ATOM     13  C   UNL     1      -3.745  -5.934   1.898  0.00  0.00    -0.010 C 
ATOM     14  C   UNL     1      -3.910  -4.427   2.108  0.00  0.00    +0.032 C 
ATOM     15  C   UNL     1      -4.231  -6.378   0.554  0.00  0.00    +0.033 C 
ATOM     23  C   UNL     1      -2.437  -6.951   3.732  0.00  0.00    +0.016 C 
ATOM     24  C   UNL     1      -1.053  -7.230   4.292  0.00  0.00    +0.198 C 
ATOM     29  C   UNL     1      -0.165  -7.975   3.298  0.00  0.00    -0.072 C 
ATOM     30  C   UNL     1       0.871  -7.006   2.729  0.00  0.00    +0.073 C 
ATOM     31  C   UNL     1       0.567  -9.104   4.036  0.00  0.00    +0.276 C 
ATOM     37  O   UNL     1       1.318  -9.893   3.110  0.00  0.00    -0.363 OA
ATOM     38  C   UNL     1       0.643 -10.378   2.048  0.00  0.00    +0.491 C 
ATOM     39  O   UNL     1       0.668 -11.551   1.764  0.00  0.00    -0.441 OA
ATOM     40  C   UNL     1      -0.154  -9.389   1.222  0.00  0.00    +0.063 C 
ATOM     41  C   UNL     1      -1.019  -8.568   2.179  0.00  0.00    +0.038 C 
ATOM     42  O   UNL     1      -2.282  -7.787   0.148  0.00  0.00    -0.307 OA
ATOM     43  C   UNL     1      -3.849  -5.730  -0.736  0.00  0.00    -0.013 C 
ATOM     44  C   UNL     1      -4.068  -6.785  -1.853  0.00  0.00    +0.020 C 
ATOM     45  C   UNL     1      -4.939  -4.659  -1.030  0.00  0.00    +0.015 C 
ENDROOT
BRANCH  31  32
ATOM     32  C   UNL     1       1.514  -8.514   5.048  0.00  0.00    -0.188 A 
ATOM     33  C   UNL     1       1.292  -8.392   6.439  0.00  0.00    -0.047 A 
ATOM     34  C   UNL     1       2.389  -7.814   6.960  0.00  0.00    +0.167 A 
ATOM     35  O   UNL     1       3.259  -7.580   5.964  0.00  0.00    -0.172 OA
ATOM     36  C   UNL     1       2.736  -8.008   4.803  0.00  0.00    +0.212 A 
ENDBRANCH  31  32
BRANCH   7   8
ATOM      8  O   UNL     1      -0.948  -4.597   0.741  0.00  0.00    -0.551 OA
ATOM      9  H   UNL     1      -0.737  -3.706   0.429  0.00  0.00    +0.368 HD
ENDBRANCH   7   8
BRANCH   6   5
ATOM      5  C   UNL     1      -2.675  -3.541  -0.890  0.00  0.00    +0.044 C 
BRANCH   5   4
ATOM      4  C   UNL     1      -1.414  -2.876  -1.378  0.00  0.00    +0.377 C 
ATOM     46  O   UNL     1      -0.543  -3.537  -1.903  0.00  0.00    -0.458 OA
BRANCH   4   3
ATOM      1  C   UNL     1       0.055   0.645  -1.486  0.00  0.00    +0.088 C 
ATOM      2  C   UNL     1      -0.124  -0.843  -1.650  0.00  0.00    +0.066 C 
ATOM      3  C   UNL     1      -1.241  -1.432  -1.218  0.00  0.00    -0.227 C 
ATOM     47  C   UNL     1      -2.323  -0.611  -0.566  0.00  0.00    +0.094 C 
ENDBRANCH   4   3
ENDBRANCH   5   4
ENDBRANCH   6   5
BRANCH  15  16
ATOM     16  C   UNL     1      -5.784  -6.282   0.620  0.00  0.00    +0.235 C 
BRANCH  16  17
ATOM     17  O   UNL     1      -6.346  -6.839  -0.571  0.00  0.00    -0.522 OA
ATOM     18  H   UNL     1      -6.222  -7.795  -0.654  0.00  0.00    +0.385 HD
ENDBRANCH  16  17
BRANCH  16  19
ATOM     19  C   UNL     1      -6.285  -7.048   1.817  0.00  0.00    +0.434 C 
ATOM     22  O   UNL     1      -6.617  -8.203   1.700  0.00  0.00    -0.501 OA
BRANCH  19  20
ATOM     20  O   UNL     1      -6.361  -6.446   3.015  0.00  0.00    -0.345 OA
ATOM     21  C   UNL     1      -6.844  -7.231   4.106  0.00  0.00    +0.255 C 
ENDBRANCH  19  20
ENDBRANCH  16  19
ENDBRANCH  15  16
BRANCH  24  25
ATOM     25  O   UNL     1      -0.433  -5.986   4.620  0.00  0.00    -0.329 OA
BRANCH  25  26
ATOM     26  C   UNL     1      -0.628  -5.518   5.863  0.00  0.00    +0.458 C 
ATOM     27  C   UNL     1      -0.006  -4.211   6.283  0.00  0.00    +0.149 C 
ATOM     28  O   UNL     1      -1.302  -6.144   6.646  0.00  0.00    -0.510 OA
ENDBRANCH  25  26
ENDBRANCH  24  25
TORSDOF 11
