REMARK  Name = ZINC05854604
REMARK  5 active torsions:
REMARK  status: ('A' for Active; 'I' for Inactive)
REMARK    1  A    between atoms: C1_1  and  C2_2
REMARK    2  A    between atoms: C2_2  and  C22_28
REMARK    3  A    between atoms: C3_3  and  C4_4
REMARK    4  A    between atoms: C4_4  and  C5_5
REMARK    5  A    between atoms: C6_6  and  O4_27
REMARK                            x       y       z     vdW  Elec       q    Type
REMARK                         _______ _______ _______ _____ _____    ______ ____
ROOT
ATOM      6  C   UNL     1      -0.864  -0.562   3.381  0.00  0.00    -0.107 A 
ATOM      7  C   UNL     1      -2.194  -0.153   3.422  0.00  0.00    +0.145 A 
ATOM     10  C   UNL     1      -3.108  -0.734   4.285  0.00  0.00    -0.033 A 
ATOM     11  C   UNL     1      -2.735  -1.750   5.155  0.00  0.00    +0.090 A 
ATOM     12  C   UNL     1      -1.421  -2.160   5.125  0.00  0.00    -0.162 A 
ATOM     13  C   UNL     1      -0.662  -3.177   5.893  0.00  0.00    -0.014 C 
ATOM     14  C   UNL     1      -1.307  -4.500   6.225  0.00  0.00    +0.277 C 
ATOM     15  O   UNL     1      -0.293  -5.441   6.594  0.00  0.00    -0.321 OA
ATOM     16  C   UNL     1       1.028  -5.130   6.592  0.00  0.00    +0.167 A 
ATOM     17  C   UNL     1       1.528  -4.165   5.692  0.00  0.00    -0.172 A 
ATOM     18  C   UNL     1       2.850  -3.843   5.613  0.00  0.00    +0.141 A 
ATOM     19  C   UNL     1       3.719  -4.537   6.459  0.00  0.00    -0.165 A 
ATOM     20  C   UNL     1       5.160  -4.481   6.660  0.00  0.00    -0.034 A 
ATOM     21  C   UNL     1       5.436  -5.385   7.615  0.00  0.00    +0.206 A 
ATOM     22  O   UNL     1       4.303  -5.995   8.022  0.00  0.00    -0.187 OA
ATOM     23  C   UNL     1       3.245  -5.524   7.356  0.00  0.00    +0.088 A 
ATOM     24  C   UNL     1       1.880  -5.806   7.459  0.00  0.00    +0.017 A 
ATOM     25  C   UNL     1       0.482  -3.495   4.860  0.00  0.00    +0.226 C 
ATOM     26  O   UNL     1       0.735  -2.190   4.357  0.00  0.00    -0.276 OA
ATOM     27  C   UNL     1      -0.483  -1.588   4.237  0.00  0.00    +0.116 A 
ENDROOT
BRANCH   7   8
ATOM      8  O   UNL     1      -2.605   0.844   2.595  0.00  0.00    -0.491 OA
ATOM      9  H   UNL     1      -2.928   0.535   1.737  0.00  0.00    +0.393 HD
ENDBRANCH   7   8
BRANCH   6   5
ATOM      5  C   UNL     1       0.123   0.078   2.439  0.00  0.00    +0.129 C 
BRANCH   5   4
ATOM      1  C   UNL     1      -0.189   1.489   0.017  0.00  0.00    +0.076 C 
ATOM      2  C   UNL     1      -0.083  -0.015   0.008  0.00  0.00    -0.127 C 
ATOM      3  C   UNL     1      -0.210  -0.771  -1.289  0.00  0.00    +0.073 C 
ATOM      4  C   UNL     1       0.121  -0.664   1.128  0.00  0.00    -0.056 C 
ENDBRANCH   5   4
ENDBRANCH   6   5
TORSDOF 3
