REMARK  Name = ZINC18847044
REMARK  5 active torsions:
REMARK  status: ('A' for Active; 'I' for Inactive)
REMARK    1  A    between atoms: C1_1  and  O1_2
REMARK    2  A    between atoms: O1_2  and  C2_3
REMARK    3  A    between atoms: C4_5  and  O5_21
REMARK    4  A    between atoms: C9_11  and  C11_14
REMARK    5  A    between atoms: C14_17  and  O4_20
REMARK                            x       y       z     vdW  Elec       q    Type
REMARK                         _______ _______ _______ _____ _____    ______ ____
ROOT
ATOM      3  C   UNL     1       0.605  -0.606  -1.055  0.00  0.00    +0.209 A 
ATOM      4  C   UNL     1       1.171   0.172  -2.059  0.00  0.00    -0.117 A 
ATOM      5  C   UNL     1       1.790  -0.431  -3.137  0.00  0.00    +0.240 A 
ATOM      8  C   UNL     1       1.845  -1.829  -3.206  0.00  0.00    -0.287 A 
ATOM      9  C   UNL     1       1.266  -2.616  -2.195  0.00  0.00    +0.197 A 
ATOM     10  O   UNL     1       1.304  -3.961  -2.274  0.00  0.00    -0.214 OA
ATOM     11  C   UNL     1       2.129  -4.592  -3.113  0.00  0.00    +0.327 A 
ATOM     12  C   UNL     1       2.749  -3.963  -4.145  0.00  0.00    -0.238 A 
ATOM     21  C   UNL     1       2.507  -2.518  -4.327  0.00  0.00    +0.431 A 
ATOM     22  O   UNL     1       2.835  -1.931  -5.343  0.00  0.00    -0.435 OA
ATOM     23  C   UNL     1       0.655  -1.990  -1.117  0.00  0.00    -0.034 A 
ENDROOT
BRANCH  12  13
ATOM     13  C   UNL     1       3.644  -4.707  -5.064  0.00  0.00    -0.035 A 
ATOM     14  C   UNL     1       5.005  -4.409  -5.106  0.00  0.00    +0.047 A 
ATOM     15  C   UNL     1       5.836  -5.103  -5.961  0.00  0.00    -0.011 A 
ATOM     16  C   UNL     1       5.317  -6.098  -6.779  0.00  0.00    +0.111 A 
ATOM     19  C   UNL     1       3.962  -6.397  -6.739  0.00  0.00    -0.010 A 
ATOM     20  C   UNL     1       3.128  -5.710  -5.882  0.00  0.00    +0.042 A 
BRANCH  16  17
ATOM     17  O   UNL     1       6.138  -6.780  -7.620  0.00  0.00    -0.499 OA
ATOM     18  H   UNL     1       6.527  -7.576  -7.231  0.00  0.00    +0.392 HD
ENDBRANCH  16  17
ENDBRANCH  12  13
BRANCH   3   2
ATOM      1  C   UNL     1      -0.017   1.425   0.010  0.00  0.00    +0.256 C 
ATOM      2  O   UNL     1       0.002  -0.004   0.002  0.00  0.00    -0.303 OA
ENDBRANCH   3   2
BRANCH   5   6
ATOM      6  O   UNL     1       2.341   0.324  -4.121  0.00  0.00    -0.474 OA
ATOM      7  H   UNL     1       3.269   0.552  -3.970  0.00  0.00    +0.402 HD
ENDBRANCH   5   6
TORSDOF 4
