REMARK  Name = ZINC95486298
REMARK  9 active torsions:
REMARK  status: ('A' for Active; 'I' for Inactive)
REMARK    1  A    between atoms: C1_1  and  C2_2
REMARK    2  A    between atoms: C2_2  and  C3_3
REMARK    3  A    between atoms: C2_2  and  C4_4
REMARK    4  A    between atoms: C10_12  and  O4_27
REMARK    5  A    between atoms: C11_14  and  O3_26
REMARK    6  A    between atoms: C13_18  and  C20_25
REMARK    7  A    between atoms: C17_22  and  C18_23
REMARK    8  A    between atoms: C17_22  and  C19_24
REMARK    9  A    between atoms: O4_27  and  C21_28
REMARK                            x       y       z     vdW  Elec       q    Type
REMARK                         _______ _______ _______ _____ _____    ______ ____
ROOT
ATOM      3  C   UNL     1      -1.446  -0.950   0.044  0.00  0.00    -0.430 C 
ATOM      4  C   UNL     1      -1.962  -1.739  -0.917  0.00  0.00    +0.242 C 
ATOM      5  O   UNL     1      -1.181  -2.187  -1.928  0.00  0.00    -0.643 OA
ATOM      6  C   UNL     1      -3.398  -2.116  -0.865  0.00  0.00    +0.383 C 
ATOM      7  C   UNL     1      -4.255  -1.644   0.239  0.00  0.00    -0.098 C 
ATOM      8  C   UNL     1      -3.739  -0.854   1.193  0.00  0.00    -0.108 C 
ATOM      9  C   UNL     1      -4.559  -0.321   2.328  0.00  0.00    +0.212 C 
ATOM     13  C   UNL     1      -5.842  -1.060   2.637  0.00  0.00    +0.166 C 
ATOM     16  C   UNL     1      -6.164  -2.240   1.737  0.00  0.00    +0.045 C 
ATOM     17  C   UNL     1      -5.703  -3.557   2.345  0.00  0.00    -0.052 C 
ATOM     18  C   UNL     1      -6.530  -3.827   3.621  0.00  0.00    +0.018 C 
ATOM     19  C   UNL     1      -4.228  -3.523   2.740  0.00  0.00    +0.027 C 
ATOM     20  C   UNL     1      -5.948  -4.741   1.407  0.00  0.00    +0.017 C 
ATOM     21  C   UNL     1      -5.351  -4.474   0.026  0.00  0.00    +0.010 C 
ATOM     22  C   UNL     1      -6.033  -3.235  -0.556  0.00  0.00    +0.041 C 
ATOM     23  C   UNL     1      -5.705  -2.021   0.307  0.00  0.00    -0.011 C 
ATOM     24  C   UNL     1      -6.511  -0.846  -0.277  0.00  0.00    +0.040 C 
ATOM     25  O   UNL     1      -3.830  -2.814  -1.758  0.00  0.00    -0.415 OA
ATOM     26  C   UNL     1      -2.306  -0.467   1.127  0.00  0.00    +0.419 C 
ATOM     27  O   UNL     1      -1.833   0.267   1.972  0.00  0.00    -0.493 OA
ENDROOT
BRANCH   3   2
ATOM      1  C   UNL     1       0.127   0.964  -0.078  0.00  0.00    -0.010 C 
ATOM      2  C   UNL     1       0.010  -0.559   0.008  0.00  0.00    +0.076 C 
ATOM     28  C   UNL     1       0.702  -1.054   1.279  0.00  0.00    -0.009 C 
ENDBRANCH   3   2
BRANCH  13  14
ATOM     14  O   UNL     1      -6.938  -0.123   2.613  0.00  0.00    -0.561 OA
ATOM     15  H   UNL     1      -6.855   0.596   3.255  0.00  0.00    +0.372 HD
ENDBRANCH  13  14
BRANCH   9  10
ATOM     10  O   UNL     1      -3.751  -0.298   3.517  0.00  0.00    -0.329 OA
BRANCH  10  11
ATOM     11  C   UNL     1      -4.046   0.634   4.436  0.00  0.00    +0.569 C 
ATOM     12  O   UNL     1      -3.402   0.703   5.456  0.00  0.00    -0.476 OA
ENDBRANCH  10  11
ENDBRANCH   9  10
TORSDOF 4
