REMARK  Name = ZINC95486274
REMARK  6 active torsions:
REMARK  status: ('A' for Active; 'I' for Inactive)
REMARK    1  A    between atoms: C1_1  and  C2_2
REMARK    2  A    between atoms: C2_2  and  C21_28
REMARK    3  A    between atoms: C8_8  and  O4_25
REMARK    4  A    between atoms: C11_12  and  C14_19
REMARK    5  A    between atoms: C12_14  and  O3_18
REMARK    6  A    between atoms: O4_25  and  C20_26
REMARK                            x       y       z     vdW  Elec       q    Type
REMARK                         _______ _______ _______ _____ _____    ______ ____
ROOT
ATOM      1  C   UNL     1      -0.019   1.526   0.010  0.00  0.00    +0.085 C 
ATOM      2  C   UNL     1       0.002  -0.004   0.002  0.00  0.00    +0.148 C 
ATOM      3  C   UNL     1       0.731  -0.492  -1.252  0.00  0.00    +0.036 C 
ATOM      4  C   UNL     1      -1.413  -0.520  -0.014  0.00  0.00    -0.070 C 
ATOM      5  C   UNL     1      -1.695  -1.705   0.524  0.00  0.00    +0.072 C 
ATOM      6  C   UNL     1      -0.590  -2.472   1.137  0.00  0.00    -0.216 A 
ATOM      7  C   UNL     1       0.605  -1.797   1.441  0.00  0.00    +0.246 A 
ATOM      8  C   UNL     1       1.666  -2.476   2.015  0.00  0.00    -0.135 A 
ATOM      9  C   UNL     1       1.555  -3.829   2.293  0.00  0.00    +0.258 A 
ATOM     12  C   UNL     1       0.366  -4.513   1.992  0.00  0.00    -0.312 A 
ATOM     13  C   UNL     1       0.237  -5.948   2.271  0.00  0.00    +0.375 C 
ATOM     14  O   UNL     1       1.198  -6.631   2.558  0.00  0.00    -0.420 OA
ATOM     15  C   UNL     1      -1.161  -6.535   2.182  0.00  0.00    +0.147 C 
ATOM     18  C   UNL     1      -1.846  -5.893   0.967  0.00  0.00    +0.252 C 
ATOM     25  O   UNL     1      -1.875  -4.476   1.135  0.00  0.00    -0.281 OA
ATOM     26  C   UNL     1      -0.720  -3.830   1.414  0.00  0.00    +0.269 A 
ATOM     27  O   UNL     1       0.694  -0.472   1.160  0.00  0.00    -0.297 OA
ENDROOT
BRANCH  18  19
ATOM     19  C   UNL     1      -3.255  -6.414   0.850  0.00  0.00    -0.090 A 
ATOM     20  C   UNL     1      -4.274  -5.819   1.569  0.00  0.00    +0.061 A 
ATOM     21  C   UNL     1      -5.567  -6.297   1.461  0.00  0.00    +0.001 A 
ATOM     22  C   UNL     1      -5.840  -7.371   0.634  0.00  0.00    +0.015 A 
ATOM     23  C   UNL     1      -4.821  -7.966  -0.085  0.00  0.00    +0.004 A 
ATOM     24  C   UNL     1      -3.529  -7.485   0.019  0.00  0.00    +0.019 A 
ENDBRANCH  18  19
BRANCH   9  10
ATOM     10  O   UNL     1       2.595  -4.493   2.856  0.00  0.00    -0.282 OA
ATOM     11  C   UNL     1       3.773  -3.735   3.135  0.00  0.00    +0.253 C 
ENDBRANCH   9  10
BRANCH  15  16
ATOM     16  O   UNL     1      -1.894  -6.232   3.371  0.00  0.00    -0.526 OA
ATOM     17  H   UNL     1      -1.512  -6.609   4.175  0.00  0.00    +0.388 HD
ENDBRANCH  15  16
TORSDOF 3
