REMARK  Name = ZINC85935026
REMARK  12 active torsions:
REMARK  status: ('A' for Active; 'I' for Inactive)
REMARK    1  A    between atoms: C3_3  and  O11_46
REMARK    2  A    between atoms: C4_4  and  O10_45
REMARK    3  A    between atoms: C6_6  and  C7_7
REMARK    4  A    between atoms: C8_9  and  O9_44
REMARK    5  A    between atoms: C13_15  and  O7_42
REMARK    6  A    between atoms: C14_16  and  C16_19
REMARK    7  A    between atoms: C15_17  and  O1_18
REMARK    8  A    between atoms: C20_24  and  O6_41
REMARK    9  A    between atoms: C23_28  and  C25_33
REMARK   10  A    between atoms: C24_30  and  O3_32
REMARK   11  A    between atoms: C28_36  and  O5_40
REMARK   12  A    between atoms: C29_37  and  O4_39
REMARK                            x       y       z     vdW  Elec       q    Type
REMARK                         _______ _______ _______ _____ _____    ______ ____
ROOT
ATOM     11  C   UNL     1      -1.279  -0.830   0.086  0.00  0.00    +0.236 C 
ATOM     12  C   UNL     1      -1.776  -1.074  -1.345  0.00  0.00    +0.155 C 
ATOM     15  C   UNL     1      -3.032  -1.946  -1.275  0.00  0.00    +0.076 C 
ATOM     16  C   UNL     1      -3.983  -1.384  -0.249  0.00  0.00    -0.197 A 
ATOM     17  C   UNL     1      -3.556  -0.490   0.717  0.00  0.00    +0.164 A 
ATOM     18  C   UNL     1      -4.462   0.003   1.650  0.00  0.00    -0.048 A 
ATOM     19  C   UNL     1      -5.789  -0.393   1.613  0.00  0.00    +0.202 A 
ATOM     22  C   UNL     1      -6.217  -1.286   0.643  0.00  0.00    -0.157 A 
ATOM     47  C   UNL     1      -5.315  -1.780  -0.286  0.00  0.00    +0.161 A 
ATOM     50  O   UNL     1      -2.266  -0.069   0.782  0.00  0.00    -0.296 OA
ENDROOT
BRANCH  22  23
ATOM     23  C   UNL     1      -7.660  -1.719   0.599  0.00  0.00    +0.128 C 
ATOM     24  C   UNL     1      -8.550  -0.502   0.628  0.00  0.00    -0.148 A 
ATOM     25  C   UNL     1      -8.198   0.599  -0.137  0.00  0.00    +0.057 A 
ATOM     26  C   UNL     1      -8.989   1.729  -0.138  0.00  0.00    -0.045 A 
ATOM     27  C   UNL     1     -10.145   1.767   0.629  0.00  0.00    +0.141 A 
ATOM     30  C   UNL     1     -10.499   0.669   1.395  0.00  0.00    -0.039 A 
ATOM     31  C   UNL     1      -9.700  -0.468   1.398  0.00  0.00    +0.166 A 
ATOM     32  O   UNL     1     -10.074  -1.520   2.172  0.00  0.00    -0.294 OA
ATOM     33  C   UNL     1      -9.482  -2.792   1.902  0.00  0.00    +0.195 C 
ATOM     44  C   UNL     1      -7.962  -2.607   1.808  0.00  0.00    +0.157 C 
BRANCH  33  34
ATOM     34  C   UNL     1      -9.809  -3.751   3.017  0.00  0.00    -0.087 A 
ATOM     35  C   UNL     1      -9.905  -3.291   4.317  0.00  0.00    +0.055 A 
ATOM     36  C   UNL     1     -10.205  -4.167   5.344  0.00  0.00    +0.011 A 
ATOM     37  C   UNL     1     -10.412  -5.510   5.070  0.00  0.00    +0.090 A 
ATOM     40  C   UNL     1     -10.316  -5.973   3.762  0.00  0.00    +0.083 A 
ATOM     43  C   UNL     1     -10.020  -5.088   2.737  0.00  0.00    +0.021 A 
BRANCH  37  38
ATOM     38  O   UNL     1     -10.707  -6.373   6.079  0.00  0.00    -0.487 OA
ATOM     39  H   UNL     1     -11.653  -6.466   6.253  0.00  0.00    +0.391 HD
ENDBRANCH  37  38
BRANCH  40  41
ATOM     41  O   UNL     1     -10.518  -7.290   3.489  0.00  0.00    -0.486 OA
ATOM     42  H   UNL     1     -11.438  -7.514   3.291  0.00  0.00    +0.390 HD
ENDBRANCH  40  41
ENDBRANCH  33  34
BRANCH  27  28
ATOM     28  O   UNL     1     -10.927   2.878   0.628  0.00  0.00    -0.496 OA
ATOM     29  H   UNL     1     -11.615   2.874  -0.051  0.00  0.00    +0.394 HD
ENDBRANCH  27  28
BRANCH  44  45
ATOM     45  O   UNL     1      -7.478  -1.982   2.998  0.00  0.00    -0.511 OA
ATOM     46  H   UNL     1      -7.637  -2.492   3.804  0.00  0.00    +0.368 HD
ENDBRANCH  44  45
ENDBRANCH  22  23
BRANCH  11  10
ATOM      1  C   UNL     1       0.004   1.313  -0.049  0.00  0.00    +0.046 A 
ATOM      2  C   UNL     1       1.193   2.020  -0.083  0.00  0.00    +0.004 A 
ATOM      3  C   UNL     1       2.401   1.345  -0.019  0.00  0.00    +0.087 A 
ATOM      6  C   UNL     1       2.416  -0.043   0.079  0.00  0.00    +0.080 A 
ATOM      9  C   UNL     1       1.222  -0.744   0.113  0.00  0.00    +0.038 A 
ATOM     10  C   UNL     1       0.019  -0.065   0.049  0.00  0.00    -0.072 A 
BRANCH   3   4
ATOM      4  O   UNL     1       3.571   2.039  -0.053  0.00  0.00    -0.488 OA
ATOM      5  H   UNL     1       3.898   2.302   0.818  0.00  0.00    +0.389 HD
ENDBRANCH   3   4
BRANCH   6   7
ATOM      7  O   UNL     1       3.600  -0.709   0.141  0.00  0.00    -0.486 OA
ATOM      8  H   UNL     1       3.931  -0.840   1.040  0.00  0.00    +0.388 HD
ENDBRANCH   6   7
ENDBRANCH  11  10
BRANCH  12  13
ATOM     13  O   UNL     1      -0.764  -1.746  -2.098  0.00  0.00    -0.549 OA
ATOM     14  H   UNL     1      -1.013  -1.932  -3.014  0.00  0.00    +0.387 HD
ENDBRANCH  12  13
BRANCH  19  20
ATOM     20  O   UNL     1      -6.669   0.091   2.528  0.00  0.00    -0.455 OA
ATOM     21  H   UNL     1      -7.111   0.907   2.255  0.00  0.00    +0.381 HD
ENDBRANCH  19  20
BRANCH  47  48
ATOM     48  O   UNL     1      -5.735  -2.655  -1.238  0.00  0.00    -0.490 OA
ATOM     49  H   UNL     1      -5.671  -3.583  -0.974  0.00  0.00    +0.393 HD
ENDBRANCH  47  48
TORSDOF 12
