REMARK  Name = ZINC01663392
REMARK  7 active torsions:
REMARK  status: ('A' for Active; 'I' for Inactive)
REMARK    1  A    between atoms: C1_1  and  O1_2
REMARK    2  A    between atoms: O1_2  and  C2_3
REMARK    3  A    between atoms: C3_4  and  O6_24
REMARK    4  A    between atoms: C7_8  and  O2_9
REMARK    5  A    between atoms: C9_12  and  C11_16
REMARK    6  A    between atoms: C11_16  and  C12_17
REMARK    7  A    between atoms: C15_20  and  O5_23
REMARK                            x       y       z     vdW  Elec       q    Type
REMARK                         _______ _______ _______ _____ _____    ______ ____
ROOT
ATOM      3  C   UNL     1      -1.524   5.614  -1.475  0.00  0.00    -0.003 A 
ATOM      4  C   UNL     1      -1.470   4.805  -2.606  0.00  0.00    +0.177 A 
ATOM      7  C   UNL     1      -1.194   3.448  -2.493  0.00  0.00    -0.034 A 
ATOM      8  C   UNL     1      -0.967   2.884  -1.250  0.00  0.00    +0.207 A 
ATOM      9  C   UNL     1      -1.013   3.699  -0.104  0.00  0.00    -0.277 A 
ATOM     10  C   UNL     1      -0.754   3.099   1.209  0.00  0.00    +0.400 C 
ATOM     11  C   UNL     1      -0.733   1.582   1.271  0.00  0.00    -0.048 C 
ATOM     21  C   UNL     1      -0.013   1.086   0.008  0.00  0.00    +0.277 C 
ATOM     22  O   UNL     1      -0.565   3.779   2.196  0.00  0.00    -0.411 OA
ATOM     23  O   UNL     1      -0.704   1.559  -1.148  0.00  0.00    -0.298 OA
ATOM     24  C   UNL     1      -1.299   5.069  -0.221  0.00  0.00    +0.201 A 
ENDROOT
BRANCH   3   2
ATOM      1  C   UNL     1      -3.173   7.329  -1.544  0.00  0.00    +0.219 C 
ATOM      2  O   UNL     1      -1.799   6.942  -1.601  0.00  0.00    -0.310 OA
ENDBRANCH   3   2
BRANCH   4   5
ATOM      5  O   UNL     1      -1.689   5.346  -3.832  0.00  0.00    -0.478 OA
ATOM      6  H   UNL     1      -2.616   5.334  -4.107  0.00  0.00    +0.398 HD
ENDBRANCH   4   5
BRANCH  24  25
ATOM     25  O   UNL     1      -1.353   5.853   0.886  0.00  0.00    -0.462 OA
ATOM     26  H   UNL     1      -2.231   5.907   1.287  0.00  0.00    +0.394 HD
ENDBRANCH  24  25
BRANCH  11  12
ATOM     12  C   UNL     1      -2.164   1.042   1.300  0.00  0.00    +0.111 C 
BRANCH  12  13
ATOM     13  C   UNL     1      -2.821   1.432   2.599  0.00  0.00    -0.100 A 
ATOM     14  C   UNL     1      -2.735   0.594   3.695  0.00  0.00    +0.035 A 
ATOM     15  C   UNL     1      -3.332   0.951   4.888  0.00  0.00    -0.011 A 
ATOM     16  C   UNL     1      -4.028   2.147   4.983  0.00  0.00    +0.107 A 
ATOM     19  C   UNL     1      -4.119   2.984   3.880  0.00  0.00    -0.011 A 
ATOM     20  C   UNL     1      -3.515   2.624   2.691  0.00  0.00    +0.024 A 
BRANCH  16  17
ATOM     17  O   UNL     1      -4.622   2.498   6.154  0.00  0.00    -0.499 OA
ATOM     18  H   UNL     1      -5.534   2.188   6.241  0.00  0.00    +0.392 HD
ENDBRANCH  16  17
ENDBRANCH  12  13
ENDBRANCH  11  12
TORSDOF 6
