REMARK  Name = ZINC24554044
REMARK  2 active torsions:
REMARK  status: ('A' for Active; 'I' for Inactive)
REMARK    1  A    between atoms: C3_3  and  C9_10
REMARK    2  A    between atoms: C9_10  and  O2_11
REMARK                            x       y       z     vdW  Elec       q    Type
REMARK                         _______ _______ _______ _____ _____    ______ ____
ROOT
ATOM      1  C   UNL     1      -0.017   1.374   0.010  0.00  0.00    -0.043 A 
ATOM      2  C   UNL     1       1.300   1.838  -0.001  0.00  0.00    +0.049 A 
ATOM      3  C   UNL     1       2.172   0.791  -0.014  0.00  0.00    -0.146 A 
ATOM      7  C   UNL     1       1.429  -0.406  -0.014  0.00  0.00    -0.184 A 
ATOM      8  C   UNL     1       1.721  -1.750  -0.023  0.00  0.00    +0.352 A 
ATOM      9  O   UNL     1       0.742  -2.654  -0.019  0.00  0.00    -0.198 OA
ATOM     10  C   UNL     1      -0.561  -2.345  -0.005  0.00  0.00    +0.206 A 
ATOM     11  C   UNL     1      -0.997  -1.070   0.006  0.00  0.00    +0.004 A 
ATOM     12  C   UNL     1       0.002  -0.004   0.002  0.00  0.00    -0.098 A 
ENDROOT
BRANCH   3   4
ATOM      4  C   UNL     1       3.675   0.896  -0.028  0.00  0.00    +0.243 C 
BRANCH   4   5
ATOM      5  O   UNL     1       4.057   2.273  -0.024  0.00  0.00    -0.568 OA
ATOM      6  H   UNL     1       5.013   2.417  -0.032  0.00  0.00    +0.382 HD
ENDBRANCH   4   5
ENDBRANCH   3   4
TORSDOF 2
