REMARK  Name = ZINC05962583
REMARK  19 active torsions:
REMARK  status: ('A' for Active; 'I' for Inactive)
REMARK    1  A    between atoms: C1_1  and  C2_2
REMARK    2  A    between atoms: C2_2  and  C3_4
REMARK    3  A    between atoms: C2_2  and  C15_20
REMARK    4  A    between atoms: C3_4  and  C4_5
REMARK    5  A    between atoms: C4_5  and  C5_6
REMARK    6  A    between atoms: C5_6  and  C6_7
REMARK    7  A    between atoms: C6_7  and  C7_9
REMARK    8  A    between atoms: C6_7  and  C8_10
REMARK    9  A    between atoms: C8_10  and  C9_11
REMARK   10  A    between atoms: C9_11  and  C10_12
REMARK   11  A    between atoms: C10_12  and  C11_13
REMARK   12  A    between atoms: C11_13  and  C14_19
REMARK   13  A    between atoms: C12_14  and  C13_17
REMARK   14  A    between atoms: C13_17  and  O2_18
REMARK   15  A    between atoms: C15_20  and  C16_21
REMARK   16  A    between atoms: C16_21  and  C17_22
REMARK   17  A    between atoms: C17_22  and  C18_23
REMARK   18  A    between atoms: C18_23  and  C19_24
REMARK   19  A    between atoms: C18_23  and  C20_25
REMARK                            x       y       z     vdW  Elec       q    Type
REMARK                         _______ _______ _______ _____ _____    ______ ____
ROOT
ATOM     12  C   UNL     1      -0.181  -0.190  -4.988  0.00  0.00    -0.022 C 
ATOM     23  C   UNL     1      -0.206   1.335  -5.109  0.00  0.00    +0.012 C 
ENDROOT
BRANCH  12  11
ATOM     11  C   UNL     1       0.627  -0.590  -3.752  0.00  0.00    +0.005 C 
BRANCH  11  10
ATOM     10  C   UNL     1      -0.089  -0.097  -2.493  0.00  0.00    +0.004 C 
BRANCH  10   9
ATOM      9  C   UNL     1       0.718  -0.498  -1.257  0.00  0.00    +0.005 C 
BRANCH   9   2
ATOM      1  C   UNL     1      -0.019   1.526   0.010  0.00  0.00    +0.012 C 
ATOM      2  C   UNL     1       0.002  -0.004   0.002  0.00  0.00    -0.024 C 
BRANCH   2   3
ATOM      3  C   UNL     1       0.742  -0.511   1.242  0.00  0.00    +0.005 C 
BRANCH   3   4
ATOM      4  C   UNL     1      -0.042  -0.124   2.497  0.00  0.00    +0.003 C 
BRANCH   4   5
ATOM      5  C   UNL     1       0.698  -0.630   3.737  0.00  0.00    +0.005 C 
BRANCH   5   6
ATOM      6  C   UNL     1      -0.085  -0.243   4.992  0.00  0.00    -0.031 C 
ATOM      7  C   UNL     1       0.715  -0.639   6.235  0.00  0.00    +0.012 C 
ATOM      8  C   UNL     1      -1.431  -0.971   4.999  0.00  0.00    +0.012 C 
ENDBRANCH   5   6
ENDBRANCH   4   5
ENDBRANCH   3   4
ENDBRANCH   2   3
ENDBRANCH   9   2
ENDBRANCH  10   9
ENDBRANCH  11  10
ENDBRANCH  12  11
BRANCH  12  13
ATOM     13  C   UNL     1       0.468  -0.789  -6.237  0.00  0.00    +0.009 C 
BRANCH  13  14
ATOM     14  C   UNL     1      -0.406  -0.494  -7.458  0.00  0.00    +0.017 C 
BRANCH  14  15
ATOM     15  C   UNL     1       0.243  -1.093  -8.707  0.00  0.00    +0.059 C 
BRANCH  15  16
ATOM     16  C   UNL     1      -0.631  -0.798  -9.927  0.00  0.00    +0.026 C 
ATOM     17  C   UNL     1      -2.134  -0.694  -9.658  0.00  0.00    +0.084 C 
ATOM     18  C   UNL     1      -0.185  -1.363 -11.277  0.00  0.00    +0.121 C 
ATOM     22  O   UNL     1      -0.081   0.026 -10.957  0.00  0.00    -0.345 OA
BRANCH  18  19
ATOM     19  C   UNL     1      -1.273  -1.788 -12.267  0.00  0.00    +0.214 C 
BRANCH  19  20
ATOM     20  O   UNL     1      -0.666  -2.393 -13.411  0.00  0.00    -0.570 OA
ATOM     21  H   UNL     1      -1.297  -2.687 -14.081  0.00  0.00    +0.387 HD
ENDBRANCH  19  20
ENDBRANCH  18  19
ENDBRANCH  15  16
ENDBRANCH  14  15
ENDBRANCH  13  14
ENDBRANCH  12  13
TORSDOF 14
