REMARK  Name = ZINC95486245
REMARK  15 active torsions:
REMARK  status: ('A' for Active; 'I' for Inactive)
REMARK    1  A    between atoms: C1_1  and  C2_2
REMARK    2  A    between atoms: C2_2  and  C3_4
REMARK    3  A    between atoms: C2_2  and  C9_11
REMARK    4  A    between atoms: C3_4  and  C4_5
REMARK    5  A    between atoms: C4_5  and  C5_6
REMARK    6  A    between atoms: C6_7  and  C7_8
REMARK    7  A    between atoms: C6_7  and  C8_9
REMARK    8  A    between atoms: C8_9  and  O1_10
REMARK    9  A    between atoms: C12_15  and  C30_39
REMARK   10  A    between atoms: C13_16  and  C29_38
REMARK   11  A    between atoms: C21_26  and  C28_37
REMARK   12  A    between atoms: C22_27  and  O3_36
REMARK   13  A    between atoms: C24_30  and  O2_35
REMARK   14  A    between atoms: C25_32  and  C26_33
REMARK   15  A    between atoms: C25_32  and  C27_34
REMARK                            x       y       z     vdW  Elec       q    Type
REMARK                         _______ _______ _______ _____ _____    ______ ____
ROOT
ATOM      3  C   UNL     1      -2.846   2.544   1.112  0.00  0.00    -0.000 C 
ATOM      4  C   UNL     1      -2.293   1.116   0.860  0.00  0.00    +0.008 C 
ATOM      5  C   UNL     1      -2.255   0.409   2.248  0.00  0.00    +0.018 C 
ATOM      6  C   UNL     1      -2.213   1.602   3.214  0.00  0.00    -0.026 C 
ATOM      7  C   UNL     1      -0.821   2.238   3.195  0.00  0.00    +0.036 C 
ATOM      8  C   UNL     1      -2.663   1.337   4.622  0.00  0.00    -0.080 C 
ATOM      9  C   UNL     1      -2.831   0.126   5.044  0.00  0.00    -0.067 C 
ATOM     10  C   UNL     1      -3.283  -0.174   6.444  0.00  0.00    +0.053 C 
ATOM     11  C   UNL     1      -2.793   0.925   7.404  0.00  0.00    +0.031 C 
ATOM     12  C   UNL     1      -3.315   2.271   6.915  0.00  0.00    -0.026 C 
ATOM     13  C   UNL     1      -2.671   3.420   7.719  0.00  0.00    +0.029 C 
ATOM     14  C   UNL     1      -4.826   2.374   7.078  0.00  0.00    +0.184 C 
ATOM     17  C   UNL     1      -5.268   2.011   8.496  0.00  0.00    -0.042 C 
ATOM     18  C   UNL     1      -4.783   0.623   8.889  0.00  0.00    +0.174 C 
ATOM     21  C   UNL     1      -3.259   0.543   8.805  0.00  0.00    -0.046 C 
ATOM     22  C   UNL     1      -2.857  -0.919   9.103  0.00  0.00    +0.026 C 
ATOM     23  C   UNL     1      -2.620   1.383   9.910  0.00  0.00    +0.036 C 
ATOM     24  C   UNL     1      -2.890   2.552   5.478  0.00  0.00    +0.027 C 
ATOM     25  C   UNL     1      -3.810   3.546   4.779  0.00  0.00    +0.045 C 
ATOM     26  C   UNL     1      -3.368   3.817   3.329  0.00  0.00    +0.013 C 
ATOM     27  C   UNL     1      -3.290   2.520   2.574  0.00  0.00    -0.042 C 
ATOM     28  C   UNL     1      -4.659   1.827   2.625  0.00  0.00    +0.020 C 
ENDROOT
BRANCH   3   2
ATOM      1  C   UNL     1      -4.609   4.206   0.501  0.00  0.00    +0.013 C 
ATOM      2  C   UNL     1      -4.048   2.813   0.204  0.00  0.00    -0.010 C 
BRANCH   2  29
ATOM     29  C   UNL     1      -3.608   2.742  -1.259  0.00  0.00    +0.013 C 
BRANCH  29  30
ATOM     30  C   UNL     1      -4.831   2.887  -2.167  0.00  0.00    +0.043 C 
BRANCH  30  31
ATOM     31  C   UNL     1      -4.398   2.816  -3.609  0.00  0.00    -0.012 C 
ATOM     32  C   UNL     1      -4.910   1.909  -4.403  0.00  0.00    -0.158 C 
ATOM     36  C   UNL     1      -5.832   0.855  -3.847  0.00  0.00    +0.083 C 
BRANCH  32  33
ATOM     33  C   UNL     1      -4.575   1.919  -5.872  0.00  0.00    +0.222 C 
BRANCH  33  34
ATOM     34  O   UNL     1      -3.690   3.005  -6.152  0.00  0.00    -0.572 OA
ATOM     35  H   UNL     1      -3.432   3.073  -7.082  0.00  0.00    +0.382 HD
ENDBRANCH  33  34
ENDBRANCH  32  33
ENDBRANCH  30  31
ENDBRANCH  29  30
ENDBRANCH   2  29
ENDBRANCH   3   2
BRANCH  14  15
ATOM     15  O   UNL     1      -5.246   3.730   6.854  0.00  0.00    -0.559 OA
ATOM     16  H   UNL     1      -6.200   3.866   6.943  0.00  0.00    +0.371 HD
ENDBRANCH  14  15
BRANCH  18  19
ATOM     19  O   UNL     1      -5.197   0.332  10.229  0.00  0.00    -0.562 OA
ATOM     20  H   UNL     1      -6.155   0.345  10.356  0.00  0.00    +0.375 HD
ENDBRANCH  18  19
TORSDOF 8
