REMARK  Name = ZINC95485934
REMARK  13 active torsions:
REMARK  status: ('A' for Active; 'I' for Inactive)
REMARK    1  A    between atoms: C1_1  and  C2_2
REMARK    2  A    between atoms: C2_2  and  C4_4
REMARK    3  A    between atoms: C7_8  and  C40_47
REMARK    4  A    between atoms: C9_11  and  C39_46
REMARK    5  A    between atoms: C13_16  and  C38_45
REMARK    6  A    between atoms: C16_19  and  C29_34
REMARK    7  A    between atoms: C17_21  and  C27_32
REMARK    8  A    between atoms: C17_21  and  C28_33
REMARK    9  A    between atoms: C21_26  and  C26_31
REMARK   10  A    between atoms: C22_27  and  C25_30
REMARK   11  A    between atoms: C29_34  and  C30_36
REMARK   12  A    between atoms: C31_37  and  C32_38
REMARK   13  A    between atoms: C35_41  and  O2_44
REMARK                            x       y       z     vdW  Elec       q    Type
REMARK                         _______ _______ _______ _____ _____    ______ ____
ROOT
ATOM      3  C   UNL     1      -1.661  -0.408  -2.643  0.00  0.00    +0.005 C 
ATOM      4  C   UNL     1      -0.409   0.366  -2.926  0.00  0.00    -0.006 C 
ATOM      5  C   UNL     1      -0.666   1.015  -4.325  0.00  0.00    +0.008 C 
ATOM      6  C   UNL     1      -1.575  -0.004  -5.054  0.00  0.00    -0.117 C 
ATOM     10  C   UNL     1      -0.626  -0.974  -5.742  0.00  0.00    +0.032 C 
ATOM     11  C   UNL     1      -1.353  -2.187  -6.105  0.00  0.00    -0.020 C 
ATOM     12  C   UNL     1      -2.133  -2.910  -4.973  0.00  0.00    -0.026 C 
ATOM     13  C   UNL     1      -2.999  -3.991  -5.692  0.00  0.00    +0.001 C 
ATOM     14  C   UNL     1      -1.114  -3.730  -4.077  0.00  0.00    -0.008 C 
ATOM     15  C   UNL     1      -0.631  -4.888  -5.023  0.00  0.00    +0.001 C 
ATOM     16  C   UNL     1       0.031  -2.849  -3.760  0.00  0.00    +0.031 C 
ATOM     17  C   UNL     1       0.947  -3.354  -2.709  0.00  0.00    -0.005 C 
ATOM     18  C   UNL     1       0.190  -3.801  -1.399  0.00  0.00    +0.027 C 
ATOM     19  C   UNL     1       1.123  -4.311  -0.389  0.00  0.00    -0.024 C 
ATOM     20  C   UNL     1       0.534  -4.151   1.075  0.00  0.00    +0.019 C 
ATOM     21  C   UNL     1       2.365  -3.385  -0.359  0.00  0.00    +0.008 C 
ATOM     22  C   UNL     1       1.666  -5.760  -0.513  0.00  0.00    -0.031 C 
ATOM     35  C   UNL     1       0.723  -6.712  -1.255  0.00  0.00    +0.014 C 
ATOM     36  C   UNL     1       0.036  -6.114  -2.397  0.00  0.00    +0.035 C 
ATOM     37  C   UNL     1      -0.781  -4.903  -1.877  0.00  0.00    -0.051 C 
ATOM     38  C   UNL     1      -1.667  -5.460  -0.666  0.00  0.00    -0.000 C 
ATOM     39  C   UNL     1      -1.813  -4.373  -2.934  0.00  0.00    +0.037 C 
ATOM     40  C   UNL     1      -2.672  -3.361  -2.171  0.00  0.00    -0.014 C 
ATOM     41  C   UNL     1      -3.667  -2.585  -3.057  0.00  0.00    +0.001 C 
ATOM     42  C   UNL     1      -3.023  -1.905  -4.294  0.00  0.00    -0.015 C 
ATOM     43  C   UNL     1      -4.240  -1.708  -5.222  0.00  0.00    +0.015 C 
ATOM     44  C   UNL     1      -2.460  -0.563  -4.020  0.00  0.00    +0.057 C 
ENDROOT
BRANCH   3   2
ATOM      1  C   UNL     1      -3.034   1.676  -1.906  0.00  0.00    +0.065 C 
ATOM      2  C   UNL     1      -2.529   0.282  -1.636  0.00  0.00    -0.083 C 
ATOM     45  C   UNL     1      -2.849  -0.326  -0.521  0.00  0.00    -0.046 C 
ENDBRANCH   3   2
BRANCH   6   7
ATOM      7  C   UNL     1      -2.361   0.794  -6.138  0.00  0.00    +0.507 C 
ATOM      8  O   UNL     1      -3.579   0.847  -6.092  0.00  0.00    -0.686 OA
ATOM      9  O   UNL     1      -1.760   1.365  -7.032  0.00  0.00    -0.698 OA
ENDBRANCH   6   7
BRANCH  22  23
ATOM     23  C   UNL     1       2.987  -5.702  -1.168  0.00  0.00    +0.402 C 
ATOM     34  O   UNL     1       3.069  -5.764  -2.378  0.00  0.00    -0.455 OA
BRANCH  23  24
ATOM     24  C   UNL     1       4.154  -5.576  -0.389  0.00  0.00    -0.108 C 
ATOM     25  C   UNL     1       5.367  -5.523  -0.990  0.00  0.00    +0.123 C 
BRANCH  25  26
ATOM     26  C   UNL     1       6.583  -5.392  -0.178  0.00  0.00    -0.088 A 
ATOM     27  C   UNL     1       6.492  -5.327   1.219  0.00  0.00    +0.052 A 
ATOM     28  C   UNL     1       7.635  -5.204   1.975  0.00  0.00    -0.016 A 
ATOM     29  C   UNL     1       8.879  -5.144   1.356  0.00  0.00    +0.117 A 
ATOM     32  C   UNL     1       8.975  -5.208  -0.030  0.00  0.00    -0.016 A 
ATOM     33  C   UNL     1       7.839  -5.337  -0.796  0.00  0.00    +0.058 A 
BRANCH  29  30
ATOM     30  O   UNL     1      10.003  -5.023   2.107  0.00  0.00    -0.499 OA
ATOM     31  H   UNL     1      10.394  -5.867   2.369  0.00  0.00    +0.393 HD
ENDBRANCH  29  30
ENDBRANCH  25  26
ENDBRANCH  23  24
ENDBRANCH  22  23
TORSDOF 6
