REMARK  Name = ZINC95486037
REMARK  10 active torsions:
REMARK  status: ('A' for Active; 'I' for Inactive)
REMARK    1  A    between atoms: C1_1  and  C2_2
REMARK    2  A    between atoms: C2_2  and  C3_4
REMARK    3  A    between atoms: C3_4  and  C5_6
REMARK    4  A    between atoms: C6_8  and  O5_25
REMARK    5  A    between atoms: C8_11  and  C15_23
REMARK    6  A    between atoms: C14_20  and  O4_22
REMARK    7  A    between atoms: O5_25  and  C17_26
REMARK    8  A    between atoms: C17_26  and  C18_28
REMARK    9  A    between atoms: C18_28  and  C20_30
REMARK   10  A    between atoms: C20_30  and  O7_31
REMARK                            x       y       z     vdW  Elec       q    Type
REMARK                         _______ _______ _______ _____ _____    ______ ____
ROOT
ATOM      4  C   UNL     1      -0.157   0.180  -2.690  0.00  0.00    +0.024 C 
ATOM      5  C   UNL     1       1.159   0.957  -2.746  0.00  0.00    +0.199 C 
ATOM     14  C   UNL     1       1.208   1.984  -1.611  0.00  0.00    +0.040 C 
ATOM     15  C   UNL     1       0.030   2.944  -1.759  0.00  0.00    -0.060 C 
ATOM     18  C   UNL     1       0.053   4.013  -0.669  0.00  0.00    +0.264 C 
ATOM     19  O   UNL     1      -1.037   4.921  -0.873  0.00  0.00    -0.352 OA
ATOM     20  C   UNL     1      -2.275   4.367  -0.929  0.00  0.00    +0.524 C 
ATOM     21  C   UNL     1      -2.420   3.137  -1.750  0.00  0.00    -0.193 C 
ATOM     22  C   UNL     1      -3.482   2.920  -2.522  0.00  0.00    +0.157 C 
ATOM     23  O   UNL     1      -3.219   4.853  -0.338  0.00  0.00    -0.448 OA
ATOM     24  C   UNL     1      -1.278   2.146  -1.653  0.00  0.00    +0.061 C 
ATOM     25  C   UNL     1      -1.339   1.148  -2.805  0.00  0.00    +0.197 C 
ENDROOT
BRANCH   4   3
ATOM      3  C   UNL     1      -0.244  -0.563  -1.382  0.00  0.00    -0.202 C 
ATOM     28  C   UNL     1      -0.148   0.102  -0.229  0.00  0.00    +0.154 C 
BRANCH   3   2
ATOM      1  C   UNL     1      -0.405  -2.782  -2.672  0.00  0.00    +0.071 C 
ATOM      2  C   UNL     1      -0.433  -2.014  -1.376  0.00  0.00    +0.390 C 
ATOM     29  O   UNL     1      -0.612  -2.598  -0.328  0.00  0.00    -0.454 OA
ENDBRANCH   3   2
ENDBRANCH   4   3
BRANCH  15  16
ATOM     16  C   UNL     1       0.098   3.614  -3.107  0.00  0.00    +0.038 C 
ATOM     17  C   UNL     1       0.224   4.915  -3.186  0.00  0.00    -0.023 C 
ENDBRANCH  15  16
BRANCH  25  26
ATOM     26  O   UNL     1      -1.265   1.847  -4.049  0.00  0.00    -0.527 OA
ATOM     27  H   UNL     1      -1.292   1.272  -4.826  0.00  0.00    +0.371 HD
ENDBRANCH  25  26
BRANCH   5   6
ATOM      6  O   UNL     1       1.257   1.634  -4.000  0.00  0.00    -0.315 OA
BRANCH   6   7
ATOM      7  C   UNL     1       2.487   1.747  -4.541  0.00  0.00    +0.502 C 
ATOM     13  O   UNL     1       3.438   1.214  -4.004  0.00  0.00    -0.505 OA
BRANCH   7   8
ATOM      8  C   UNL     1       2.678   2.515  -5.779  0.00  0.00    -0.179 C 
ATOM     12  C   UNL     1       3.872   2.547  -6.365  0.00  0.00    +0.195 C 
BRANCH   8   9
ATOM      9  C   UNL     1       1.521   3.268  -6.385  0.00  0.00    +0.253 C 
BRANCH   9  10
ATOM     10  O   UNL     1       1.922   3.830  -7.636  0.00  0.00    -0.573 OA
ATOM     11  H   UNL     1       1.226   4.330  -8.083  0.00  0.00    +0.389 HD
ENDBRANCH   9  10
ENDBRANCH   8   9
ENDBRANCH   7   8
ENDBRANCH   6   7
ENDBRANCH   5   6
TORSDOF 9
