REMARK  Name = ZINC95485911
REMARK  18 active torsions:
REMARK  status: ('A' for Active; 'I' for Inactive)
REMARK    1  A    between atoms: C1_1  and  C2_2
REMARK    2  A    between atoms: C4_4  and  O9_42
REMARK    3  A    between atoms: C9_12  and  O4_23
REMARK    4  A    between atoms: C10_13  and  C15_22
REMARK    5  A    between atoms: C12_15  and  O3_21
REMARK    6  A    between atoms: C13_17  and  O2_20
REMARK    7  A    between atoms: C16_24  and  O8_41
REMARK    8  A    between atoms: C19_27  and  C20_29
REMARK    9  A    between atoms: C20_29  and  C21_30
REMARK   10  A    between atoms: C20_29  and  C22_31
REMARK   11  A    between atoms: C20_29  and  O7_40
REMARK   12  A    between atoms: C22_31  and  C23_33
REMARK   13  A    between atoms: C22_31  and  O6_39
REMARK   14  A    between atoms: C23_33  and  C24_34
REMARK   15  A    between atoms: C24_34  and  C25_35
REMARK   16  A    between atoms: C25_35  and  C26_36
REMARK   17  A    between atoms: C25_35  and  C27_37
REMARK   18  A    between atoms: C25_35  and  O5_38
REMARK                            x       y       z     vdW  Elec       q    Type
REMARK                         _______ _______ _______ _____ _____    ______ ____
ROOT
ATOM      1  C   UNL     1      -0.315   1.821   0.283  0.00  0.00    +0.053 C 
ATOM      2  C   UNL     1      -0.257   0.295   0.181  0.00  0.00    -0.034 C 
ATOM      3  C   UNL     1      -1.619  -0.271   0.495  0.00  0.00    +0.013 C 
ATOM      4  C   UNL     1      -2.091   0.343   1.827  0.00  0.00    +0.200 C 
ATOM      7  C   UNL     1      -1.100   0.046   2.945  0.00  0.00    +0.053 C 
ATOM      8  C   UNL     1       0.310   0.377   2.536  0.00  0.00    -0.029 C 
ATOM      9  C   UNL     1       1.116   1.180   3.218  0.00  0.00    -0.088 C 
ATOM     10  C   UNL     1       0.607   1.839   4.432  0.00  0.00    +0.362 C 
ATOM     11  C   UNL     1      -0.897   2.005   4.504  0.00  0.00    +0.118 C 
ATOM     14  C   UNL     1      -1.300   2.570   5.860  0.00  0.00    +0.048 C 
ATOM     15  C   UNL     1      -0.869   1.636   6.960  0.00  0.00    +0.150 C 
ATOM     18  C   UNL     1      -1.579   0.297   6.745  0.00  0.00    +0.131 C 
ATOM     21  C   UNL     1      -1.139  -0.295   5.406  0.00  0.00    +0.050 C 
ATOM     22  O   UNL     1       1.344   2.224   5.316  0.00  0.00    -0.435 OA
ATOM     23  C   UNL     1      -1.521   0.652   4.265  0.00  0.00    -0.029 C 
ATOM     24  C   UNL     1      -3.042   0.820   4.270  0.00  0.00    +0.082 C 
ATOM     25  C   UNL     1       0.387  -0.088  -1.141  0.00  0.00    -0.000 C 
ATOM     40  C   UNL     1       1.914  -0.062  -0.866  0.00  0.00    +0.022 C 
ATOM     41  C   UNL     1       2.080   0.241   0.650  0.00  0.00    +0.016 C 
ATOM     42  C   UNL     1       0.752  -0.241   1.238  0.00  0.00    +0.149 C 
ENDROOT
BRANCH   4   5
ATOM      5  O   UNL     1      -3.365  -0.206   2.173  0.00  0.00    -0.554 OA
ATOM      6  H   UNL     1      -4.056  -0.039   1.518  0.00  0.00    +0.372 HD
ENDBRANCH   4   5
BRANCH  11  12
ATOM     12  O   UNL     1      -1.324   2.898   3.474  0.00  0.00    -0.526 OA
ATOM     13  H   UNL     1      -0.935   3.781   3.532  0.00  0.00    +0.379 HD
ENDBRANCH  11  12
BRANCH  15  16
ATOM     16  O   UNL     1      -1.255   2.185   8.221  0.00  0.00    -0.561 OA
ATOM     17  H   UNL     1      -1.038   1.623   8.978  0.00  0.00    +0.379 HD
ENDBRANCH  15  16
BRANCH  18  19
ATOM     19  O   UNL     1      -2.994   0.501   6.734  0.00  0.00    -0.539 OA
ATOM     20  H   UNL     1      -3.344   0.876   7.554  0.00  0.00    +0.373 HD
ENDBRANCH  18  19
BRANCH  25  26
ATOM     26  C   UNL     1       0.025   0.930  -2.224  0.00  0.00    +0.114 C 
ATOM     39  C   UNL     1      -1.498   1.018  -2.352  0.00  0.00    +0.058 C 
BRANCH  26  27
ATOM     27  O   UNL     1       0.547   2.211  -1.867  0.00  0.00    -0.542 OA
ATOM     28  H   UNL     1       1.509   2.230  -1.769  0.00  0.00    +0.369 HD
ENDBRANCH  26  27
BRANCH  26  29
ATOM     29  C   UNL     1       0.624   0.488  -3.560  0.00  0.00    +0.179 C 
BRANCH  29  30
ATOM     30  O   UNL     1       0.102  -0.793  -3.917  0.00  0.00    -0.553 OA
ATOM     31  H   UNL     1      -0.860  -0.812  -4.016  0.00  0.00    +0.373 HD
ENDBRANCH  29  30
BRANCH  29  32
ATOM     32  C   UNL     1       0.261   1.507  -4.643  0.00  0.00    +0.010 C 
BRANCH  32  33
ATOM     33  C   UNL     1       0.963   1.133  -5.950  0.00  0.00    -0.003 C 
BRANCH  33  34
ATOM     34  C   UNL     1       0.600   2.151  -7.033  0.00  0.00    +0.126 C 
ATOM     37  C   UNL     1       1.302   1.777  -8.341  0.00  0.00    +0.006 C 
ATOM     38  C   UNL     1       1.050   3.546  -6.594  0.00  0.00    +0.053 C 
BRANCH  34  35
ATOM     35  O   UNL     1      -0.815   2.148  -7.235  0.00  0.00    -0.559 OA
ATOM     36  H   UNL     1      -1.170   1.294  -7.515  0.00  0.00    +0.374 HD
ENDBRANCH  34  35
ENDBRANCH  33  34
ENDBRANCH  32  33
ENDBRANCH  29  32
ENDBRANCH  26  29
ENDBRANCH  25  26
BRANCH  42  43
ATOM     43  O   UNL     1       0.702  -1.667   1.326  0.00  0.00    -0.536 OA
ATOM     44  H   UNL     1       1.315  -2.042   1.973  0.00  0.00    +0.378 HD
ENDBRANCH  42  43
TORSDOF 13
