REMARK  Name = ZINC95485988
REMARK  15 active torsions:
REMARK  status: ('A' for Active; 'I' for Inactive)
REMARK    1  A    between atoms: C1_1  and  C2_2
REMARK    2  A    between atoms: C3_3  and  C4_4
REMARK    3  A    between atoms: C3_3  and  C5_5
REMARK    4  A    between atoms: C5_5  and  C6_6
REMARK    5  A    between atoms: C6_6  and  C7_7
REMARK    6  A    between atoms: C8_8  and  O6_33
REMARK    7  A    between atoms: C9_9  and  C22_27
REMARK    8  A    between atoms: C10_10  and  O5_26
REMARK    9  A    between atoms: C13_14  and  C16_18
REMARK   10  A    between atoms: C19_21  and  O4_25
REMARK   11  A    between atoms: C21_23  and  O3_24
REMARK   12  A    between atoms: C22_27  and  C23_28
REMARK   13  A    between atoms: C23_28  and  C24_29
REMARK   14  A    between atoms: C25_30  and  C26_31
REMARK   15  A    between atoms: C25_30  and  C27_32
REMARK                            x       y       z     vdW  Elec       q    Type
REMARK                         _______ _______ _______ _____ _____    ______ ____
ROOT
ATOM      6  C   UNL     1      -0.693  -4.473   0.666  0.00  0.00    -0.138 A 
ATOM      7  C   UNL     1      -1.954  -5.043   0.750  0.00  0.00    +0.189 A 
ATOM     10  C   UNL     1      -2.102  -6.405   0.984  0.00  0.00    -0.160 A 
ATOM     17  C   UNL     1      -0.987  -7.209   1.135  0.00  0.00    +0.212 A 
ATOM     20  C   UNL     1       0.289  -6.641   1.051  0.00  0.00    -0.258 A 
ATOM     21  C   UNL     1       1.503  -7.461   1.206  0.00  0.00    +0.423 A 
ATOM     22  O   UNL     1       1.435  -8.662   1.414  0.00  0.00    -0.456 OA
ATOM     23  C   UNL     1       2.751  -6.806   1.090  0.00  0.00    -0.157 A 
ATOM     24  C   UNL     1       2.786  -5.464   0.860  0.00  0.00    +0.215 A 
ATOM     35  O   UNL     1       1.672  -4.726   0.725  0.00  0.00    -0.201 OA
ATOM     36  C   UNL     1       0.436  -5.264   0.809  0.00  0.00    +0.176 A 
ENDROOT
BRANCH  24  25
ATOM     25  C   UNL     1       4.094  -4.797   0.754  0.00  0.00    -0.114 A 
ATOM     26  C   UNL     1       5.266  -5.500   1.053  0.00  0.00    +0.099 A 
ATOM     27  C   UNL     1       6.487  -4.873   0.952  0.00  0.00    -0.013 A 
ATOM     28  C   UNL     1       6.561  -3.542   0.554  0.00  0.00    +0.154 A 
ATOM     31  C   UNL     1       5.405  -2.836   0.255  0.00  0.00    -0.035 A 
ATOM     32  C   UNL     1       4.171  -3.457   0.347  0.00  0.00    +0.170 A 
BRANCH  28  29
ATOM     29  O   UNL     1       7.770  -2.931   0.459  0.00  0.00    -0.495 OA
ATOM     30  H   UNL     1       8.182  -3.010  -0.412  0.00  0.00    +0.401 HD
ENDBRANCH  28  29
BRANCH  32  33
ATOM     33  O   UNL     1       3.039  -2.769   0.050  0.00  0.00    -0.478 OA
ATOM     34  H   UNL     1       2.648  -2.311   0.806  0.00  0.00    +0.397 HD
ENDBRANCH  32  33
ENDBRANCH  24  25
BRANCH   7   8
ATOM      8  O   UNL     1      -3.055  -4.262   0.604  0.00  0.00    -0.478 OA
ATOM      9  H   UNL     1      -3.365  -4.186  -0.309  0.00  0.00    +0.396 HD
ENDBRANCH   7   8
BRANCH  17  18
ATOM     18  O   UNL     1      -1.130  -8.539   1.364  0.00  0.00    -0.468 OA
ATOM     19  H   UNL     1      -1.162  -9.076   0.561  0.00  0.00    +0.399 HD
ENDBRANCH  17  18
BRANCH   6   5
ATOM      5  C   UNL     1      -0.549  -2.995   0.412  0.00  0.00    +0.101 C 
BRANCH   5   4
ATOM      4  C   UNL     1      -0.492  -2.739  -1.096  0.00  0.00    +0.062 C 
BRANCH   4   3
ATOM      1  C   UNL     1       0.984   0.739  -1.786  0.00  0.00    +0.059 C 
ATOM      2  C   UNL     1       0.840  -0.740  -1.532  0.00  0.00    -0.044 C 
ATOM      3  C   UNL     1      -0.348  -1.261  -1.349  0.00  0.00    -0.135 C 
ATOM     37  C   UNL     1      -1.571  -0.382  -1.393  0.00  0.00    +0.069 C 
ENDBRANCH   4   3
ENDBRANCH   5   4
ENDBRANCH   6   5
BRANCH  10  11
ATOM     11  C   UNL     1      -3.481  -7.007   1.073  0.00  0.00    +0.098 C 
BRANCH  11  12
ATOM     12  C   UNL     1      -3.932  -7.456  -0.318  0.00  0.00    +0.052 C 
BRANCH  12  13
ATOM     13  C   UNL     1      -5.311  -8.058  -0.229  0.00  0.00    -0.057 C 
ATOM     14  C   UNL     1      -6.279  -7.593  -0.980  0.00  0.00    -0.130 C 
ATOM     15  C   UNL     1      -7.619  -8.283  -0.995  0.00  0.00    +0.072 C 
ATOM     16  C   UNL     1      -6.051  -6.370  -1.830  0.00  0.00    +0.072 C 
ENDBRANCH  12  13
ENDBRANCH  11  12
ENDBRANCH  10  11
TORSDOF 11
