REMARK  Name = ZINC43121107
REMARK  7 active torsions:
REMARK  status: ('A' for Active; 'I' for Inactive)
REMARK    1  A    between atoms: C1_1  and  C2_2
REMARK    2  A    between atoms: C2_2  and  C20_24
REMARK    3  A    between atoms: C7_7  and  C11_12
REMARK    4  A    between atoms: C12_13  and  C13_14
REMARK    5  A    between atoms: C13_14  and  C14_16
REMARK    6  A    between atoms: C17_19  and  O4_23
REMARK    7  A    between atoms: C19_21  and  O3_22
REMARK                            x       y       z     vdW  Elec       q    Type
REMARK                         _______ _______ _______ _____ _____    ______ ____
ROOT
ATOM      9  C   UNL     1       0.460  -5.933   2.434  0.00  0.00    +0.134 C 
ATOM     10  C   UNL     1       1.363  -6.458   3.292  0.00  0.00    -0.114 C 
ENDROOT
BRANCH   9   8
ATOM      1  C   UNL     1      -0.019   1.526   0.010  0.00  0.00    +0.076 C 
ATOM      2  C   UNL     1       0.002  -0.004   0.002  0.00  0.00    +0.111 C 
ATOM      3  C   UNL     1       0.706  -0.503  -1.262  0.00  0.00    +0.031 C 
ATOM      4  C   UNL     1      -1.435  -0.540   0.039  0.00  0.00    +0.017 C 
ATOM      5  C   UNL     1      -1.382  -2.065  -0.084  0.00  0.00    +0.085 C 
ATOM      6  C   UNL     1      -0.362  -2.617   0.880  0.00  0.00    -0.164 A 
ATOM      7  C   UNL     1      -0.415  -3.958   1.202  0.00  0.00    +0.077 A 
ATOM      8  C   UNL     1       0.517  -4.505   2.090  0.00  0.00    -0.119 A 
ATOM     23  C   UNL     1       1.505  -3.685   2.649  0.00  0.00    +0.071 A 
ATOM     24  C   UNL     1       1.548  -2.350   2.324  0.00  0.00    -0.019 A 
ATOM     25  C   UNL     1       0.616  -1.807   1.440  0.00  0.00    +0.156 A 
ATOM     26  O   UNL     1       0.692  -0.482   1.157  0.00  0.00    -0.305 OA
ENDBRANCH   9   8
BRANCH  10  11
ATOM     11  C   UNL     1       1.306  -7.878   3.634  0.00  0.00    +0.424 C 
ATOM     22  O   UNL     1       0.446  -8.588   3.145  0.00  0.00    -0.447 OA
BRANCH  11  12
ATOM     12  C   UNL     1       2.291  -8.450   4.570  0.00  0.00    -0.200 A 
ATOM     13  C   UNL     1       3.277  -7.636   5.137  0.00  0.00    +0.100 A 
ATOM     14  C   UNL     1       4.193  -8.174   6.010  0.00  0.00    -0.029 A 
ATOM     15  C   UNL     1       4.144  -9.527   6.332  0.00  0.00    +0.156 A 
ATOM     18  C   UNL     1       3.171 -10.344   5.776  0.00  0.00    -0.048 A 
ATOM     19  C   UNL     1       2.239  -9.813   4.900  0.00  0.00    +0.184 A 
BRANCH  15  16
ATOM     16  O   UNL     1       5.053 -10.050   7.194  0.00  0.00    -0.496 OA
ATOM     17  H   UNL     1       4.778 -10.021   8.121  0.00  0.00    +0.400 HD
ENDBRANCH  15  16
BRANCH  19  20
ATOM     20  O   UNL     1       1.283 -10.609   4.359  0.00  0.00    -0.479 OA
ATOM     21  H   UNL     1       1.542 -11.024   3.525  0.00  0.00    +0.399 HD
ENDBRANCH  19  20
ENDBRANCH  11  12
ENDBRANCH  10  11
TORSDOF 5
