REMARK  Name = ZINC34268676
REMARK  9 active torsions:
REMARK  status: ('A' for Active; 'I' for Inactive)
REMARK    1  A    between atoms: C1_1  and  C2_2
REMARK    2  A    between atoms: C2_2  and  C11_12
REMARK    3  A    between atoms: C3_3  and  C4_4
REMARK    4  A    between atoms: C4_4  and  C5_5
REMARK    5  A    between atoms: C5_5  and  C6_6
REMARK    6  A    between atoms: C6_6  and  C10_11
REMARK    7  A    between atoms: C7_7  and  C8_8
REMARK    8  A    between atoms: C8_8  and  C9_9
REMARK    9  A    between atoms: C9_9  and  O1_10
REMARK                            x       y       z     vdW  Elec       q    Type
REMARK                         _______ _______ _______ _____ _____    ______ ____
ROOT
ATOM      7  C   UNL     1       4.687   0.343   0.837  0.00  0.00    -0.118 C 
ATOM      8  C   UNL     1       5.805   0.172  -0.159  0.00  0.00    +0.074 C 
ATOM      9  C   UNL     1       4.801   1.216   1.807  0.00  0.00    -0.056 C 
ENDROOT
BRANCH   7   6
ATOM      6  C   UNL     1       3.437  -0.491   0.718  0.00  0.00    +0.061 C 
BRANCH   6   5
ATOM      5  C   UNL     1       2.470   0.177  -0.262  0.00  0.00    +0.053 C 
BRANCH   5   4
ATOM      1  C   UNL     1      -0.062   1.368   0.086  0.00  0.00    +0.072 C 
ATOM      2  C   UNL     1       0.048  -0.114  -0.166  0.00  0.00    -0.133 C 
ATOM      3  C   UNL     1      -1.191  -0.971  -0.171  0.00  0.00    +0.072 C 
ATOM      4  C   UNL     1       1.221  -0.657  -0.382  0.00  0.00    -0.061 C 
ENDBRANCH   5   4
ENDBRANCH   6   5
ENDBRANCH   7   6
BRANCH   9  10
ATOM     10  C   UNL     1       6.087   1.982   1.983  0.00  0.00    +0.061 C 
BRANCH  10  11
ATOM     11  C   UNL     1       5.788   3.483   2.002  0.00  0.00    +0.170 C 
BRANCH  11  12
ATOM     12  O   UNL     1       7.007   4.210   2.169  0.00  0.00    -0.577 OA
ATOM     13  H   UNL     1       6.893   5.170   2.190  0.00  0.00    +0.381 HD
ENDBRANCH  11  12
ENDBRANCH  10  11
ENDBRANCH   9  10
TORSDOF 6
