REMARK  Name = ZINC95485904
REMARK  16 active torsions:
REMARK  status: ('A' for Active; 'I' for Inactive)
REMARK    1  A    between atoms: C1_1  and  C2_2
REMARK    2  A    between atoms: C2_2  and  C3_3
REMARK    3  A    between atoms: C2_2  and  C4_4
REMARK    4  A    between atoms: C4_4  and  C5_5
REMARK    5  A    between atoms: C4_4  and  C34_54
REMARK    6  A    between atoms: C4_4  and  O11_57
REMARK    7  A    between atoms: C8_11  and  O2_14
REMARK    8  A    between atoms: C22_31  and  C33_53
REMARK    9  A    between atoms: C25_34  and  C27_37
REMARK   10  A    between atoms: C27_37  and  O9_52
REMARK   11  A    between atoms: C28_38  and  O8_51
REMARK   12  A    between atoms: C29_40  and  O7_50
REMARK   13  A    between atoms: C30_42  and  O6_49
REMARK   14  A    between atoms: C31_44  and  C32_47
REMARK   15  A    between atoms: C32_47  and  O5_48
REMARK   16  A    between atoms: C34_54  and  C35_56
REMARK                            x       y       z     vdW  Elec       q    Type
REMARK                         _______ _______ _______ _____ _____    ______ ____
ROOT
ATOM      9  C   UNL     1      -2.185  -0.229   1.140  0.00  0.00    +0.181 C 
ATOM     10  C   UNL     1      -3.573  -0.858   1.150  0.00  0.00    +0.123 C 
ATOM     11  C   UNL     1      -4.252   0.193   2.126  0.00  0.00    -0.007 C 
ATOM     12  C   UNL     1      -5.592  -0.433   2.220  0.00  0.00    -0.151 C 
ATOM     13  C   UNL     1      -6.941   0.103   2.640  0.00  0.00    +0.132 C 
ATOM     14  C   UNL     1      -5.194  -1.940   2.371  0.00  0.00    +0.245 C 
ATOM     15  C   UNL     1      -6.200  -2.714   1.574  0.00  0.00    -0.044 C 
ATOM     16  C   UNL     1      -7.017  -1.919   0.923  0.00  0.00    -0.025 C 
ATOM     17  C   UNL     1      -8.035  -2.283  -0.097  0.00  0.00    -0.087 C 
ATOM     18  C   UNL     1      -8.387  -3.739  -0.224  0.00  0.00    +0.067 C 
ATOM     19  C   UNL     1      -9.103  -4.022  -1.542  0.00  0.00    +0.016 C 
ATOM     20  C   UNL     1     -10.208  -2.970  -1.706  0.00  0.00    -0.002 C 
ATOM     21  C   UNL     1      -9.539  -1.619  -1.947  0.00  0.00    -0.017 C 
ATOM     22  C   UNL     1     -10.605  -0.524  -2.027  0.00  0.00    +0.034 C 
ATOM     23  C   UNL     1      -8.730  -1.667  -3.249  0.00  0.00    +0.020 C 
ATOM     24  C   UNL     1      -9.652  -2.010  -4.419  0.00  0.00    +0.034 C 
ATOM     25  C   UNL     1     -10.280  -3.385  -4.175  0.00  0.00    -0.010 C 
ATOM     43  C   UNL     1     -11.106  -3.342  -2.885  0.00  0.00    +0.064 C 
ATOM     44  C   UNL     1      -8.573  -1.311  -0.814  0.00  0.00    -0.072 C 
ATOM     45  C   UNL     1      -8.274   0.152  -0.602  0.00  0.00    +0.072 C 
ATOM     46  C   UNL     1      -6.910   0.436   0.019  0.00  0.00    +0.065 C 
ATOM     47  C   UNL     1      -6.754  -0.466   1.241  0.00  0.00    -0.100 C 
ATOM     48  C   UNL     1      -3.808   1.468   1.499  0.00  0.00    +0.367 C 
ATOM     51  O   UNL     1      -3.860  -2.075   1.804  0.00  0.00    -0.338 OA
ATOM     52  O   UNL     1      -2.469   1.192   0.981  0.00  0.00    -0.366 OA
ENDROOT
BRANCH  25  26
ATOM     26  C   UNL     1     -11.188  -3.748  -5.351  0.00  0.00    +0.310 C 
ATOM     29  C   UNL     1     -11.684  -5.187  -5.187  0.00  0.00    +0.142 C 
ATOM     32  C   UNL     1     -10.484  -6.139  -5.215  0.00  0.00    +0.162 C 
ATOM     35  C   UNL     1      -9.714  -5.935  -6.523  0.00  0.00    +0.123 C 
ATOM     38  C   UNL     1      -9.294  -4.468  -6.636  0.00  0.00    +0.153 C 
ATOM     42  O   UNL     1     -10.454  -3.635  -6.572  0.00  0.00    -0.373 OA
BRANCH  26  27
ATOM     27  O   UNL     1     -12.306  -2.859  -5.383  0.00  0.00    -0.511 OA
ATOM     28  H   UNL     1     -12.925  -3.031  -6.105  0.00  0.00    +0.382 HD
ENDBRANCH  26  27
BRANCH  29  30
ATOM     30  O   UNL     1     -12.370  -5.316  -3.940  0.00  0.00    -0.527 OA
ATOM     31  H   UNL     1     -12.712  -6.205  -3.770  0.00  0.00    +0.382 HD
ENDBRANCH  29  30
BRANCH  32  33
ATOM     33  O   UNL     1     -10.944  -7.490  -5.134  0.00  0.00    -0.558 OA
ATOM     34  H   UNL     1     -10.235  -8.148  -5.146  0.00  0.00    +0.393 HD
ENDBRANCH  32  33
BRANCH  35  36
ATOM     36  O   UNL     1      -8.553  -6.768  -6.528  0.00  0.00    -0.555 OA
ATOM     37  H   UNL     1      -8.017  -6.690  -7.329  0.00  0.00    +0.386 HD
ENDBRANCH  35  36
BRANCH  38  39
ATOM     39  C   UNL     1      -8.576  -4.243  -7.968  0.00  0.00    +0.203 C 
BRANCH  39  40
ATOM     40  O   UNL     1      -8.082  -2.903  -8.023  0.00  0.00    -0.558 OA
ATOM     41  H   UNL     1      -7.615  -2.690  -8.842  0.00  0.00    +0.385 HD
ENDBRANCH  39  40
ENDBRANCH  38  39
ENDBRANCH  25  26
BRANCH  48  49
ATOM     49  O   UNL     1      -3.747   2.507   2.479  0.00  0.00    -0.553 OA
ATOM     50  H   UNL     1      -3.464   3.362   2.128  0.00  0.00    +0.389 HD
ENDBRANCH  48  49
BRANCH   9   3
ATOM      3  C   UNL     1      -1.362  -0.753  -0.038  0.00  0.00    +0.103 C 
BRANCH   3   2
ATOM      1  C   UNL     1       0.789  -0.434   1.191  0.00  0.00    +0.040 C 
ATOM      2  C   UNL     1      -0.002  -0.053  -0.061  0.00  0.00    +0.020 C 
ATOM     53  C   UNL     1       0.774  -0.486  -1.307  0.00  0.00    +0.032 C 
ENDBRANCH   3   2
BRANCH   3   6
ATOM      6  C   UNL     1      -2.093  -0.472  -1.326  0.00  0.00    +0.333 C 
ATOM      7  C   UNL     1      -1.921  -1.394  -2.506  0.00  0.00    +0.068 C 
ATOM      8  O   UNL     1      -2.817   0.490  -1.412  0.00  0.00    -0.428 OA
ENDBRANCH   3   6
BRANCH   3   4
ATOM      4  O   UNL     1      -1.170  -2.162   0.103  0.00  0.00    -0.525 OA
ATOM      5  H   UNL     1      -1.992  -2.671   0.126  0.00  0.00    +0.383 HD
ENDBRANCH   3   4
ENDBRANCH   9   3
TORSDOF 12
