REMARK  Name = ZINC95486263
REMARK  10 active torsions:
REMARK  status: ('A' for Active; 'I' for Inactive)
REMARK    1  A    between atoms: C3_3  and  O11_41
REMARK    2  A    between atoms: C4_4  and  O5_20
REMARK    3  A    between atoms: C6_6  and  C7_7
REMARK    4  A    between atoms: C11_12  and  O4_19
REMARK    5  A    between atoms: C13_14  and  O3_18
REMARK    6  A    between atoms: O5_20  and  C16_21
REMARK    7  A    between atoms: C19_24  and  C22_28
REMARK    8  A    between atoms: C21_26  and  O6_27
REMARK    9  A    between atoms: C26_33  and  O10_40
REMARK   10  A    between atoms: C28_35  and  O9_39
REMARK                            x       y       z     vdW  Elec       q    Type
REMARK                         _______ _______ _______ _____ _____    ______ ____
ROOT
ATOM      7  O   UNL     1       3.597  -0.627  -0.038  0.00  0.00    -0.239 OA
ENDROOT
BRANCH   7   6
ATOM      1  C   UNL     1      -0.021   1.373  -0.268  0.00  0.00    +0.054 A 
ATOM      2  C   UNL     1       1.161   2.069  -0.401  0.00  0.00    +0.043 A 
ATOM      3  C   UNL     1       2.376   1.402  -0.324  0.00  0.00    +0.115 A 
ATOM      6  C   UNL     1       2.406   0.024  -0.112  0.00  0.00    +0.100 A 
ATOM     31  C   UNL     1       1.224  -0.680   0.023  0.00  0.00    +0.004 A 
ATOM     32  C   UNL     1       0.001  -0.008  -0.055  0.00  0.00    -0.044 A 
BRANCH  32  33
ATOM     33  C   UNL     1      -1.263  -0.754   0.088  0.00  0.00    +0.205 A 
ATOM     34  C   UNL     1      -2.438  -0.074   0.002  0.00  0.00    -0.138 A 
ATOM     35  C   UNL     1      -3.660  -0.773   0.136  0.00  0.00    +0.423 A 
ATOM     36  C   UNL     1      -3.588  -2.226   0.365  0.00  0.00    -0.266 A 
ATOM     37  C   UNL     1      -4.748  -2.998   0.509  0.00  0.00    +0.220 A 
ATOM     40  C   UNL     1      -4.638  -4.360   0.722  0.00  0.00    -0.054 A 
ATOM     41  C   UNL     1      -3.384  -4.956   0.793  0.00  0.00    +0.193 A 
ATOM     44  C   UNL     1      -2.232  -4.199   0.652  0.00  0.00    -0.032 A 
ATOM     45  C   UNL     1      -2.322  -2.832   0.437  0.00  0.00    +0.184 A 
ATOM     46  O   UNL     1      -4.733  -0.195   0.065  0.00  0.00    -0.451 OA
ATOM     47  O   UNL     1      -1.210  -2.080   0.292  0.00  0.00    -0.218 OA
BRANCH  37  38
ATOM     38  O   UNL     1      -5.971  -2.414   0.440  0.00  0.00    -0.472 OA
ATOM     39  H   UNL     1      -6.342  -2.382  -0.452  0.00  0.00    +0.403 HD
ENDBRANCH  37  38
BRANCH  41  42
ATOM     42  O   UNL     1      -3.287  -6.294   1.003  0.00  0.00    -0.487 OA
ATOM     43  H   UNL     1      -3.275  -6.820   0.192  0.00  0.00    +0.403 HD
ENDBRANCH  41  42
ENDBRANCH  32  33
BRANCH   3   4
ATOM      4  O   UNL     1       3.538   2.092  -0.456  0.00  0.00    -0.482 OA
ATOM      5  H   UNL     1       3.893   2.428   0.379  0.00  0.00    +0.395 HD
ENDBRANCH   3   4
ENDBRANCH   7   6
BRANCH   7   8
ATOM      8  C   UNL     1       3.579  -1.982   0.059  0.00  0.00    +0.073 A 
ATOM      9  C   UNL     1       3.633  -2.587   1.308  0.00  0.00    +0.043 A 
ATOM     10  C   UNL     1       3.615  -3.961   1.411  0.00  0.00    +0.073 A 
ATOM     11  C   UNL     1       3.542  -4.748   0.259  0.00  0.00    -0.047 A 
ATOM     27  C   UNL     1       3.487  -4.139  -0.998  0.00  0.00    +0.055 A 
ATOM     28  C   UNL     1       3.500  -2.761  -1.094  0.00  0.00    +0.106 A 
BRANCH  11  12
ATOM     12  C   UNL     1       3.523  -6.219   0.368  0.00  0.00    +0.201 A 
ATOM     13  C   UNL     1       3.573  -6.784   1.605  0.00  0.00    -0.133 A 
ATOM     14  C   UNL     1       3.556  -8.193   1.729  0.00  0.00    +0.422 A 
ATOM     15  C   UNL     1       3.484  -8.982   0.487  0.00  0.00    -0.266 A 
ATOM     16  C   UNL     1       3.462 -10.383   0.516  0.00  0.00    +0.220 A 
ATOM     19  C   UNL     1       3.394 -11.087  -0.672  0.00  0.00    -0.053 A 
ATOM     20  C   UNL     1       3.348 -10.408  -1.885  0.00  0.00    +0.194 A 
ATOM     23  C   UNL     1       3.369  -9.023  -1.920  0.00  0.00    -0.029 A 
ATOM     24  C   UNL     1       3.437  -8.299  -0.740  0.00  0.00    +0.183 A 
ATOM     25  O   UNL     1       3.598  -8.734   2.822  0.00  0.00    -0.449 OA
ATOM     26  O   UNL     1       3.453  -6.949  -0.756  0.00  0.00    -0.218 OA
BRANCH  16  17
ATOM     17  O   UNL     1       3.508 -11.043   1.701  0.00  0.00    -0.472 OA
ATOM     18  H   UNL     1       2.639 -11.220   2.086  0.00  0.00    +0.404 HD
ENDBRANCH  16  17
BRANCH  20  21
ATOM     21  O   UNL     1       3.282 -11.109  -3.045  0.00  0.00    -0.487 OA
ATOM     22  H   UNL     1       2.381 -11.298  -3.340  0.00  0.00    +0.404 HD
ENDBRANCH  20  21
ENDBRANCH  11  12
BRANCH  28  29
ATOM     29  O   UNL     1       3.441  -2.164  -2.315  0.00  0.00    -0.484 OA
ATOM     30  H   UNL     1       4.306  -2.007  -2.718  0.00  0.00    +0.401 HD
ENDBRANCH  28  29
ENDBRANCH   7   8
TORSDOF 10
