REMARK  Name = ZINC95486052
REMARK  9 active torsions:
REMARK  status: ('A' for Active; 'I' for Inactive)
REMARK    1  A    between atoms: C1_1  and  C2_2
REMARK    2  A    between atoms: C2_2  and  C25_31
REMARK    3  A    between atoms: C3_3  and  C4_4
REMARK    4  A    between atoms: C4_4  and  C5_5
REMARK    5  A    between atoms: C7_7  and  C16_17
REMARK    6  A    between atoms: C11_12  and  C14_15
REMARK    7  A    between atoms: C11_12  and  C15_16
REMARK    8  A    between atoms: C20_23  and  O5_30
REMARK    9  A    between atoms: C22_25  and  O4_29
REMARK                            x       y       z     vdW  Elec       q    Type
REMARK                         _______ _______ _______ _____ _____    ______ ____
ROOT
ATOM      6  C   UNL     1      -0.864  -0.562   3.381  0.00  0.00    -0.103 A 
ATOM      7  C   UNL     1      -2.148  -0.066   3.473  0.00  0.00    +0.078 A 
ATOM      8  C   UNL     1      -3.055  -0.652   4.336  0.00  0.00    -0.123 A 
ATOM     24  C   UNL     1      -2.674  -1.732   5.108  0.00  0.00    +0.056 A 
ATOM     25  C   UNL     1      -1.386  -2.234   5.021  0.00  0.00    -0.157 A 
ATOM     26  C   UNL     1      -1.006  -3.411   5.883  0.00  0.00    +0.085 C 
ATOM     27  C   UNL     1       0.252  -4.079   5.314  0.00  0.00    +0.016 C 
ATOM     28  C   UNL     1       1.291  -2.982   5.047  0.00  0.00    +0.111 C 
ATOM     29  C   UNL     1       2.605  -3.618   4.589  0.00  0.00    +0.074 C 
ATOM     30  C   UNL     1       1.527  -2.173   6.324  0.00  0.00    +0.029 C 
ATOM     31  O   UNL     1       0.788  -2.126   4.020  0.00  0.00    -0.300 OA
ATOM     32  C   UNL     1      -0.479  -1.655   4.150  0.00  0.00    +0.153 A 
ENDROOT
BRANCH   8   9
ATOM      9  C   UNL     1      -4.458  -0.111   4.436  0.00  0.00    +0.241 C 
ATOM     10  C   UNL     1      -5.327  -0.735   3.335  0.00  0.00    +0.037 C 
ATOM     11  C   UNL     1      -6.715  -0.132   3.461  0.00  0.00    +0.403 C 
ATOM     12  C   UNL     1      -6.782   1.302   3.766  0.00  0.00    -0.294 A 
ATOM     13  C   UNL     1      -7.993   2.002   3.653  0.00  0.00    +0.222 A 
ATOM     16  C   UNL     1      -8.031   3.351   3.958  0.00  0.00    -0.075 A 
ATOM     17  C   UNL     1      -6.876   4.004   4.372  0.00  0.00    +0.198 A 
ATOM     20  C   UNL     1      -5.674   3.317   4.481  0.00  0.00    -0.053 A 
ATOM     21  C   UNL     1      -5.613   1.968   4.178  0.00  0.00    +0.216 A 
ATOM     22  O   UNL     1      -7.717  -0.801   3.317  0.00  0.00    -0.433 OA
ATOM     23  O   UNL     1      -4.436   1.307   4.275  0.00  0.00    -0.297 OA
BRANCH  13  14
ATOM     14  O   UNL     1      -9.117   1.362   3.246  0.00  0.00    -0.479 OA
ATOM     15  H   UNL     1      -9.635   0.980   3.967  0.00  0.00    +0.403 HD
ENDBRANCH  13  14
BRANCH  17  18
ATOM     18  O   UNL     1      -6.923   5.326   4.673  0.00  0.00    -0.490 OA
ATOM     19  H   UNL     1      -7.127   5.512   5.600  0.00  0.00    +0.403 HD
ENDBRANCH  17  18
ENDBRANCH   8   9
BRANCH   6   5
ATOM      5  C   UNL     1       0.123   0.078   2.439  0.00  0.00    +0.118 C 
BRANCH   5   4
ATOM      1  C   UNL     1      -0.200   1.488   0.018  0.00  0.00    +0.072 C 
ATOM      2  C   UNL     1      -0.087  -0.015   0.009  0.00  0.00    -0.135 C 
ATOM      3  C   UNL     1      -0.213  -0.772  -1.289  0.00  0.00    +0.071 C 
ATOM      4  C   UNL     1       0.121  -0.664   1.128  0.00  0.00    -0.045 C 
ENDBRANCH   5   4
ENDBRANCH   6   5
TORSDOF 5
