REMARK  Name = ZINC14644461
REMARK  8 active torsions:
REMARK  status: ('A' for Active; 'I' for Inactive)
REMARK    1  A    between atoms: C1_1  and  O1_2
REMARK    2  A    between atoms: O1_2  and  C2_3
REMARK    3  A    between atoms: C4_5  and  C9_12
REMARK    4  A    between atoms: C6_7  and  O3_10
REMARK    5  A    between atoms: C7_8  and  O2_9
REMARK    6  A    between atoms: O3_10  and  C8_11
REMARK    7  A    between atoms: C10_13  and  O7_24
REMARK    8  A    between atoms: C15_19  and  O6_23
REMARK                            x       y       z     vdW  Elec       q    Type
REMARK                         _______ _______ _______ _____ _____    ______ ____
ROOT
ATOM      6  C   UNL     1       2.417  -2.707  -0.037  0.00  0.00    +0.171 A 
ATOM      7  C   UNL     1       1.732  -2.035   0.932  0.00  0.00    -0.067 A 
ATOM     10  C   UNL     1       1.765  -0.618   0.955  0.00  0.00    +0.408 A 
ATOM     11  C   UNL     1       2.553   0.059  -0.091  0.00  0.00    -0.230 A 
ATOM     12  C   UNL     1       2.641   1.451  -0.145  0.00  0.00    +0.140 A 
ATOM     13  C   UNL     1       3.380   2.046  -1.127  0.00  0.00    -0.025 A 
ATOM     14  C   UNL     1       4.045   1.271  -2.075  0.00  0.00    +0.178 A 
ATOM     17  C   UNL     1       3.968  -0.111  -2.035  0.00  0.00    -0.018 A 
ATOM     18  C   UNL     1       3.221  -0.730  -1.043  0.00  0.00    +0.164 A 
ATOM     19  O   UNL     1       1.164   0.017   1.807  0.00  0.00    -0.449 OA
ATOM     20  O   UNL     1       3.131  -2.075  -0.984  0.00  0.00    -0.206 OA
ENDROOT
BRANCH   6   5
ATOM      3  C   UNL     1       1.111  -6.227   0.060  0.00  0.00    +0.139 A 
ATOM      4  C   UNL     1       1.149  -4.845   0.068  0.00  0.00    -0.022 A 
ATOM      5  C   UNL     1       2.373  -4.180  -0.045  0.00  0.00    -0.003 A 
ATOM     21  C   UNL     1       3.555  -4.915  -0.172  0.00  0.00    -0.050 A 
ATOM     22  C   UNL     1       3.511  -6.297  -0.174  0.00  0.00    +0.137 A 
ATOM     25  C   UNL     1       2.291  -6.956  -0.061  0.00  0.00    +0.068 A 
BRANCH   3   2
ATOM      1  C   UNL     1      -1.250  -6.064   0.290  0.00  0.00    +0.250 C 
ATOM      2  O   UNL     1      -0.080  -6.875   0.170  0.00  0.00    -0.298 OA
ENDBRANCH   3   2
BRANCH  22  23
ATOM     23  O   UNL     1       4.662  -7.013  -0.292  0.00  0.00    -0.299 OA
ATOM     24  C   UNL     1       5.878  -6.272  -0.404  0.00  0.00    +0.248 C 
ENDBRANCH  22  23
BRANCH  25  26
ATOM     26  O   UNL     1       2.250  -8.316  -0.070  0.00  0.00    -0.470 OA
ATOM     27  H   UNL     1       2.153  -8.701  -0.951  0.00  0.00    +0.388 HD
ENDBRANCH  25  26
ENDBRANCH   6   5
BRANCH   7   8
ATOM      8  O   UNL     1       1.023  -2.720   1.871  0.00  0.00    -0.456 OA
ATOM      9  H   UNL     1       1.532  -2.942   2.663  0.00  0.00    +0.389 HD
ENDBRANCH   7   8
BRANCH  14  15
ATOM     15  O   UNL     1       4.781   1.877  -3.042  0.00  0.00    -0.490 OA
ATOM     16  H   UNL     1       4.284   2.077  -3.847  0.00  0.00    +0.404 HD
ENDBRANCH  14  15
TORSDOF 6
