REMARK  Name = ZINC85618313
REMARK  5 active torsions:
REMARK  status: ('A' for Active; 'I' for Inactive)
REMARK    1  A    between atoms: C1_1  and  O1_2
REMARK    2  A    between atoms: O1_2  and  C2_3
REMARK    3  A    between atoms: C7_8  and  O2_9
REMARK    4  A    between atoms: O2_9  and  C8_10
REMARK    5  A    between atoms: C9_11  and  C15_22
REMARK                            x       y       z     vdW  Elec       q    Type
REMARK                         _______ _______ _______ _____ _____    ______ ____
ROOT
ATOM      3  C   UNL     1       0.612  -1.038  -0.832  0.00  0.00    +0.107 A 
ATOM      4  C   UNL     1       1.073  -0.155  -1.791  0.00  0.00    -0.034 A 
ATOM      5  C   UNL     1       1.691  -0.622  -2.943  0.00  0.00    -0.075 A 
ATOM      6  C   UNL     1       1.854  -1.979  -3.131  0.00  0.00    -0.071 A 
ATOM      7  C   UNL     1       2.550  -2.564  -4.345  0.00  0.00    +0.135 C 
ATOM     17  C   UNL     1       3.359  -1.458  -4.992  0.00  0.00    -0.026 C 
ATOM     18  C   UNL     1       2.351  -0.298  -5.281  0.00  0.00    -0.023 C 
ATOM     19  C   UNL     1       3.184   0.471  -6.317  0.00  0.00    +0.263 C 
ATOM     20  O   UNL     1       3.825  -0.579  -7.078  0.00  0.00    -0.351 OA
ATOM     21  C   UNL     1       3.911  -1.740  -6.359  0.00  0.00    +0.498 C 
ATOM     22  O   UNL     1       4.337  -2.802  -6.747  0.00  0.00    -0.435 OA
ATOM     23  C   UNL     1       1.385  -2.869  -2.175  0.00  0.00    -0.023 A 
ATOM     24  C   UNL     1       2.151   0.410  -3.954  0.00  0.00    +0.117 C 
ATOM     25  C   UNL     1       0.771  -2.407  -1.025  0.00  0.00    +0.104 A 
ENDROOT
BRANCH   7   8
ATOM      8  C   UNL     1       1.526  -3.085  -5.319  0.00  0.00    -0.083 A 
ATOM      9  C   UNL     1       1.818  -4.184  -6.106  0.00  0.00    +0.058 A 
ATOM     10  C   UNL     1       0.881  -4.666  -7.001  0.00  0.00    +0.041 A 
ATOM     11  C   UNL     1      -0.354  -4.049  -7.111  0.00  0.00    +0.036 A 
ATOM     12  C   UNL     1      -0.649  -2.943  -6.318  0.00  0.00    +0.030 A 
ATOM     13  O   UNL     1      -1.914  -2.521  -6.611  0.00  0.00    -0.308 OA
ATOM     14  C   UNL     1      -2.238  -3.126  -7.876  0.00  0.00    +0.431 C 
ATOM     15  O   UNL     1      -1.434  -4.321  -7.900  0.00  0.00    -0.308 OA
ATOM     16  C   UNL     1       0.293  -2.468  -5.419  0.00  0.00    +0.048 A 
ENDBRANCH   7   8
BRANCH   3   2
ATOM      1  C   UNL     1      -0.115   0.846   0.423  0.00  0.00    +0.239 C 
ATOM      2  O   UNL     1       0.012  -0.571   0.295  0.00  0.00    -0.305 OA
ENDBRANCH   3   2
BRANCH  25  26
ATOM     26  O   UNL     1       0.321  -3.286  -0.090  0.00  0.00    -0.305 OA
ATOM     27  C   UNL     1       0.519  -4.676  -0.357  0.00  0.00    +0.239 C 
ENDBRANCH  25  26
TORSDOF 3
