REMARK  Name = ZINC13378640
REMARK  13 active torsions:
REMARK  status: ('A' for Active; 'I' for Inactive)
REMARK    1  A    between atoms: C1_1  and  C2_2
REMARK    2  A    between atoms: C2_2  and  C25_33
REMARK    3  A    between atoms: C3_3  and  C4_4
REMARK    4  A    between atoms: C4_4  and  C5_5
REMARK    5  A    between atoms: C5_5  and  C6_6
REMARK    6  A    between atoms: C6_6  and  C24_32
REMARK    7  A    between atoms: C7_7  and  C8_8
REMARK    8  A    between atoms: C8_8  and  C9_9
REMARK    9  A    between atoms: C10_10  and  O6_31
REMARK   10  A    between atoms: C14_14  and  O1_15
REMARK   11  A    between atoms: C16_18  and  O5_30
REMARK   12  A    between atoms: C17_20  and  C18_23
REMARK   13  A    between atoms: C21_26  and  O4_29
REMARK                            x       y       z     vdW  Elec       q    Type
REMARK                         _______ _______ _______ _____ _____    ______ ____
ROOT
ATOM     11  C   UNL     1      -3.878   1.537   2.614  0.00  0.00    -0.171 A 
ATOM     12  C   UNL     1      -4.511   0.462   3.227  0.00  0.00    +0.200 A 
ATOM     15  C   UNL     1      -5.886   0.296   3.123  0.00  0.00    -0.044 A 
ATOM     16  C   UNL     1      -6.644   1.203   2.404  0.00  0.00    +0.203 A 
ATOM     17  C   UNL     1      -6.006   2.289   1.777  0.00  0.00    -0.289 A 
ATOM     18  C   UNL     1      -6.813   3.240   1.005  0.00  0.00    +0.371 C 
ATOM     19  C   UNL     1      -8.319   3.148   1.174  0.00  0.00    +0.148 C 
ATOM     22  C   UNL     1      -8.679   1.656   1.230  0.00  0.00    +0.252 C 
ATOM     31  O   UNL     1      -6.303   4.059   0.268  0.00  0.00    -0.420 OA
ATOM     32  O   UNL     1      -7.986   1.043   2.317  0.00  0.00    -0.289 OA
ATOM     33  C   UNL     1      -4.617   2.458   1.894  0.00  0.00    +0.227 A 
ENDROOT
BRANCH  22  23
ATOM     23  C   UNL     1     -10.165   1.504   1.431  0.00  0.00    -0.096 A 
ATOM     24  C   UNL     1     -10.708   1.642   2.695  0.00  0.00    +0.055 A 
ATOM     25  C   UNL     1     -12.070   1.509   2.881  0.00  0.00    -0.015 A 
ATOM     26  C   UNL     1     -12.892   1.226   1.800  0.00  0.00    +0.118 A 
ATOM     29  C   UNL     1     -12.344   1.083   0.533  0.00  0.00    -0.012 A 
ATOM     30  C   UNL     1     -10.982   1.222   0.352  0.00  0.00    +0.064 A 
BRANCH  26  27
ATOM     27  O   UNL     1     -14.232   1.089   1.981  0.00  0.00    -0.499 OA
ATOM     28  H   UNL     1     -14.512   0.185   2.178  0.00  0.00    +0.394 HD
ENDBRANCH  26  27
ENDBRANCH  22  23
BRANCH  12  13
ATOM     13  O   UNL     1      -3.778  -0.435   3.933  0.00  0.00    -0.485 OA
ATOM     14  H   UNL     1      -3.679  -0.212   4.869  0.00  0.00    +0.402 HD
ENDBRANCH  12  13
BRANCH  19  20
ATOM     20  O   UNL     1      -8.972   3.765   0.063  0.00  0.00    -0.534 OA
ATOM     21  H   UNL     1      -8.759   4.701  -0.049  0.00  0.00    +0.396 HD
ENDBRANCH  19  20
BRANCH  33  34
ATOM     34  O   UNL     1      -4.005   3.512   1.302  0.00  0.00    -0.475 OA
ATOM     35  H   UNL     1      -3.710   3.339   0.397  0.00  0.00    +0.402 HD
ENDBRANCH  33  34
BRANCH  11  10
ATOM     10  C   UNL     1      -2.385   1.703   2.740  0.00  0.00    +0.129 C 
BRANCH  10   9
ATOM      7  C   UNL     1      -0.850   1.617   0.844  0.00  0.00    -0.123 C 
ATOM      8  C   UNL     1      -0.451   3.032   1.176  0.00  0.00    +0.075 C 
ATOM      9  C   UNL     1      -1.702   0.980   1.608  0.00  0.00    -0.048 C 
BRANCH   7   6
ATOM      6  C   UNL     1      -0.268   0.936  -0.368  0.00  0.00    +0.059 C 
BRANCH   6   5
ATOM      5  C   UNL     1      -1.092   1.303  -1.604  0.00  0.00    +0.053 C 
BRANCH   5   4
ATOM      1  C   UNL     1      -2.711  -0.365  -3.200  0.00  0.00    +0.071 C 
ATOM      2  C   UNL     1      -1.249  -0.195  -3.526  0.00  0.00    -0.131 C 
ATOM      3  C   UNL     1      -0.638  -0.963  -4.670  0.00  0.00    +0.072 C 
ATOM      4  C   UNL     1      -0.510   0.621  -2.816  0.00  0.00    -0.062 C 
ENDBRANCH   5   4
ENDBRANCH   6   5
ENDBRANCH   7   6
ENDBRANCH  10   9
ENDBRANCH  11  10
TORSDOF 10
