REMARK  Name = ZINC95486237
REMARK  22 active torsions:
REMARK  status: ('A' for Active; 'I' for Inactive)
REMARK    1  A    between atoms: C1_1  and  C2_2
REMARK    2  A    between atoms: C1_1  and  C12_23
REMARK    3  A    between atoms: C2_2  and  C3_3
REMARK    4  A    between atoms: C3_3  and  C4_4
REMARK    5  A    between atoms: C4_4  and  C5_5
REMARK    6  A    between atoms: C5_5  and  O1_6
REMARK    7  A    between atoms: O1_6  and  C6_7
REMARK    8  A    between atoms: C7_9  and  O6_22
REMARK    9  A    between atoms: C8_11  and  O5_21
REMARK   10  A    between atoms: C9_13  and  O4_20
REMARK   11  A    between atoms: C10_15  and  C11_18
REMARK   12  A    between atoms: C11_18  and  O3_19
REMARK   13  A    between atoms: C12_23  and  C13_24
REMARK   14  A    between atoms: C13_24  and  C14_25
REMARK   15  A    between atoms: C14_25  and  C15_26
REMARK   16  A    between atoms: C15_26  and  C16_28
REMARK   17  A    between atoms: C16_28  and  C17_29
REMARK   18  A    between atoms: C17_29  and  C18_30
REMARK   19  A    between atoms: C18_30  and  C19_31
REMARK   20  A    between atoms: C19_31  and  C20_32
REMARK   21  A    between atoms: C20_32  and  C21_33
REMARK   22  A    between atoms: C21_33  and  C22_34
REMARK                            x       y       z     vdW  Elec       q    Type
REMARK                         _______ _______ _______ _____ _____    ______ ____
ROOT
ATOM     18  C   UNL     1      -1.413  -2.063   0.004  0.00  0.00    +0.024 C 
ENDROOT
BRANCH  18  17
ATOM     17  C   UNL     1      -1.433  -0.534   0.013  0.00  0.00    +0.012 C 
BRANCH  17  16
ATOM     16  C   UNL     1       0.002  -0.004   0.002  0.00  0.00    +0.007 C 
BRANCH  16   1
ATOM      1  C   UNL     1      -0.019   1.526   0.010  0.00  0.00    +0.004 C 
BRANCH   1   2
ATOM      2  C   UNL     1       1.417   2.055  -0.000  0.00  0.00    +0.004 C 
BRANCH   2   3
ATOM      3  C   UNL     1       1.396   3.585   0.008  0.00  0.00    +0.021 C 
BRANCH   3   4
ATOM      4  C   UNL     1       2.831   4.115  -0.003  0.00  0.00    +0.020 C 
BRANCH   4   5
ATOM      5  C   UNL     1       2.811   5.622   0.005  0.00  0.00    +0.352 C 
ATOM     15  O   UNL     1       1.757   6.211   0.019  0.00  0.00    -0.452 OA
BRANCH   5   6
ATOM      6  C   UNL     1       4.106   6.393  -0.003  0.00  0.00    +0.021 C 
BRANCH   6   7
ATOM      7  C   UNL     1       3.806   7.893   0.008  0.00  0.00    +0.019 C 
BRANCH   7   8
ATOM      8  C   UNL     1       5.120   8.676  -0.000  0.00  0.00    +0.003 C 
BRANCH   8   9
ATOM      9  C   UNL     1       4.820  10.176   0.011  0.00  0.00    -0.011 C 
BRANCH   9  10
ATOM     10  C   UNL     1       6.135  10.959   0.002  0.00  0.00    +0.022 C 
BRANCH  10  11
ATOM     11  C   UNL     1       5.835  12.460   0.013  0.00  0.00    -0.076 C 
BRANCH  11  12
ATOM     12  C   UNL     1       7.129  13.231   0.005  0.00  0.00    +0.487 C 
ATOM     13  O   UNL     1       7.113  14.450   0.012  0.00  0.00    -0.710 OA
ATOM     14  O   UNL     1       8.193  12.636  -0.008  0.00  0.00    -0.700 OA
ENDBRANCH  11  12
ENDBRANCH  10  11
ENDBRANCH   9  10
ENDBRANCH   8   9
ENDBRANCH   7   8
ENDBRANCH   6   7
ENDBRANCH   5   6
ENDBRANCH   4   5
ENDBRANCH   3   4
ENDBRANCH   2   3
ENDBRANCH   1   2
ENDBRANCH  16   1
ENDBRANCH  17  16
ENDBRANCH  18  17
BRANCH  18  19
ATOM     19  C   UNL     1      -2.848  -2.593   0.015  0.00  0.00    +0.178 C 
BRANCH  19  20
ATOM     20  O   UNL     1      -2.829  -4.022   0.007  0.00  0.00    -0.366 OA
BRANCH  20  21
ATOM     21  C   UNL     1      -4.126  -4.621   0.017  0.00  0.00    +0.286 C 
ATOM     22  C   UNL     1      -3.988  -6.140  -0.118  0.00  0.00    +0.137 C 
ATOM     25  C   UNL     1      -5.378  -6.779  -0.047  0.00  0.00    +0.164 C 
ATOM     28  C   UNL     1      -6.049  -6.370   1.268  0.00  0.00    +0.177 C 
ATOM     31  C   UNL     1      -6.108  -4.843   1.349  0.00  0.00    +0.190 C 
ATOM     35  O   UNL     1      -4.785  -4.311   1.246  0.00  0.00    -0.373 OA
BRANCH  22  23
ATOM     23  O   UNL     1      -3.175  -6.641   0.945  0.00  0.00    -0.540 OA
ATOM     24  H   UNL     1      -2.281  -6.275   0.963  0.00  0.00    +0.388 HD
ENDBRANCH  22  23
BRANCH  25  26
ATOM     26  O   UNL     1      -5.253  -8.201  -0.100  0.00  0.00    -0.548 OA
ATOM     27  H   UNL     1      -4.830  -8.529  -0.905  0.00  0.00    +0.386 HD
ENDBRANCH  25  26
BRANCH  28  29
ATOM     29  O   UNL     1      -7.375  -6.903   1.313  0.00  0.00    -0.557 OA
ATOM     30  H   UNL     1      -7.413  -7.868   1.262  0.00  0.00    +0.393 HD
ENDBRANCH  28  29
BRANCH  31  32
ATOM     32  C   UNL     1      -6.723  -4.426   2.687  0.00  0.00    +0.223 C 
BRANCH  32  33
ATOM     33  O   UNL     1      -6.884  -3.006   2.715  0.00  0.00    -0.568 OA
ATOM     34  H   UNL     1      -7.270  -2.671   3.536  0.00  0.00    +0.384 HD
ENDBRANCH  32  33
ENDBRANCH  31  32
ENDBRANCH  20  21
ENDBRANCH  19  20
ENDBRANCH  18  19
TORSDOF 22
