REMARK  Name = ZINC95485983
REMARK  8 active torsions:
REMARK  status: ('A' for Active; 'I' for Inactive)
REMARK    1  A    between atoms: C1_1  and  C2_2
REMARK    2  A    between atoms: C2_2  and  O2_4
REMARK    3  A    between atoms: O2_4  and  C3_5
REMARK    4  A    between atoms: C6_9  and  C7_10
REMARK    5  A    between atoms: C7_10  and  C8_11
REMARK    6  A    between atoms: C14_19  and  C21_26
REMARK    7  A    between atoms: C18_23  and  C19_24
REMARK    8  A    between atoms: C18_23  and  C20_25
REMARK                            x       y       z     vdW  Elec       q    Type
REMARK                         _______ _______ _______ _____ _____    ______ ____
ROOT
ATOM     10  C   UNL     1       1.476  -2.111  -4.600  0.00  0.00    +0.038 C 
ATOM     11  C   UNL     1       2.200  -3.389  -4.265  0.00  0.00    -0.105 C 
ATOM     12  C   UNL     1       3.705  -3.347  -4.414  0.00  0.00    +0.044 C 
ATOM     13  C   UNL     1       4.018  -2.906  -5.846  0.00  0.00    +0.016 C 
ATOM     14  C   UNL     1       3.343  -1.573  -6.202  0.00  0.00    +0.018 C 
ATOM     15  C   UNL     1       3.759  -1.214  -7.629  0.00  0.00    -0.053 C 
ATOM     16  C   UNL     1       5.291  -1.362  -7.775  0.00  0.00    +0.012 C 
ATOM     17  C   UNL     1       3.456   0.240  -7.995  0.00  0.00    +0.022 C 
ATOM     18  C   UNL     1       3.117  -2.160  -8.641  0.00  0.00    +0.010 C 
ATOM     19  C   UNL     1       1.607  -2.237  -8.464  0.00  0.00    +0.000 C 
ATOM     20  C   UNL     1       1.261  -2.677  -7.040  0.00  0.00    +0.018 C 
ATOM     21  C   UNL     1       1.575  -4.464  -3.868  0.00  0.00    -0.011 C 
ATOM     22  C   UNL     1       1.830  -1.682  -6.033  0.00  0.00    -0.032 C 
ATOM     23  C   UNL     1       1.130  -0.327  -6.215  0.00  0.00    +0.020 C 
ENDROOT
BRANCH  10   9
ATOM      9  C   UNL     1      -0.031  -2.292  -4.444  0.00  0.00    +0.115 C 
BRANCH   9   8
ATOM      4  C   UNL     1      -0.355  -1.530  -1.967  0.00  0.00    -0.010 A 
ATOM      5  C   UNL     1      -0.718  -2.155  -0.828  0.00  0.00    +0.160 A 
ATOM      6  O   UNL     1      -0.938  -3.452  -1.109  0.00  0.00    -0.165 OA
ATOM      7  C   UNL     1      -0.720  -3.672  -2.416  0.00  0.00    +0.187 A 
ATOM      8  C   UNL     1      -0.363  -2.509  -2.990  0.00  0.00    -0.162 A 
BRANCH   4   3
ATOM      3  O   UNL     1      -0.045  -0.212  -2.106  0.00  0.00    -0.255 OA
BRANCH   3   2
ATOM      1  C   UNL     1       0.489   1.971  -1.085  0.00  0.00    +0.178 C 
ATOM      2  C   UNL     1       0.027   0.539  -0.997  0.00  0.00    +0.458 C 
ATOM     24  O   UNL     1      -0.279   0.066   0.076  0.00  0.00    -0.502 OA
ENDBRANCH   3   2
ENDBRANCH   4   3
ENDBRANCH   9   8
ENDBRANCH  10   9
TORSDOF 4
