REMARK  Name = ZINC00113319
REMARK  6 active torsions:
REMARK  status: ('A' for Active; 'I' for Inactive)
REMARK    1  A    between atoms: C1_1  and  O1_2
REMARK    2  A    between atoms: O1_2  and  C2_3
REMARK    3  A    between atoms: C7_8  and  O2_9
REMARK    4  A    between atoms: O2_9  and  C8_10
REMARK    5  A    between atoms: C11_15  and  O3_17
REMARK    6  A    between atoms: O3_17  and  C12_18
REMARK                            x       y       z     vdW  Elec       q    Type
REMARK                         _______ _______ _______ _____ _____    ______ ____
ROOT
ATOM      3  C   UNL     1      -1.506   0.051   0.528  0.00  0.00    +0.126 A 
ATOM      4  C   UNL     1      -2.760   0.616   0.351  0.00  0.00    -0.059 A 
ATOM      5  C   UNL     1      -3.880  -0.189   0.248  0.00  0.00    +0.099 A 
ATOM      6  C   UNL     1      -3.760  -1.562   0.320  0.00  0.00    -0.160 A 
ATOM      7  C   UNL     1      -2.504  -2.143   0.495  0.00  0.00    +0.131 A 
ATOM      8  N   UNL     1      -2.369  -3.511   0.558  0.00  0.00    -0.460 NA
ATOM      9  C   UNL     1      -3.346  -4.253   0.164  0.00  0.00    +0.353 C 
ATOM     10  C   UNL     1      -4.612  -3.723  -0.503  0.00  0.00    -0.001 C 
ATOM     11  C   UNL     1      -5.596  -4.830  -0.190  0.00  0.00    -0.073 C 
ATOM     12  C   UNL     1      -4.869  -5.848   0.237  0.00  0.00    +0.237 C 
ATOM     13  O   UNL     1      -3.539  -5.581   0.206  0.00  0.00    -0.231 OA
ATOM     14  C   UNL     1      -4.996  -2.426   0.210  0.00  0.00    +0.243 C 
ATOM     17  C   UNL     1      -1.371  -1.330   0.596  0.00  0.00    +0.093 A 
ENDROOT
BRANCH   3   2
ATOM      1  C   UNL     1      -0.622   2.258   0.553  0.00  0.00    +0.245 C 
ATOM      2  O   UNL     1      -0.409   0.847   0.631  0.00  0.00    -0.302 OA
ENDBRANCH   3   2
BRANCH  14  15
ATOM     15  O   UNL     1      -5.998  -1.740  -0.543  0.00  0.00    -0.367 OA
ATOM     16  C   UNL     1      -7.333  -1.992  -0.099  0.00  0.00    +0.210 C 
ENDBRANCH  14  15
BRANCH  17  18
ATOM     18  O   UNL     1      -0.143  -1.889   0.765  0.00  0.00    -0.311 OA
ATOM     19  C   UNL     1       0.291  -2.108   2.108  0.00  0.00    +0.227 C 
ENDBRANCH  17  18
TORSDOF 3
