REMARK  Name = ZINC03869685
REMARK  6 active torsions:
REMARK  status: ('A' for Active; 'I' for Inactive)
REMARK    1  A    between atoms: C3_3  and  O7_22
REMARK    2  A    between atoms: C4_4  and  O6_21
REMARK    3  A    between atoms: C6_6  and  C7_7
REMARK    4  A    between atoms: C8_8  and  O5_20
REMARK    5  A    between atoms: C11_12  and  O4_19
REMARK    6  A    between atoms: C13_14  and  O3_18
REMARK                            x       y       z     vdW  Elec       q    Type
REMARK                         _______ _______ _______ _____ _____    ______ ____
ROOT
ATOM     11  C   UNL     1      -1.264  -0.760   0.010  0.00  0.00    +0.135 A 
ATOM     12  C   UNL     1      -2.436  -0.076   0.124  0.00  0.00    -0.043 A 
ATOM     15  C   UNL     1      -3.663  -0.789   0.133  0.00  0.00    +0.401 A 
ATOM     16  C   UNL     1      -3.595  -2.255   0.017  0.00  0.00    -0.269 A 
ATOM     17  C   UNL     1      -4.756  -3.039   0.017  0.00  0.00    +0.224 A 
ATOM     20  C   UNL     1      -4.650  -4.412  -0.094  0.00  0.00    -0.057 A 
ATOM     21  C   UNL     1      -3.399  -5.010  -0.204  0.00  0.00    +0.200 A 
ATOM     24  C   UNL     1      -2.246  -4.242  -0.205  0.00  0.00    -0.029 A 
ATOM     25  C   UNL     1      -2.332  -2.862  -0.095  0.00  0.00    +0.188 A 
ATOM     26  O   UNL     1      -4.733  -0.210   0.232  0.00  0.00    -0.448 OA
ATOM     27  O   UNL     1      -1.218  -2.099  -0.100  0.00  0.00    -0.197 OA
ENDROOT
BRANCH  11  10
ATOM      1  C   UNL     1       0.974  -0.276  -0.964  0.00  0.00    +0.063 A 
ATOM      2  C   UNL     1       2.157   0.433  -0.970  0.00  0.00    +0.008 A 
ATOM      3  C   UNL     1       2.386   1.416  -0.018  0.00  0.00    +0.103 A 
ATOM      6  C   UNL     1       1.420   1.692   0.950  0.00  0.00    +0.079 A 
ATOM      9  C   UNL     1       0.233   0.986   0.962  0.00  0.00    +0.067 A 
ATOM     10  C   UNL     1       0.002  -0.004   0.002  0.00  0.00    -0.045 A 
BRANCH   3   4
ATOM      4  O   UNL     1       3.553   2.110  -0.027  0.00  0.00    -0.486 OA
ATOM      5  H   UNL     1       3.529   2.914  -0.565  0.00  0.00    +0.392 HD
ENDBRANCH   3   4
BRANCH   6   7
ATOM      7  O   UNL     1       1.648   2.656   1.882  0.00  0.00    -0.484 OA
ATOM      8  H   UNL     1       1.351   3.537   1.617  0.00  0.00    +0.391 HD
ENDBRANCH   6   7
ENDBRANCH  11  10
BRANCH  12  13
ATOM     13  O   UNL     1      -2.431   1.281   0.228  0.00  0.00    -0.450 OA
ATOM     14  H   UNL     1      -3.312   1.673   0.303  0.00  0.00    +0.408 HD
ENDBRANCH  12  13
BRANCH  17  18
ATOM     18  O   UNL     1      -5.976  -2.454   0.126  0.00  0.00    -0.473 OA
ATOM     19  H   UNL     1      -6.375  -2.216  -0.722  0.00  0.00    +0.404 HD
ENDBRANCH  17  18
BRANCH  21  22
ATOM     22  O   UNL     1      -3.307  -6.361  -0.313  0.00  0.00    -0.487 OA
ATOM     23  H   UNL     1      -3.326  -6.684  -1.224  0.00  0.00    +0.405 HD
ENDBRANCH  21  22
TORSDOF 6
