REMARK  Name = ZINC95486265
REMARK  5 active torsions:
REMARK  status: ('A' for Active; 'I' for Inactive)
REMARK    1  A    between atoms: C3_3  and  O5_21
REMARK    2  A    between atoms: C4_4  and  O4_20
REMARK    3  A    between atoms: C6_6  and  C7_7
REMARK    4  A    between atoms: C13_14  and  O3_18
REMARK    5  A    between atoms: C15_16  and  O2_17
REMARK                            x       y       z     vdW  Elec       q    Type
REMARK                         _______ _______ _______ _____ _____    ______ ____
ROOT
ATOM     11  C   UNL     1      -1.259  -0.758   0.011  0.00  0.00    -0.006 C 
ATOM     12  C   UNL     1      -1.553  -1.512  -1.063  0.00  0.00    -0.053 C 
ATOM     13  C   UNL     1      -2.812  -2.261  -1.105  0.00  0.00    +0.427 C 
ATOM     14  C   UNL     1      -3.872  -1.880  -0.151  0.00  0.00    -0.202 A 
ATOM     15  C   UNL     1      -3.549  -1.091   0.955  0.00  0.00    -0.004 A 
ATOM     16  C   UNL     1      -4.545  -0.725   1.837  0.00  0.00    -0.026 A 
ATOM     17  C   UNL     1      -5.856  -1.143   1.632  0.00  0.00    +0.162 A 
ATOM     20  C   UNL     1      -6.179  -1.934   0.539  0.00  0.00    -0.046 A 
ATOM     21  C   UNL     1      -5.191  -2.307  -0.356  0.00  0.00    +0.190 A 
ATOM     24  O   UNL     1      -2.978  -3.168  -1.902  0.00  0.00    -0.437 OA
ATOM     25  C   UNL     1      -2.137  -0.648   1.214  0.00  0.00    +0.169 C 
ENDROOT
BRANCH  11  10
ATOM      1  C   UNL     1      -0.017   1.395   0.010  0.00  0.00    +0.044 A 
ATOM      2  C   UNL     1       1.167   2.100   0.002  0.00  0.00    +0.011 A 
ATOM      3  C   UNL     1       2.380   1.425  -0.014  0.00  0.00    +0.090 A 
ATOM      6  C   UNL     1       2.408   0.031  -0.021  0.00  0.00    +0.084 A 
ATOM      9  C   UNL     1       1.227  -0.684  -0.014  0.00  0.00    +0.027 A 
ATOM     10  C   UNL     1       0.002  -0.004   0.002  0.00  0.00    -0.064 A 
BRANCH   3   4
ATOM      4  O   UNL     1       3.544   2.125  -0.022  0.00  0.00    -0.486 OA
ATOM      5  H   UNL     1       3.890   2.324   0.859  0.00  0.00    +0.390 HD
ENDBRANCH   3   4
BRANCH   6   7
ATOM      7  O   UNL     1       3.599  -0.626  -0.037  0.00  0.00    -0.486 OA
ATOM      8  H   UNL     1       3.952  -0.820   0.842  0.00  0.00    +0.390 HD
ENDBRANCH   6   7
ENDBRANCH  11  10
BRANCH  17  18
ATOM     18  O   UNL     1      -6.825  -0.774   2.508  0.00  0.00    -0.495 OA
ATOM     19  H   UNL     1      -7.262   0.058   2.283  0.00  0.00    +0.400 HD
ENDBRANCH  17  18
BRANCH  21  22
ATOM     22  O   UNL     1      -5.499  -3.081  -1.427  0.00  0.00    -0.481 OA
ATOM     23  H   UNL     1      -5.428  -4.030  -1.260  0.00  0.00    +0.403 HD
ENDBRANCH  21  22
TORSDOF 5
