REMARK  Name = ZINC95486084
REMARK  12 active torsions:
REMARK  status: ('A' for Active; 'I' for Inactive)
REMARK    1  A    between atoms: C1_1  and  C2_2
REMARK    2  A    between atoms: C2_2  and  C21_24
REMARK    3  A    between atoms: C7_7  and  C8_9
REMARK    4  A    between atoms: C14_15  and  C16_19
REMARK    5  A    between atoms: C16_19  and  C17_20
REMARK    6  A    between atoms: C16_19  and  C18_21
REMARK    7  A    between atoms: C16_19  and  C19_22
REMARK    8  A    between atoms: C22_25  and  C23_26
REMARK    9  A    between atoms: C29_32  and  C31_36
REMARK   10  A    between atoms: C31_36  and  C32_37
REMARK   11  A    between atoms: C31_36  and  C33_38
REMARK   12  A    between atoms: C31_36  and  C34_39
REMARK                            x       y       z     vdW  Elec       q    Type
REMARK                         _______ _______ _______ _____ _____    ______ ____
ROOT
ATOM      1  C   UNL     1       0.894   3.367   0.420  0.00  0.00    +0.032 C 
ATOM      2  C   UNL     1       1.341   1.907   0.319  0.00  0.00    -0.016 C 
ATOM     20  C   UNL     1       2.299   1.742  -0.868  0.00  0.00    +0.026 C 
ATOM     21  C   UNL     1       3.415   2.781  -0.737  0.00  0.00    +0.053 C 
ATOM     22  C   UNL     1       3.993   2.747   0.648  0.00  0.00    -0.053 C 
ATOM     23  C   UNL     1       3.410   2.196   1.664  0.00  0.00    -0.039 C 
ATOM     24  C   UNL     1       2.079   1.505   1.597  0.00  0.00    +0.089 C 
ENDROOT
BRANCH  24  25
ATOM     25  C   UNL     1       1.253   1.896   2.795  0.00  0.00    -0.121 A 
ATOM     26  C   UNL     1       0.568   0.931   3.510  0.00  0.00    +0.054 A 
ATOM     27  C   UNL     1      -0.189   1.285   4.606  0.00  0.00    -0.070 A 
ATOM     28  C   UNL     1      -0.269   2.621   5.004  0.00  0.00    +0.198 A 
ATOM     29  C   UNL     1       0.422   3.581   4.282  0.00  0.00    -0.159 A 
ATOM     30  C   UNL     1       0.172   4.932   4.914  0.00  0.00    +0.052 C 
ATOM     36  C   UNL     1      -0.758   4.635   6.102  0.00  0.00    +0.253 C 
ATOM     37  N   UNL     1      -0.970   3.186   6.071  0.00  0.00    -0.746 N 
ATOM     38  H   UNL     1      -1.517   2.691   6.700  0.00  0.00    +0.410 HD
ATOM     39  C   UNL     1       1.184   3.220   3.187  0.00  0.00    +0.074 A 
BRANCH  30  31
ATOM     31  C   UNL     1       1.486   5.545   5.401  0.00  0.00    -0.023 C 
ATOM     34  C   UNL     1       2.126   4.621   6.438  0.00  0.00    +0.033 C 
ATOM     35  C   UNL     1       1.207   6.909   6.035  0.00  0.00    +0.029 C 
BRANCH  31  32
ATOM     32  C   UNL     1       2.423   5.716   4.233  0.00  0.00    -0.030 C 
ATOM     33  C   UNL     1       2.861   6.909   3.915  0.00  0.00    -0.003 C 
ENDBRANCH  31  32
ENDBRANCH  30  31
ENDBRANCH  24  25
BRANCH   2   3
ATOM      3  C   UNL     1       0.136   1.021   0.130  0.00  0.00    -0.021 C 
ATOM      4  C   UNL     1      -1.078   1.554   0.076  0.00  0.00    +0.011 C 
BRANCH   4   5
ATOM      5  C   UNL     1      -2.257   0.686  -0.109  0.00  0.00    -0.001 A 
ATOM      6  C   UNL     1      -2.112  -0.697  -0.149  0.00  0.00    -0.022 A 
ATOM      7  C   UNL     1      -3.220  -1.509  -0.324  0.00  0.00    +0.029 A 
ATOM      8  C   UNL     1      -4.480  -0.966  -0.459  0.00  0.00    -0.019 A 
ATOM      9  C   UNL     1      -4.656   0.414  -0.423  0.00  0.00    +0.098 A 
ATOM     10  N   UNL     1      -5.761   1.230  -0.527  0.00  0.00    -0.596 N 
ATOM     11  H   UNL     1      -6.672   0.921  -0.656  0.00  0.00    +0.415 HD
ATOM     12  C   UNL     1      -5.385   2.539  -0.406  0.00  0.00    +0.217 A 
ATOM     13  C   UNL     1      -4.054   2.619  -0.239  0.00  0.00    -0.149 A 
ATOM     19  C   UNL     1      -3.541   1.250  -0.240  0.00  0.00    -0.087 A 
BRANCH  13  14
ATOM     14  C   UNL     1      -3.244   3.880  -0.082  0.00  0.00    +0.040 C 
ATOM     17  C   UNL     1      -2.568   3.883   1.291  0.00  0.00    +0.040 C 
ATOM     18  C   UNL     1      -4.166   5.095  -0.199  0.00  0.00    +0.033 C 
BRANCH  14  15
ATOM     15  C   UNL     1      -2.193   3.940  -1.160  0.00  0.00    -0.026 C 
ATOM     16  C   UNL     1      -2.031   5.038  -1.855  0.00  0.00    -0.004 C 
ENDBRANCH  14  15
ENDBRANCH  13  14
ENDBRANCH   4   5
ENDBRANCH   2   3
TORSDOF 7
