REMARK  Name = ZINC32263928
REMARK  10 active torsions:
REMARK  status: ('A' for Active; 'I' for Inactive)
REMARK    1  A    between atoms: C1_1  and  C2_2
REMARK    2  A    between atoms: C2_2  and  C3_3
REMARK    3  A    between atoms: C2_2  and  C4_4
REMARK    4  A    between atoms: C2_2  and  O4_26
REMARK    5  A    between atoms: C4_4  and  C5_6
REMARK    6  A    between atoms: C4_4  and  O3_25
REMARK    7  A    between atoms: C5_6  and  O1_7
REMARK    8  A    between atoms: O1_7  and  C6_8
REMARK    9  A    between atoms: C9_11  and  C12_14
REMARK   10  A    between atoms: C14_17  and  C15_19
REMARK                            x       y       z     vdW  Elec       q    Type
REMARK                         _______ _______ _______ _____ _____    ______ ____
ROOT
ATOM     10  C   UNL     1      -2.906  -3.910   0.108  0.00  0.00    +0.139 A 
ATOM     11  C   UNL     1      -1.800  -4.727   0.295  0.00  0.00    -0.078 A 
ATOM     12  C   UNL     1      -1.959  -6.095   0.382  0.00  0.00    +0.091 A 
ATOM     13  C   UNL     1      -3.231  -6.655   0.281  0.00  0.00    -0.057 A 
ATOM     25  C   UNL     1      -4.339  -5.831   0.092  0.00  0.00    +0.068 A 
ATOM     26  C   UNL     1      -4.175  -4.464   0.012  0.00  0.00    -0.012 A 
ENDROOT
BRANCH  13  14
ATOM     14  C   UNL     1      -3.405  -8.126   0.373  0.00  0.00    +0.042 A 
ATOM     15  C   UNL     1      -4.578  -8.802   0.286  0.00  0.00    +0.165 A 
ATOM     16  O   UNL     1      -4.292 -10.112   0.420  0.00  0.00    -0.192 OA
ATOM     17  C   UNL     1      -2.964 -10.230   0.585  0.00  0.00    +0.241 A 
ATOM     24  N   UNL     1      -2.425  -9.035   0.552  0.00  0.00    -0.460 NA
BRANCH  17  18
ATOM     18  C   UNL     1      -2.229 -11.500   0.770  0.00  0.00    -0.073 A 
ATOM     19  C   UNL     1      -2.912 -12.722   0.777  0.00  0.00    +0.099 A 
ATOM     20  C   UNL     1      -2.179 -13.882   0.953  0.00  0.00    -0.025 A 
ATOM     21  C   UNL     1      -0.807 -13.798   1.115  0.00  0.00    +0.283 A 
ATOM     22  N   UNL     1      -0.190 -12.632   1.104  0.00  0.00    -0.480 NA
ATOM     23  C   UNL     1      -0.844 -11.501   0.934  0.00  0.00    +0.324 A 
ENDBRANCH  17  18
ENDBRANCH  13  14
BRANCH  10   9
ATOM      9  O   UNL     1      -2.746  -2.563   0.023  0.00  0.00    -0.304 OA
BRANCH   9   8
ATOM      8  C   UNL     1      -1.413  -2.059   0.130  0.00  0.00    +0.176 C 
BRANCH   8   5
ATOM      5  C   UNL     1      -1.433  -0.534   0.013  0.00  0.00    +0.199 C 
BRANCH   5   2
ATOM      1  C   UNL     1      -0.019   1.526   0.010  0.00  0.00    +0.031 C 
ATOM      2  C   UNL     1       0.002  -0.004   0.002  0.00  0.00    +0.101 C 
ATOM     27  C   UNL     1       0.742  -0.511   1.242  0.00  0.00    +0.061 C 
BRANCH   2   3
ATOM      3  O   UNL     1       0.671  -0.465  -1.174  0.00  0.00    -0.554 OA
ATOM      4  H   UNL     1       0.256  -0.181  -1.999  0.00  0.00    +0.381 HD
ENDBRANCH   2   3
ENDBRANCH   5   2
BRANCH   5   6
ATOM      6  O   UNL     1      -2.137   0.021   1.126  0.00  0.00    -0.542 OA
ATOM      7  H   UNL     1      -1.747  -0.195   1.985  0.00  0.00    +0.375 HD
ENDBRANCH   5   6
ENDBRANCH   8   5
ENDBRANCH   9   8
ENDBRANCH  10   9
TORSDOF 8
