REMARK  Name = ZINC00001969
REMARK  5 active torsions:
REMARK  status: ('A' for Active; 'I' for Inactive)
REMARK    1  A    between atoms: C1_1  and  C2_2
REMARK    2  A    between atoms: C6_6  and  C14_18
REMARK    3  A    between atoms: C6_6  and  C15_19
REMARK    4  A    between atoms: C10_11  and  C13_16
REMARK    5  A    between atoms: C11_12  and  C12_14
REMARK                            x       y       z     vdW  Elec       q    Type
REMARK                         _______ _______ _______ _____ _____    ______ ____
ROOT
ATOM      1  C   UNL     1      -0.009   1.534   0.009  0.00  0.00    +0.036 C 
ATOM      2  C   UNL     1       0.010  -0.004   0.001  0.00  0.00    -0.028 C 
ATOM      3  C   UNL     1      -1.429  -0.515   0.055  0.00  0.00    +0.014 C 
ATOM      4  C   UNL     1      -2.053  -0.180   1.412  0.00  0.00    +0.011 C 
ATOM      5  C   UNL     1      -1.278  -0.926   2.495  0.00  0.00    +0.016 C 
ATOM      6  C   UNL     1       0.183  -0.481   2.522  0.00  0.00    -0.051 C 
ATOM      7  C   UNL     1       0.274   0.910   3.147  0.00  0.00    +0.026 C 
ATOM      8  C   UNL     1       0.928  -1.455   3.463  0.00  0.00    +0.016 C 
ATOM      9  C   UNL     1       0.654  -0.442  -1.324  0.00  0.00    +0.004 C 
ATOM     12  C   UNL     1       2.131  -0.177  -1.303  0.00  0.00    -0.216 C 
ATOM     15  C   UNL     1       2.824   0.063  -0.207  0.00  0.00    +0.071 C 
ATOM     16  C   UNL     1       2.215   0.111   1.167  0.00  0.00    +0.082 C 
ATOM     17  C   UNL     1       0.837  -0.558   1.154  0.00  0.00    +0.008 C 
ENDROOT
BRANCH   9  10
ATOM     10  C   UNL     1       0.427  -1.901  -1.602  0.00  0.00    +0.443 C 
ATOM     11  O   UNL     1      -0.161  -2.240  -2.600  0.00  0.00    -0.443 OA
ENDBRANCH   9  10
BRANCH  12  13
ATOM     13  C   UNL     1       2.845  -0.188  -2.580  0.00  0.00    +0.461 C 
ATOM     14  O   UNL     1       2.242  -0.405  -3.611  0.00  0.00    -0.449 OA
ENDBRANCH  12  13
TORSDOF 2
