REMARK  Name = ZINC95486315
REMARK  7 active torsions:
REMARK  status: ('A' for Active; 'I' for Inactive)
REMARK    1  A    between atoms: C1_1  and  C2_2
REMARK    2  A    between atoms: C2_2  and  C19_24
REMARK    3  A    between atoms: C10_12  and  C17_22
REMARK    4  A    between atoms: C13_15  and  O2_21
REMARK    5  A    between atoms: C14_17  and  C15_18
REMARK    6  A    between atoms: C14_17  and  C16_19
REMARK    7  A    between atoms: C16_19  and  O1_20
REMARK                            x       y       z     vdW  Elec       q    Type
REMARK                         _______ _______ _______ _____ _____    ______ ____
ROOT
ATOM      1  C   UNL     1      -0.039   1.505  -0.057  0.00  0.00    +0.029 C 
ATOM      2  C   UNL     1      -0.030  -0.025  -0.051  0.00  0.00    -0.028 C 
ATOM      5  C   UNL     1      -1.468  -0.543   0.013  0.00  0.00    +0.021 C 
ATOM      6  C   UNL     1      -2.172   0.037   1.242  0.00  0.00    +0.027 C 
ATOM      7  C   UNL     1      -1.461  -0.447   2.509  0.00  0.00    +0.039 C 
ATOM      8  C   UNL     1      -0.003  -0.108   2.422  0.00  0.00    -0.106 C 
ATOM      9  C   UNL     1       0.651   0.525   3.351  0.00  0.00    -0.056 C 
ATOM     10  C   UNL     1       0.010   1.000   4.622  0.00  0.00    +0.055 C 
ATOM     11  C   UNL     1      -1.198   0.112   4.942  0.00  0.00    +0.033 C 
ATOM     12  C   UNL     1      -1.901   0.669   6.183  0.00  0.00    -0.039 C 
ATOM     16  C   UNL     1      -0.943   0.620   7.375  0.00  0.00    +0.040 C 
ATOM     17  C   UNL     1      -3.137  -0.117   6.484  0.00  0.00    +0.180 C 
ATOM     20  C   UNL     1      -4.089  -0.074   5.286  0.00  0.00    -0.017 C 
ATOM     21  C   UNL     1      -3.390  -0.672   4.065  0.00  0.00    +0.025 C 
ATOM     22  C   UNL     1      -2.133   0.139   3.740  0.00  0.00    -0.043 C 
ATOM     23  C   UNL     1      -2.549   1.582   3.447  0.00  0.00    +0.019 C 
ATOM     24  C   UNL     1       0.749  -0.526   1.169  0.00  0.00    +0.068 C 
ENDROOT
BRANCH   2   3
ATOM      3  C   UNL     1       0.629  -0.528  -1.309  0.00  0.00    -0.040 C 
ATOM      4  C   UNL     1       1.085   0.322  -2.195  0.00  0.00    +0.001 C 
ENDBRANCH   2   3
BRANCH  17  18
ATOM     18  O   UNL     1      -2.763  -1.471   6.747  0.00  0.00    -0.562 OA
ATOM     19  H   UNL     1      -3.508  -2.052   6.954  0.00  0.00    +0.373 HD
ENDBRANCH  17  18
BRANCH  12  13
ATOM     13  C   UNL     1      -2.317   2.119   5.924  0.00  0.00    +0.179 C 
BRANCH  13  14
ATOM     14  O   UNL     1      -2.809   2.696   7.135  0.00  0.00    -0.575 OA
ATOM     15  H   UNL     1      -3.091   3.617   7.046  0.00  0.00    +0.377 HD
ENDBRANCH  13  14
ENDBRANCH  12  13
TORSDOF 4
