REMARK  Name = ZINC95486128
REMARK  10 active torsions:
REMARK  status: ('A' for Active; 'I' for Inactive)
REMARK    1  A    between atoms: C3_3  and  O10_36
REMARK    2  A    between atoms: C4_4  and  C16_20
REMARK    3  A    between atoms: C6_6  and  C7_7
REMARK    4  A    between atoms: C11_12  and  O4_19
REMARK    5  A    between atoms: C13_14  and  O3_18
REMARK    6  A    between atoms: C17_22  and  O9_35
REMARK    7  A    between atoms: C18_24  and  O8_34
REMARK    8  A    between atoms: C19_26  and  O7_33
REMARK    9  A    between atoms: C20_28  and  C21_31
REMARK   10  A    between atoms: C21_31  and  O6_32
REMARK                            x       y       z     vdW  Elec       q    Type
REMARK                         _______ _______ _______ _____ _____    ______ ____
ROOT
ATOM      1  C   UNL     1      -0.017   1.393   0.010  0.00  0.00    +0.087 A 
ATOM      2  C   UNL     1       1.168   2.096   0.002  0.00  0.00    -0.007 A 
ATOM      3  C   UNL     1       2.380   1.418  -0.014  0.00  0.00    +0.169 A 
ATOM      6  C   UNL     1       2.404   0.028  -0.021  0.00  0.00    -0.114 A 
ATOM     22  C   UNL     1       1.224  -0.682  -0.013  0.00  0.00    +0.110 A 
ATOM     23  C   UNL     1       0.002  -0.004   0.002  0.00  0.00    -0.091 A 
ENDROOT
BRANCH  23  24
ATOM     24  C   UNL     1      -1.264  -0.761   0.011  0.00  0.00    +0.214 A 
ATOM     25  C   UNL     1      -2.437  -0.073   0.020  0.00  0.00    -0.151 A 
ATOM     26  C   UNL     1      -3.662  -0.782   0.028  0.00  0.00    +0.423 A 
ATOM     27  C   UNL     1      -3.593  -2.253   0.025  0.00  0.00    -0.266 A 
ATOM     28  C   UNL     1      -4.755  -3.036   0.032  0.00  0.00    +0.219 A 
ATOM     31  C   UNL     1      -4.647  -4.414   0.028  0.00  0.00    -0.056 A 
ATOM     32  C   UNL     1      -3.394  -5.017   0.018  0.00  0.00    +0.191 A 
ATOM     35  C   UNL     1      -2.240  -4.249   0.011  0.00  0.00    -0.030 A 
ATOM     36  C   UNL     1      -2.328  -2.865   0.015  0.00  0.00    +0.184 A 
ATOM     37  O   UNL     1      -4.733  -0.198   0.036  0.00  0.00    -0.455 OA
ATOM     38  O   UNL     1      -1.214  -2.103   0.003  0.00  0.00    -0.217 OA
BRANCH  28  29
ATOM     29  O   UNL     1      -5.976  -2.445   0.042  0.00  0.00    -0.472 OA
ATOM     30  H   UNL     1      -6.337  -2.272  -0.838  0.00  0.00    +0.403 HD
ENDBRANCH  28  29
BRANCH  32  33
ATOM     33  O   UNL     1      -3.300  -6.372   0.015  0.00  0.00    -0.487 OA
ATOM     34  H   UNL     1      -3.279  -6.762  -0.869  0.00  0.00    +0.403 HD
ENDBRANCH  32  33
ENDBRANCH  23  24
BRANCH   6   7
ATOM      7  C   UNL     1       3.722  -0.702  -0.039  0.00  0.00    +0.231 C 
ATOM      8  C   UNL     1       4.214  -0.832  -1.482  0.00  0.00    +0.169 C 
ATOM     11  C   UNL     1       5.524  -1.627  -1.497  0.00  0.00    +0.118 C 
ATOM     14  C   UNL     1       5.288  -2.990  -0.839  0.00  0.00    +0.127 C 
ATOM     17  C   UNL     1       4.754  -2.777   0.580  0.00  0.00    +0.181 C 
ATOM     21  O   UNL     1       3.553  -2.004   0.525  0.00  0.00    -0.346 OA
BRANCH   8   9
ATOM      9  O   UNL     1       4.438   0.469  -2.030  0.00  0.00    -0.533 OA
ATOM     10  H   UNL     1       4.752   0.462  -2.944  0.00  0.00    +0.386 HD
ENDBRANCH   8   9
BRANCH  11  12
ATOM     12  O   UNL     1       5.953  -1.815  -2.847  0.00  0.00    -0.557 OA
ATOM     13  H   UNL     1       6.779  -2.312  -2.932  0.00  0.00    +0.383 HD
ENDBRANCH  11  12
BRANCH  14  15
ATOM     15  O   UNL     1       6.519  -3.713  -0.783  0.00  0.00    -0.552 OA
ATOM     16  H   UNL     1       6.917  -3.880  -1.649  0.00  0.00    +0.383 HD
ENDBRANCH  14  15
BRANCH  17  18
ATOM     18  C   UNL     1       4.460  -4.133   1.224  0.00  0.00    +0.219 C 
BRANCH  18  19
ATOM     19  O   UNL     1       4.073  -3.940   2.586  0.00  0.00    -0.566 OA
ATOM     20  H   UNL     1       3.870  -4.759   3.058  0.00  0.00    +0.384 HD
ENDBRANCH  18  19
ENDBRANCH  17  18
ENDBRANCH   6   7
BRANCH   3   4
ATOM      4  O   UNL     1       3.546   2.115  -0.022  0.00  0.00    -0.477 OA
ATOM      5  H   UNL     1       3.892   2.312   0.859  0.00  0.00    +0.392 HD
ENDBRANCH   3   4
TORSDOF 10
