REMARK  Name = ZINC95485980
REMARK  10 active torsions:
REMARK  status: ('A' for Active; 'I' for Inactive)
REMARK    1  A    between atoms: C1_1  and  C2_2
REMARK    2  A    between atoms: C2_2  and  C3_4
REMARK    3  A    between atoms: C2_2  and  C20_30
REMARK    4  A    between atoms: C3_4  and  C4_5
REMARK    5  A    between atoms: C4_5  and  C5_6
REMARK    6  A    between atoms: C7_8  and  C11_14
REMARK    7  A    between atoms: C9_10  and  O2_13
REMARK    8  A    between atoms: C10_11  and  O1_12
REMARK    9  A    between atoms: C17_23  and  O6_28
REMARK   10  A    between atoms: C19_26  and  O5_27
REMARK                            x       y       z     vdW  Elec       q    Type
REMARK                         _______ _______ _______ _____ _____    ______ ____
ROOT
ATOM      6  C   UNL     1       0.404  -0.463  -3.814  0.00  0.00    -0.184 A 
ATOM      7  C   UNL     1       1.599  -1.179  -3.964  0.00  0.00    +0.096 A 
ATOM      8  C   UNL     1       2.045  -1.515  -5.222  0.00  0.00    -0.098 A 
ATOM     24  C   UNL     1       1.319  -1.149  -6.345  0.00  0.00    +0.073 A 
ATOM     25  C   UNL     1       0.137  -0.441  -6.214  0.00  0.00    +0.072 A 
ATOM     28  C   UNL     1      -0.333  -0.098  -4.950  0.00  0.00    +0.157 A 
ENDROOT
BRANCH   8   9
ATOM      9  C   UNL     1       3.331  -2.285  -5.380  0.00  0.00    +0.243 C 
ATOM     10  C   UNL     1       3.017  -3.767  -5.621  0.00  0.00    +0.036 C 
ATOM     11  C   UNL     1       4.305  -4.476  -5.970  0.00  0.00    +0.396 C 
ATOM     12  C   UNL     1       5.354  -3.739  -6.573  0.00  0.00    -0.289 C 
ATOM     13  C   UNL     1       5.203  -2.409  -6.825  0.00  0.00    +0.231 C 
ATOM     14  C   UNL     1       6.328  -1.641  -7.471  0.00  0.00    +0.146 C 
ATOM     15  C   UNL     1       7.672  -2.179  -6.984  0.00  0.00    +0.248 C 
ATOM     18  C   UNL     1       7.720  -3.675  -7.128  0.00  0.00    -0.241 C 
ATOM     19  C   UNL     1       6.625  -4.409  -6.931  0.00  0.00    +0.215 C 
ATOM     22  O   UNL     1       4.439  -5.660  -5.737  0.00  0.00    -0.433 OA
ATOM     23  O   UNL     1       4.059  -1.778  -6.503  0.00  0.00    -0.290 OA
BRANCH  15  16
ATOM     16  O   UNL     1       7.848  -1.834  -5.608  0.00  0.00    -0.567 OA
ATOM     17  H   UNL     1       8.682  -2.143  -5.229  0.00  0.00    +0.384 HD
ENDBRANCH  15  16
BRANCH  19  20
ATOM     20  O   UNL     1       6.675  -5.760  -7.058  0.00  0.00    -0.461 OA
ATOM     21  H   UNL     1       7.548  -6.101  -7.294  0.00  0.00    +0.397 HD
ENDBRANCH  19  20
ENDBRANCH   8   9
BRANCH   6   4
ATOM      4  C   UNL     1      -0.077  -0.103  -2.474  0.00  0.00    +0.398 C 
ATOM      5  O   UNL     1      -1.115   0.512  -2.348  0.00  0.00    -0.422 OA
BRANCH   4   3
ATOM      3  C   UNL     1       0.718  -0.498  -1.257  0.00  0.00    +0.056 C 
BRANCH   3   2
ATOM      1  C   UNL     1      -0.019   1.526   0.010  0.00  0.00    +0.053 C 
ATOM      2  C   UNL     1       0.002  -0.004   0.002  0.00  0.00    -0.051 C 
BRANCH   2  31
ATOM     31  C   UNL     1       0.731  -0.503   1.223  0.00  0.00    +0.447 C 
ATOM     32  O   UNL     1       0.161  -1.210   2.019  0.00  0.00    -0.454 OA
ENDBRANCH   2  31
ENDBRANCH   3   2
ENDBRANCH   4   3
ENDBRANCH   6   4
BRANCH  25  26
ATOM     26  O   UNL     1      -0.569  -0.086  -7.322  0.00  0.00    -0.486 OA
ATOM     27  H   UNL     1      -1.222  -0.743  -7.599  0.00  0.00    +0.397 HD
ENDBRANCH  25  26
BRANCH  28  29
ATOM     29  O   UNL     1      -1.495   0.591  -4.818  0.00  0.00    -0.472 OA
ATOM     30  H   UNL     1      -1.385   1.552  -4.824  0.00  0.00    +0.402 HD
ENDBRANCH  28  29
TORSDOF 9
