REMARK  Name = ZINC85967928
REMARK  11 active torsions:
REMARK  status: ('A' for Active; 'I' for Inactive)
REMARK    1  A    between atoms: C1_1  and  C2_2
REMARK    2  A    between atoms: C2_2  and  C3_3
REMARK    3  A    between atoms: C2_2  and  C4_4
REMARK    4  A    between atoms: C10_10  and  C19_21
REMARK    5  A    between atoms: C10_10  and  C20_22
REMARK    6  A    between atoms: C14_14  and  C18_20
REMARK    7  A    between atoms: C16_16  and  O2_19
REMARK    8  A    between atoms: C20_22  and  O3_23
REMARK    9  A    between atoms: O3_23  and  C21_24
REMARK   10  A    between atoms: C21_24  and  C22_26
REMARK   11  A    between atoms: C25_29  and  O5_32
REMARK                            x       y       z     vdW  Elec       q    Type
REMARK                         _______ _______ _______ _____ _____    ______ ____
ROOT
ATOM      3  C   UNL     1      -0.234  -1.496   1.117  0.00  0.00    -0.192 C 
ATOM      4  C   UNL     1      -0.674  -2.155   2.218  0.00  0.00    +0.109 C 
ATOM      5  C   UNL     1       0.204  -2.387   3.303  0.00  0.00    -0.109 C 
ATOM      6  C   UNL     1      -0.245  -3.054   4.443  0.00  0.00    +0.142 C 
ATOM      7  C   UNL     1       0.571  -3.285   5.556  0.00  0.00    -0.033 C 
ATOM      8  C   UNL     1       1.854  -2.906   5.591  0.00  0.00    -0.018 C 
ATOM      9  C   UNL     1       2.705  -3.111   6.818  0.00  0.00    -0.021 C 
ATOM     22  C   UNL     1       1.841  -3.640   7.964  0.00  0.00    +0.056 C 
ATOM     23  C   UNL     1       3.315  -1.760   7.212  0.00  0.00    +0.044 C 
ATOM     24  C   UNL     1       4.032  -1.154   6.004  0.00  0.00    +0.012 C 
ATOM     25  C   UNL     1       3.032  -0.895   4.875  0.00  0.00    +0.047 C 
ATOM     26  C   UNL     1       2.466  -2.227   4.383  0.00  0.00    +0.010 C 
ATOM     27  C   UNL     1       3.631  -3.086   3.888  0.00  0.00    +0.059 C 
ATOM     28  C   UNL     1       1.547  -1.940   3.220  0.00  0.00    -0.053 C 
ATOM     29  C   UNL     1       1.986  -1.280   2.123  0.00  0.00    +0.019 C 
ATOM     32  C   UNL     1       1.099  -1.045   1.043  0.00  0.00    +0.388 C 
ATOM     33  O   UNL     1       1.489  -0.449   0.049  0.00  0.00    -0.471 OA
ENDROOT
BRANCH   3   2
ATOM      1  C   UNL     1      -1.302   0.257  -0.274  0.00  0.00    +0.028 C 
ATOM      2  C   UNL     1      -1.174  -1.248  -0.034  0.00  0.00    +0.038 C 
ATOM     34  C   UNL     1      -0.624  -1.920  -1.294  0.00  0.00    +0.027 C 
ENDBRANCH   3   2
BRANCH  29  30
ATOM     30  O   UNL     1       3.274  -0.849   2.056  0.00  0.00    -0.459 OA
ATOM     31  H   UNL     1       3.492  -0.389   1.234  0.00  0.00    +0.400 HD
ENDBRANCH  29  30
BRANCH   9  10
ATOM     10  C   UNL     1       3.822  -4.111   6.509  0.00  0.00    +0.229 C 
BRANCH  10  11
ATOM     11  O   UNL     1       4.535  -4.415   7.710  0.00  0.00    -0.343 OA
BRANCH  11  12
ATOM     12  C   UNL     1       5.557  -5.287   7.611  0.00  0.00    +0.510 C 
ATOM     21  O   UNL     1       5.836  -5.775   6.534  0.00  0.00    -0.501 OA
BRANCH  12  13
ATOM     13  C   UNL     1       6.338  -5.648   8.809  0.00  0.00    -0.139 A 
ATOM     14  C   UNL     1       6.015  -5.091  10.050  0.00  0.00    +0.101 A 
ATOM     15  C   UNL     1       6.745  -5.431  11.166  0.00  0.00    -0.021 A 
ATOM     16  C   UNL     1       7.804  -6.326  11.060  0.00  0.00    +0.147 A 
ATOM     19  C   UNL     1       8.128  -6.882   9.828  0.00  0.00    -0.017 A 
ATOM     20  C   UNL     1       7.399  -6.552   8.707  0.00  0.00    +0.108 A 
BRANCH  16  17
ATOM     17  O   UNL     1       8.522  -6.658  12.162  0.00  0.00    -0.497 OA
ATOM     18  H   UNL     1       8.178  -7.426  12.639  0.00  0.00    +0.399 HD
ENDBRANCH  16  17
ENDBRANCH  12  13
ENDBRANCH  11  12
ENDBRANCH  10  11
ENDBRANCH   9  10
TORSDOF 7
