REMARK  Name = ZINC28278668
REMARK  5 active torsions:
REMARK  status: ('A' for Active; 'I' for Inactive)
REMARK    1  A    between atoms: C1_1  and  C2_2
REMARK    2  A    between atoms: C5_5  and  C9_10
REMARK    3  A    between atoms: C7_7  and  O1_8
REMARK    4  A    between atoms: O1_8  and  C8_9
REMARK    5  A    between atoms: C10_11  and  C11_12
REMARK                            x       y       z     vdW  Elec       q    Type
REMARK                         _______ _______ _______ _____ _____    ______ ____
ROOT
ATOM      1  C   UNL     1      -0.018   1.503   0.010  0.00  0.00    +0.090 C 
ATOM      2  C   UNL     1       0.002  -0.004   0.002  0.00  0.00    -0.135 A 
ATOM      3  C   UNL     1       0.006  -0.686  -1.202  0.00  0.00    +0.045 A 
ATOM      4  C   UNL     1       0.024  -2.065  -1.219  0.00  0.00    -0.023 A 
ATOM      5  C   UNL     1       0.039  -2.777  -0.015  0.00  0.00    -0.001 A 
ATOM     11  C   UNL     1       0.036  -2.086   1.200  0.00  0.00    -0.072 A 
ATOM     12  C   UNL     1       0.023  -0.702   1.203  0.00  0.00    +0.124 A 
ENDROOT
BRANCH   5   6
ATOM      6  C   UNL     1       0.058  -4.248  -0.027  0.00  0.00    +0.004 C 
ATOM      7  C   UNL     1       0.061  -4.914  -1.203  0.00  0.00    -0.054 C 
BRANCH   7   8
ATOM      8  C   UNL     1       0.079  -6.330  -1.215  0.00  0.00    +0.499 C 
ATOM      9  O   UNL     1       0.081  -6.933  -2.281  0.00  0.00    -0.697 OA
ATOM     10  O   UNL     1       0.092  -6.951  -0.160  0.00  0.00    -0.694 OA
ENDBRANCH   7   8
ENDBRANCH   5   6
BRANCH  12  13
ATOM     13  O   UNL     1       0.025  -0.025   2.381  0.00  0.00    -0.319 OA
ATOM     14  C   UNL     1       0.047  -0.806   3.578  0.00  0.00    +0.233 C 
ENDBRANCH  12  13
TORSDOF 3
