REMARK  Name = ZINC85967772
REMARK  12 active torsions:
REMARK  status: ('A' for Active; 'I' for Inactive)
REMARK    1  A    between atoms: C1_1  and  C2_2
REMARK    2  A    between atoms: C2_2  and  C3_3
REMARK    3  A    between atoms: C2_2  and  C4_4
REMARK    4  A    between atoms: C10_10  and  C27_34
REMARK    5  A    between atoms: C12_12  and  O2_15
REMARK    6  A    between atoms: C15_17  and  O3_23
REMARK    7  A    between atoms: C17_20  and  C18_21
REMARK    8  A    between atoms: C17_20  and  C19_22
REMARK    9  A    between atoms: O3_23  and  C20_24
REMARK   10  A    between atoms: C20_24  and  C21_26
REMARK   11  A    between atoms: C24_29  and  O6_33
REMARK   12  A    between atoms: C25_30  and  O5_32
REMARK                            x       y       z     vdW  Elec       q    Type
REMARK                         _______ _______ _______ _____ _____    ______ ____
ROOT
ATOM      3  C   UNL     1      -1.551   0.253   0.514  0.00  0.00    -0.195 C 
ATOM      4  C   UNL     1      -1.755  -0.616  -0.506  0.00  0.00    +0.109 C 
ATOM      5  C   UNL     1      -2.988  -1.303  -0.616  0.00  0.00    -0.118 C 
ATOM      6  C   UNL     1      -3.212  -2.186  -1.671  0.00  0.00    +0.149 C 
ATOM      7  C   UNL     1      -4.422  -2.867  -1.847  0.00  0.00    -0.050 C 
ATOM      8  C   UNL     1      -5.441  -2.743  -0.989  0.00  0.00    -0.007 C 
ATOM      9  C   UNL     1      -5.284  -1.860   0.233  0.00  0.00    +0.016 C 
ATOM     10  C   UNL     1      -5.439  -2.737   1.477  0.00  0.00    +0.069 C 
ATOM     11  C   UNL     1      -6.437  -0.857   0.192  0.00  0.00    +0.080 C 
ATOM     12  C   UNL     1      -7.766  -1.612   0.150  0.00  0.00    +0.180 C 
ATOM     26  C   UNL     1      -7.877  -2.412  -1.148  0.00  0.00    +0.039 C 
ATOM     27  C   UNL     1      -6.752  -3.454  -1.206  0.00  0.00    -0.025 C 
ATOM     28  C   UNL     1      -6.749  -4.135  -2.576  0.00  0.00    +0.044 C 
ATOM     29  C   UNL     1      -6.960  -4.499  -0.109  0.00  0.00    +0.046 C 
ATOM     30  C   UNL     1      -3.994  -1.088   0.360  0.00  0.00    -0.052 C 
ATOM     31  C   UNL     1      -3.791  -0.219   1.377  0.00  0.00    +0.017 C 
ATOM     34  C   UNL     1      -2.558   0.472   1.475  0.00  0.00    +0.388 C 
ATOM     35  O   UNL     1      -2.369   1.262   2.390  0.00  0.00    -0.474 OA
ENDROOT
BRANCH   3   2
ATOM      1  C   UNL     1      -0.486   2.492   0.565  0.00  0.00    +0.027 C 
ATOM      2  C   UNL     1      -0.237   0.984   0.625  0.00  0.00    +0.037 C 
ATOM     36  C   UNL     1       0.433   0.629   1.954  0.00  0.00    +0.027 C 
ENDBRANCH   3   2
BRANCH  31  32
ATOM     32  O   UNL     1      -4.766  -0.013   2.303  0.00  0.00    -0.460 OA
ATOM     33  H   UNL     1      -4.527   0.626   2.990  0.00  0.00    +0.399 HD
ENDBRANCH  31  32
BRANCH  12  13
ATOM     13  O   UNL     1      -7.838  -2.507   1.262  0.00  0.00    -0.315 OA
BRANCH  13  14
ATOM     14  C   UNL     1      -9.063  -2.774   1.754  0.00  0.00    +0.498 C 
ATOM     25  O   UNL     1     -10.044  -2.262   1.254  0.00  0.00    -0.496 OA
BRANCH  14  15
ATOM     15  C   UNL     1      -9.214  -3.689   2.902  0.00  0.00    -0.123 A 
ATOM     16  C   UNL     1      -8.086  -4.275   3.483  0.00  0.00    +0.090 A 
ATOM     17  C   UNL     1      -8.228  -5.129   4.554  0.00  0.00    +0.003 A 
ATOM     18  C   UNL     1      -9.491  -5.410   5.059  0.00  0.00    +0.122 A 
ATOM     21  C   UNL     1     -10.620  -4.830   4.484  0.00  0.00    +0.071 A 
ATOM     24  C   UNL     1     -10.484  -3.968   3.414  0.00  0.00    +0.085 A 
BRANCH  18  19
ATOM     19  O   UNL     1      -9.625  -6.253   6.115  0.00  0.00    -0.485 OA
ATOM     20  H   UNL     1      -9.595  -5.813   6.976  0.00  0.00    +0.396 HD
ENDBRANCH  18  19
BRANCH  21  22
ATOM     22  O   UNL     1     -11.855  -5.108   4.981  0.00  0.00    -0.482 OA
ATOM     23  H   UNL     1     -12.143  -4.504   5.679  0.00  0.00    +0.391 HD
ENDBRANCH  21  22
ENDBRANCH  14  15
ENDBRANCH  13  14
ENDBRANCH  12  13
TORSDOF 7
