REMARK  Name = ZINC95486047
REMARK  10 active torsions:
REMARK  status: ('A' for Active; 'I' for Inactive)
REMARK    1  A    between atoms: C1_1  and  O1_2
REMARK    2  A    between atoms: O1_2  and  C2_3
REMARK    3  A    between atoms: C4_5  and  C8_10
REMARK    4  A    between atoms: C7_8  and  O2_9
REMARK    5  A    between atoms: C8_10  and  C9_11
REMARK    6  A    between atoms: C10_12  and  C11_13
REMARK    7  A    between atoms: C11_13  and  C12_14
REMARK    8  A    between atoms: C12_14  and  C13_16
REMARK    9  A    between atoms: C16_19  and  O5_23
REMARK   10  A    between atoms: C18_21  and  O4_22
REMARK                            x       y       z     vdW  Elec       q    Type
REMARK                         _______ _______ _______ _____ _____    ______ ____
ROOT
ATOM      7  C   UNL     1      -5.306   0.527  -1.380  0.00  0.00    -0.035 C 
ATOM      8  C   UNL     1      -6.508   0.185  -1.773  0.00  0.00    -0.026 C 
ENDROOT
BRANCH   7   6
ATOM      6  C   UNL     1      -4.871   0.257   0.037  0.00  0.00    +0.113 C 
BRANCH   6   5
ATOM      3  C   UNL     1      -1.201  -0.638   0.010  0.00  0.00    +0.104 A 
ATOM      4  C   UNL     1      -2.374   0.099   0.020  0.00  0.00    -0.060 A 
ATOM      5  C   UNL     1      -3.596  -0.546   0.027  0.00  0.00    -0.047 A 
ATOM     22  C   UNL     1      -3.652  -1.928   0.026  0.00  0.00    -0.003 A 
ATOM     23  C   UNL     1      -2.485  -2.669   0.017  0.00  0.00    +0.033 A 
ATOM     24  C   UNL     1      -1.257  -2.028   0.003  0.00  0.00    +0.070 A 
BRANCH   3   2
ATOM      1  C   UNL     1      -0.017   1.425   0.010  0.00  0.00    +0.238 C 
ATOM      2  O   UNL     1       0.002  -0.004   0.002  0.00  0.00    -0.308 OA
ENDBRANCH   3   2
BRANCH  24  25
ATOM     25  O   UNL     1      -0.108  -2.756  -0.012  0.00  0.00    -0.487 OA
ATOM     26  H   UNL     1       0.232  -2.972   0.867  0.00  0.00    +0.386 HD
ENDBRANCH  24  25
ENDBRANCH   6   5
ENDBRANCH   7   6
BRANCH   8   9
ATOM      9  C   UNL     1      -6.944   0.455  -3.190  0.00  0.00    +0.074 C 
BRANCH   9  10
ATOM     10  C   UNL     1      -7.414  -0.829  -3.824  0.00  0.00    +0.397 C 
ATOM     21  O   UNL     1      -7.398  -1.862  -3.187  0.00  0.00    -0.431 OA
BRANCH  10  11
ATOM     11  C   UNL     1      -7.891  -0.830  -5.209  0.00  0.00    -0.213 A 
ATOM     12  C   UNL     1      -7.906   0.360  -5.950  0.00  0.00    +0.100 A 
ATOM     13  C   UNL     1      -8.351   0.357  -7.239  0.00  0.00    -0.029 A 
ATOM     14  C   UNL     1      -8.792  -0.825  -7.830  0.00  0.00    +0.159 A 
ATOM     17  C   UNL     1      -8.784  -2.012  -7.112  0.00  0.00    -0.049 A 
ATOM     18  C   UNL     1      -8.331  -2.026  -5.804  0.00  0.00    +0.188 A 
BRANCH  14  15
ATOM     15  O   UNL     1      -9.233  -0.815  -9.113  0.00  0.00    -0.496 OA
ATOM     16  H   UNL     1      -8.540  -0.977  -9.768  0.00  0.00    +0.400 HD
ENDBRANCH  14  15
BRANCH  18  19
ATOM     19  O   UNL     1      -8.316  -3.184  -5.100  0.00  0.00    -0.478 OA
ATOM     20  H   UNL     1      -9.133  -3.359  -4.613  0.00  0.00    +0.399 HD
ENDBRANCH  18  19
ENDBRANCH  10  11
ENDBRANCH   9  10
ENDBRANCH   8   9
TORSDOF 9
