REMARK  Name = ZINC03860433
REMARK  20 active torsions:
REMARK  status: ('A' for Active; 'I' for Inactive)
REMARK    1  A    between atoms: C1_1  and  C2_2
REMARK    2  A    between atoms: C2_2  and  C3_3
REMARK    3  A    between atoms: C3_3  and  C4_4
REMARK    4  A    between atoms: C4_4  and  C5_5
REMARK    5  A    between atoms: C5_5  and  C6_7
REMARK    6  A    between atoms: C5_5  and  C8_9
REMARK    7  A    between atoms: C6_7  and  C7_8
REMARK    8  A    between atoms: C8_9  and  O1_10
REMARK    9  A    between atoms: O1_10  and  C9_11
REMARK   10  A    between atoms: C9_11  and  C10_13
REMARK   11  A    between atoms: C15_18  and  C16_19
REMARK   12  A    between atoms: C16_19  and  O4_21
REMARK   13  A    between atoms: O4_21  and  C17_22
REMARK   14  A    between atoms: C17_22  and  C18_23
REMARK   15  A    between atoms: C18_23  and  C19_25
REMARK   16  A    between atoms: C18_23  and  C21_27
REMARK   17  A    between atoms: C19_25  and  C20_26
REMARK   18  A    between atoms: C21_27  and  C22_28
REMARK   19  A    between atoms: C22_28  and  C23_29
REMARK   20  A    between atoms: C23_29  and  C24_30
REMARK                            x       y       z     vdW  Elec       q    Type
REMARK                         _______ _______ _______ _____ _____    ______ ____
ROOT
ATOM      9  C   UNL     1      -5.034  -6.173  -1.356  0.00  0.00    -0.048 A 
ATOM     10  C   UNL     1      -6.080  -5.383  -1.826  0.00  0.00    +0.057 A 
ATOM     11  C   UNL     1      -7.289  -5.964  -2.158  0.00  0.00    +0.056 A 
ATOM     12  C   UNL     1      -7.470  -7.330  -2.027  0.00  0.00    +0.034 A 
ATOM     13  C   UNL     1      -6.443  -8.130  -1.562  0.00  0.00    +0.086 A 
ATOM     14  C   UNL     1      -5.216  -7.563  -1.227  0.00  0.00    -0.083 A 
ENDROOT
BRANCH   9   8
ATOM      8  C   UNL     1      -3.738  -5.556  -0.999  0.00  0.00    +0.508 C 
ATOM     26  O   UNL     1      -3.303  -5.667   0.129  0.00  0.00    -0.466 OA
BRANCH   8   7
ATOM      7  O   UNL     1      -3.041  -4.871  -1.926  0.00  0.00    -0.344 OA
BRANCH   7   6
ATOM      6  C   UNL     1      -1.797  -4.302  -1.513  0.00  0.00    +0.210 C 
BRANCH   6   5
ATOM      5  C   UNL     1      -1.155  -3.568  -2.692  0.00  0.00    -0.003 C 
BRANCH   5  27
ATOM     27  C   UNL     1      -2.031  -2.379  -3.091  0.00  0.00    +0.010 C 
ATOM     28  C   UNL     1      -1.466  -1.731  -4.356  0.00  0.00    +0.012 C 
ENDBRANCH   5  27
BRANCH   5   4
ATOM      4  C   UNL     1       0.232  -3.066  -2.285  0.00  0.00    +0.028 C 
BRANCH   4   3
ATOM      3  C   UNL     1       1.149  -4.261  -2.016  0.00  0.00    -0.000 C 
BRANCH   3   2
ATOM      1  C   UNL     1       3.486  -4.958  -1.476  0.00  0.00    +0.006 C 
ATOM      2  C   UNL     1       2.570  -3.763  -1.745  0.00  0.00    -0.002 C 
ENDBRANCH   3   2
ENDBRANCH   4   3
ENDBRANCH   5   4
ENDBRANCH   6   5
ENDBRANCH   7   6
ENDBRANCH   8   7
ENDBRANCH   9   8
BRANCH  14  15
ATOM     15  C   UNL     1      -4.112  -8.415  -0.735  0.00  0.00    +0.498 C 
ATOM     25  O   UNL     1      -3.046  -7.916  -0.437  0.00  0.00    -0.479 OA
BRANCH  15  16
ATOM     16  O   UNL     1      -4.290  -9.745  -0.617  0.00  0.00    -0.343 OA
BRANCH  16  17
ATOM     17  C   UNL     1      -3.181 -10.507  -0.136  0.00  0.00    +0.211 C 
BRANCH  17  18
ATOM     18  C   UNL     1      -3.569 -11.986  -0.070  0.00  0.00    -0.002 C 
BRANCH  18  23
ATOM     23  C   UNL     1      -3.834 -12.507  -1.484  0.00  0.00    +0.011 C 
ATOM     24  C   UNL     1      -4.371 -13.937  -1.408  0.00  0.00    +0.012 C 
ENDBRANCH  18  23
BRANCH  18  19
ATOM     19  C   UNL     1      -2.427 -12.785   0.562  0.00  0.00    +0.028 C 
BRANCH  19  20
ATOM     20  C   UNL     1      -2.257 -12.363   2.023  0.00  0.00    -0.000 C 
BRANCH  20  21
ATOM     21  C   UNL     1      -1.053 -13.089   2.626  0.00  0.00    -0.002 C 
ATOM     22  C   UNL     1      -0.883 -12.667   4.087  0.00  0.00    +0.007 C 
ENDBRANCH  20  21
ENDBRANCH  19  20
ENDBRANCH  18  19
ENDBRANCH  17  18
ENDBRANCH  16  17
ENDBRANCH  15  16
ENDBRANCH  14  15
TORSDOF 16
