REMARK  Name = ZINC95485919
REMARK  6 active torsions:
REMARK  status: ('A' for Active; 'I' for Inactive)
REMARK    1  A    between atoms: C1_1  and  O1_2
REMARK    2  A    between atoms: O1_2  and  C2_3
REMARK    3  A    between atoms: C12_15  and  O5_22
REMARK    4  A    between atoms: C13_16  and  C15_19
REMARK    5  A    between atoms: C14_17  and  O4_18
REMARK    6  A    between atoms: C15_19  and  C16_20
REMARK                            x       y       z     vdW  Elec       q    Type
REMARK                         _______ _______ _______ _____ _____    ______ ____
ROOT
ATOM      3  C   UNL     1       0.606  -0.607  -1.056  0.00  0.00    +0.103 A 
ATOM      4  C   UNL     1       1.175   0.163  -2.065  0.00  0.00    +0.003 A 
ATOM      5  C   UNL     1       1.788  -0.433  -3.146  0.00  0.00    +0.050 A 
ATOM      6  C   UNL     1       1.847  -1.820  -3.239  0.00  0.00    +0.116 A 
ATOM      7  C   UNL     1       1.278  -2.595  -2.218  0.00  0.00    -0.181 A 
ATOM      8  C   UNL     1       1.361  -4.069  -2.322  0.00  0.00    +0.443 A 
ATOM      9  C   UNL     1       2.287  -4.590  -3.344  0.00  0.00    -0.267 A 
ATOM     10  C   UNL     1       2.801  -3.697  -4.301  0.00  0.00    +0.193 A 
ATOM     11  C   UNL     1       3.687  -4.173  -5.256  0.00  0.00    -0.031 A 
ATOM     12  C   UNL     1       4.051  -5.511  -5.267  0.00  0.00    +0.196 A 
ATOM     15  C   UNL     1       3.535  -6.396  -4.327  0.00  0.00    -0.168 A 
ATOM     19  C   UNL     1       2.651  -5.943  -3.363  0.00  0.00    +0.225 A 
ATOM     22  O   UNL     1       0.705  -4.806  -1.608  0.00  0.00    -0.429 OA
ATOM     23  O   UNL     1       2.442  -2.398  -4.303  0.00  0.00    -0.222 OA
ATOM     24  C   UNL     1       0.660  -1.987  -1.127  0.00  0.00    +0.087 A 
ENDROOT
BRANCH   3   2
ATOM      1  C   UNL     1      -0.017   1.425   0.010  0.00  0.00    +0.246 C 
ATOM      2  O   UNL     1       0.002  -0.004   0.002  0.00  0.00    -0.311 OA
ENDBRANCH   3   2
BRANCH  12  13
ATOM     13  O   UNL     1       4.919  -5.963  -6.207  0.00  0.00    -0.484 OA
ATOM     14  H   UNL     1       5.848  -5.914  -5.940  0.00  0.00    +0.402 HD
ENDBRANCH  12  13
BRANCH  19  20
ATOM     20  O   UNL     1       2.143  -6.802  -2.445  0.00  0.00    -0.471 OA
ATOM     21  H   UNL     1       1.317  -7.226  -2.717  0.00  0.00    +0.403 HD
ENDBRANCH  19  20
BRANCH  15  16
ATOM     16  C   UNL     1       3.937  -7.848  -4.357  0.00  0.00    +0.130 C 
BRANCH  16  17
ATOM     17  C   UNL     1       5.162  -8.047  -3.502  0.00  0.00    -0.050 C 
ATOM     18  C   UNL     1       5.150  -8.934  -2.538  0.00  0.00    +0.019 C 
ENDBRANCH  16  17
ENDBRANCH  15  16
TORSDOF 5
