REMARK  Name = ZINC95486210
REMARK  14 active torsions:
REMARK  status: ('A' for Active; 'I' for Inactive)
REMARK    1  A    between atoms: C1_1  and  N1_2
REMARK    2  A    between atoms: C6_8  and  O6_48
REMARK    3  A    between atoms: C7_9  and  O5_46
REMARK    4  A    between atoms: C15_18  and  O4_44
REMARK    5  A    between atoms: C16_19  and  O3_42
REMARK    6  A    between atoms: C17_20  and  O1_21
REMARK    7  A    between atoms: O1_21  and  C18_22
REMARK    8  A    between atoms: C24_28  and  C27_33
REMARK    9  A    between atoms: C27_33  and  C28_34
REMARK   10  A    between atoms: C31_37  and  O2_40
REMARK   11  A    between atoms: O2_40  and  C34_41
REMARK   12  A    between atoms: O3_42  and  C35_43
REMARK   13  A    between atoms: O4_44  and  C36_45
REMARK   14  A    between atoms: O5_46  and  C37_47
REMARK                            x       y       z     vdW  Elec       q    Type
REMARK                         _______ _______ _______ _____ _____    ______ ____
ROOT
ATOM      1  C   UNL     1      -0.018   1.465   0.010  0.00  0.00    +0.201 C 
ATOM      2  N   UNL     1       0.002  -0.004   0.002  0.00  0.00    -0.514 NA
ATOM      3  C   UNL     1       0.698  -0.514  -1.184  0.00  0.00    +0.227 C 
ATOM      4  C   UNL     1       0.397  -2.005  -1.333  0.00  0.00    +0.111 C 
ATOM      5  C   UNL     1       0.669  -2.715  -0.031  0.00  0.00    -0.085 A 
ATOM      6  C   UNL     1       0.817  -4.093  -0.048  0.00  0.00    +0.028 A 
ATOM      7  C   UNL     1       1.065  -4.785   1.124  0.00  0.00    +0.079 A 
ATOM     10  C   UNL     1       1.165  -4.089   2.326  0.00  0.00    +0.107 A 
ATOM     13  C   UNL     1       1.017  -2.714   2.336  0.00  0.00    -0.056 A 
ATOM     14  C   UNL     1       0.770  -2.023   1.157  0.00  0.00    -0.035 A 
ATOM     15  C   UNL     1       2.185  -0.321  -1.064  0.00  0.00    -0.056 A 
ATOM     16  C   UNL     1       2.958  -0.428  -2.212  0.00  0.00    -0.048 A 
ATOM     17  C   UNL     1       4.331  -0.261  -2.154  0.00  0.00    +0.122 A 
ATOM     20  C   UNL     1       4.942   0.017  -0.937  0.00  0.00    +0.064 A 
ATOM     23  C   UNL     1       4.167   0.181   0.186  0.00  0.00    +0.106 A 
ATOM     45  C   UNL     1       2.791  -0.006   0.129  0.00  0.00    -0.100 A 
ATOM     46  C   UNL     1       1.994   0.123   1.402  0.00  0.00    +0.072 C 
ATOM     47  C   UNL     1       0.622  -0.528   1.223  0.00  0.00    +0.227 C 
ENDROOT
BRANCH   7   8
ATOM      8  O   UNL     1       1.210  -6.137   1.103  0.00  0.00    -0.485 OA
ATOM      9  H   UNL     1       2.120  -6.433   0.970  0.00  0.00    +0.386 HD
ENDBRANCH   7   8
BRANCH  10  11
ATOM     11  O   UNL     1       1.407  -4.758   3.484  0.00  0.00    -0.306 OA
ATOM     12  C   UNL     1       1.497  -3.978   4.678  0.00  0.00    +0.237 C 
ENDBRANCH  10  11
BRANCH  17  18
ATOM     18  O   UNL     1       5.079  -0.368  -3.285  0.00  0.00    -0.302 OA
ATOM     19  C   UNL     1       4.382  -0.655  -4.499  0.00  0.00    +0.244 C 
ENDBRANCH  17  18
BRANCH  20  21
ATOM     21  O   UNL     1       6.292   0.181  -0.871  0.00  0.00    -0.317 OA
ATOM     22  C   UNL     1       6.793   1.507  -1.052  0.00  0.00    +0.229 C 
ENDBRANCH  20  21
BRANCH  23  24
ATOM     24  O   UNL     1       4.763   0.470   1.373  0.00  0.00    -0.250 OA
BRANCH  24  25
ATOM     25  C   UNL     1       5.193  -0.566   2.140  0.00  0.00    +0.129 A 
ATOM     26  C   UNL     1       5.025  -1.873   1.703  0.00  0.00    -0.055 A 
ATOM     27  C   UNL     1       5.467  -2.919   2.486  0.00  0.00    +0.044 A 
ATOM     28  C   UNL     1       6.075  -2.673   3.708  0.00  0.00    -0.107 A 
ATOM     29  C   UNL     1       6.240  -1.376   4.147  0.00  0.00    -0.077 A 
ATOM     30  C   UNL     1       6.885  -1.061   5.471  0.00  0.00    +0.231 C 
ATOM     40  N   UNL     1       7.640  -2.218   5.964  0.00  0.00    -0.666 NA
ATOM     41  H   UNL     1       8.471  -2.369   5.412  0.00  0.00    +0.342 HD
ATOM     42  C   UNL     1       6.787  -3.417   5.972  0.00  0.00    +0.215 C 
ATOM     43  C   UNL     1       6.545  -3.850   4.525  0.00  0.00    +0.038 C 
ATOM     44  C   UNL     1       5.806  -0.322   3.358  0.00  0.00    -0.007 A 
BRANCH  30  31
ATOM     31  C   UNL     1       7.835   0.126   5.301  0.00  0.00    +0.085 C 
BRANCH  31  32
ATOM     32  C   UNL     1       8.389   0.523   6.645  0.00  0.00    -0.107 A 
ATOM     33  C   UNL     1       7.723   1.457   7.417  0.00  0.00    +0.047 A 
ATOM     34  C   UNL     1       8.228   1.823   8.649  0.00  0.00    -0.025 A 
ATOM     35  C   UNL     1       9.405   1.253   9.112  0.00  0.00    +0.122 A 
ATOM     38  C   UNL     1      10.072   0.316   8.336  0.00  0.00    -0.082 A 
ATOM     39  C   UNL     1       9.559  -0.051   7.107  0.00  0.00    +0.067 A 
BRANCH  35  36
ATOM     36  O   UNL     1       9.905   1.612  10.324  0.00  0.00    -0.320 OA
ATOM     37  C   UNL     1      11.121   0.984  10.736  0.00  0.00    +0.237 C 
ENDBRANCH  35  36
ENDBRANCH  31  32
ENDBRANCH  30  31
ENDBRANCH  24  25
ENDBRANCH  23  24
TORSDOF 9
