REMARK  Name = ZINC95486125
REMARK  10 active torsions:
REMARK  status: ('A' for Active; 'I' for Inactive)
REMARK    1  A    between atoms: C1_1  and  C2_2
REMARK    2  A    between atoms: C2_2  and  C4_4
REMARK    3  A    between atoms: C7_8  and  C32_40
REMARK    4  A    between atoms: C9_11  and  C31_39
REMARK    5  A    between atoms: C20_26  and  C30_38
REMARK    6  A    between atoms: C23_29  and  O1_34
REMARK    7  A    between atoms: C24_31  and  C25_32
REMARK    8  A    between atoms: C24_31  and  C26_33
REMARK    9  A    between atoms: O1_34  and  C27_35
REMARK   10  A    between atoms: C27_35  and  C29_37
REMARK                            x       y       z     vdW  Elec       q    Type
REMARK                         _______ _______ _______ _____ _____    ______ ____
ROOT
ATOM      3  C   UNL     1       0.574  -0.842  -1.805  0.00  0.00    +0.035 C 
ATOM      4  C   UNL     1      -0.283  -0.715  -3.083  0.00  0.00    +0.009 C 
ATOM      5  C   UNL     1       0.446   0.336  -3.945  0.00  0.00    +0.008 C 
ATOM      6  C   UNL     1       1.954   0.068  -3.636  0.00  0.00    -0.051 C 
ATOM      7  C   UNL     1       2.795   1.304  -3.983  0.00  0.00    +0.029 C 
ATOM      8  C   UNL     1       2.340  -1.143  -4.488  0.00  0.00    +0.014 C 
ATOM      9  C   UNL     1       3.644  -1.767  -4.008  0.00  0.00    +0.006 C 
ATOM     10  C   UNL     1       3.479  -2.259  -2.572  0.00  0.00    +0.002 C 
ATOM     11  C   UNL     1       2.418  -3.357  -2.506  0.00  0.00    +0.007 C 
ATOM     12  C   UNL     1       2.840  -4.502  -3.434  0.00  0.00    +0.005 C 
ATOM     13  C   UNL     1       1.767  -5.588  -3.413  0.00  0.00    +0.003 C 
ATOM     14  C   UNL     1       1.548  -6.143  -2.002  0.00  0.00    +0.025 C 
ATOM     15  C   UNL     1       1.272  -5.016  -1.014  0.00  0.00    -0.039 C 
ATOM     16  C   UNL     1       1.307  -5.534   0.434  0.00  0.00    +0.018 C 
ATOM     17  C   UNL     1      -0.091  -4.385  -1.287  0.00  0.00    +0.027 C 
ATOM     18  C   UNL     1      -1.192  -5.443  -1.223  0.00  0.00    -0.003 C 
ATOM     19  C   UNL     1      -0.934  -6.518  -2.272  0.00  0.00    +0.174 C 
ATOM     24  C   UNL     1       0.427  -7.179  -2.071  0.00  0.00    -0.046 C 
ATOM     25  C   UNL     1       0.395  -8.097  -0.847  0.00  0.00    +0.035 C 
ATOM     26  C   UNL     1       0.663  -8.109  -3.283  0.00  0.00    +0.021 C 
ATOM     27  C   UNL     1       2.354  -3.923  -1.091  0.00  0.00    +0.002 C 
ATOM     28  C   UNL     1       2.071  -2.833  -0.070  0.00  0.00    +0.005 C 
ATOM     29  C   UNL     1       2.930  -1.594  -0.224  0.00  0.00    +0.010 C 
ATOM     30  C   UNL     1       3.110  -1.102  -1.657  0.00  0.00    -0.031 C 
ATOM     31  C   UNL     1       4.349  -0.173  -1.593  0.00  0.00    +0.006 C 
ATOM     32  C   UNL     1       1.953  -0.270  -2.141  0.00  0.00    +0.013 C 
ENDROOT
BRANCH   3   2
ATOM      1  C   UNL     1      -0.279   1.447  -0.874  0.00  0.00    +0.067 C 
ATOM      2  C   UNL     1      -0.067  -0.035  -0.699  0.00  0.00    -0.106 C 
ATOM     33  C   UNL     1      -0.437  -0.623   0.411  0.00  0.00    -0.017 C 
ENDBRANCH   3   2
BRANCH  19  20
ATOM     20  O   UNL     1      -1.959  -7.515  -2.193  0.00  0.00    -0.315 OA
BRANCH  20  21
ATOM     21  C   UNL     1      -3.095  -7.288  -2.900  0.00  0.00    +0.085 C 
ATOM     22  C   UNL     1      -4.163  -8.349  -2.971  0.00  0.00    +0.128 C 
ATOM     23  C   UNL     1      -3.263  -6.141  -3.525  0.00  0.00    -0.125 C 
ENDBRANCH  20  21
ENDBRANCH  19  20
TORSDOF 3
