REMARK  Name = ZINC95486122
REMARK  5 active torsions:
REMARK  status: ('A' for Active; 'I' for Inactive)
REMARK    1  A    between atoms: C1_1  and  C2_2
REMARK    2  A    between atoms: C6_9  and  O3_22
REMARK    3  A    between atoms: C7_11  and  C12_21
REMARK    4  A    between atoms: C9_14  and  O2_20
REMARK    5  A    between atoms: C11_17  and  O1_19
REMARK                            x       y       z     vdW  Elec       q    Type
REMARK                         _______ _______ _______ _____ _____    ______ ____
ROOT
ATOM      1  C   UNL     1      -0.582   1.075  -0.237  0.00  0.00    +0.031 C 
ATOM      2  C   UNL     1      -0.261  -0.419  -0.154  0.00  0.00    -0.012 C 
ATOM      3  C   UNL     1      -1.562  -1.216  -0.028  0.00  0.00    +0.053 C 
ATOM      4  C   UNL     1      -1.257  -2.588   0.551  0.00  0.00    +0.188 C 
ATOM      5  C   UNL     1      -0.041  -3.262  -0.034  0.00  0.00    -0.020 C 
ATOM      6  C   UNL     1      -0.442  -4.724  -0.120  0.00  0.00    -0.229 C 
ATOM      7  C   UNL     1      -1.828  -4.759   0.400  0.00  0.00    +0.513 C 
ATOM      8  O   UNL     1      -2.408  -5.747   0.805  0.00  0.00    -0.444 OA
ATOM      9  C   UNL     1       0.288  -5.745  -0.563  0.00  0.00    +0.184 C 
ATOM     10  C   UNL     1       1.236  -3.084   0.747  0.00  0.00    +0.210 C 
ATOM     13  C   UNL     1       1.764  -1.662   0.587  0.00  0.00    -0.057 C 
ATOM     14  C   UNL     1       2.175  -1.381  -0.860  0.00  0.00    +0.066 C 
ATOM     15  C   UNL     1       2.922  -1.393   1.560  0.00  0.00    +0.174 C 
ATOM     18  C   UNL     1       2.671   0.068   2.135  0.00  0.00    -0.041 C 
ATOM     19  C   UNL     1       1.376   0.591   1.477  0.00  0.00    +0.174 C 
ATOM     22  O   UNL     1      -2.334  -3.511   0.332  0.00  0.00    -0.334 OA
ATOM     23  C   UNL     1       0.611  -0.687   1.075  0.00  0.00    +0.042 C 
ENDROOT
BRANCH  10  11
ATOM     11  O   UNL     1       0.984  -3.338   2.130  0.00  0.00    -0.523 OA
ATOM     12  H   UNL     1       0.658  -4.230   2.313  0.00  0.00    +0.366 HD
ENDBRANCH  10  11
BRANCH  15  16
ATOM     16  O   UNL     1       2.903  -2.352   2.619  0.00  0.00    -0.526 OA
ATOM     17  H   UNL     1       3.611  -2.235   3.268  0.00  0.00    +0.366 HD
ENDBRANCH  15  16
BRANCH  19  20
ATOM     20  O   UNL     1       0.613   1.358   2.410  0.00  0.00    -0.557 OA
ATOM     21  H   UNL     1       1.047   2.173   2.697  0.00  0.00    +0.376 HD
ENDBRANCH  19  20
TORSDOF 3
