REMARK  Name = ZINC95485971
REMARK  9 active torsions:
REMARK  status: ('A' for Active; 'I' for Inactive)
REMARK    1  A    between atoms: C1_1  and  C2_2
REMARK    2  A    between atoms: C2_2  and  C19_25
REMARK    3  A    between atoms: C3_3  and  C4_4
REMARK    4  A    between atoms: C4_4  and  C5_5
REMARK    5  A    between atoms: C5_5  and  C6_6
REMARK    6  A    between atoms: C7_7  and  O6_24
REMARK    7  A    between atoms: C11_11  and  O1_12
REMARK    8  A    between atoms: C15_17  and  O5_23
REMARK    9  A    between atoms: C16_18  and  O4_22
REMARK                            x       y       z     vdW  Elec       q    Type
REMARK                         _______ _______ _______ _____ _____    ______ ____
ROOT
ATOM      7  C   UNL     1      -0.876   0.170   4.707  0.00  0.00    -0.168 A 
ATOM      8  C   UNL     1      -0.006  -0.213   5.721  0.00  0.00    +0.196 A 
ATOM     11  C   UNL     1       0.007   0.456   6.935  0.00  0.00    -0.027 A 
ATOM     12  C   UNL     1      -0.852   1.525   7.153  0.00  0.00    +0.188 A 
ATOM     13  C   UNL     1      -1.725   1.918   6.123  0.00  0.00    -0.265 A 
ATOM     14  C   UNL     1      -2.615   3.070   6.358  0.00  0.00    +0.444 A 
ATOM     15  C   UNL     1      -2.311   3.888   7.551  0.00  0.00    -0.216 A 
ATOM     16  C   UNL     1      -2.905   5.137   7.733  0.00  0.00    +0.116 A 
ATOM     17  C   UNL     1      -2.597   5.882   8.853  0.00  0.00    +0.055 A 
ATOM     20  C   UNL     1      -1.694   5.383   9.795  0.00  0.00    +0.151 A 
ATOM     23  C   UNL     1      -1.105   4.144   9.619  0.00  0.00    -0.002 A 
ATOM     24  C   UNL     1      -1.408   3.380   8.498  0.00  0.00    +0.167 A 
ATOM     25  O   UNL     1      -3.543   3.331   5.615  0.00  0.00    -0.431 OA
ATOM     26  O   UNL     1      -0.842   2.165   8.339  0.00  0.00    -0.221 OA
ATOM     27  C   UNL     1      -1.736   1.236   4.900  0.00  0.00    +0.222 A 
ENDROOT
BRANCH   8   9
ATOM      9  O   UNL     1       0.841  -1.255   5.520  0.00  0.00    -0.484 OA
ATOM     10  H   UNL     1       1.696  -1.000   5.149  0.00  0.00    +0.403 HD
ENDBRANCH   8   9
BRANCH  17  18
ATOM     18  O   UNL     1      -3.171   7.101   9.039  0.00  0.00    -0.479 OA
ATOM     19  H   UNL     1      -4.004   7.072   9.530  0.00  0.00    +0.391 HD
ENDBRANCH  17  18
BRANCH  20  21
ATOM     21  O   UNL     1      -1.391   6.121  10.894  0.00  0.00    -0.479 OA
ATOM     22  H   UNL     1      -1.970   5.956  11.650  0.00  0.00    +0.399 HD
ENDBRANCH  20  21
BRANCH  27  28
ATOM     28  O   UNL     1      -2.586   1.616   3.913  0.00  0.00    -0.472 OA
ATOM     29  H   UNL     1      -3.446   1.175   3.943  0.00  0.00    +0.403 HD
ENDBRANCH  27  28
BRANCH   7   6
ATOM      6  C   UNL     1      -0.879  -0.572   3.395  0.00  0.00    +0.098 C 
BRANCH   6   5
ATOM      5  C   UNL     1       0.123   0.078   2.439  0.00  0.00    +0.055 C 
BRANCH   5   4
ATOM      1  C   UNL     1      -0.201   1.487   0.018  0.00  0.00    +0.073 C 
ATOM      2  C   UNL     1      -0.087  -0.015   0.009  0.00  0.00    -0.126 C 
ATOM      3  C   UNL     1      -0.213  -0.772  -1.289  0.00  0.00    +0.072 C 
ATOM      4  C   UNL     1       0.121  -0.664   1.128  0.00  0.00    -0.063 C 
ENDBRANCH   5   4
ENDBRANCH   6   5
ENDBRANCH   7   6
TORSDOF 7
