REMARK  Name = ZINC95486038
REMARK  8 active torsions:
REMARK  status: ('A' for Active; 'I' for Inactive)
REMARK    1  A    between atoms: C1_1  and  C2_2
REMARK    2  A    between atoms: C2_2  and  C3_4
REMARK    3  A    between atoms: C2_2  and  O2_8
REMARK    4  A    between atoms: C3_4  and  C5_6
REMARK    5  A    between atoms: C5_6  and  O1_7
REMARK    6  A    between atoms: O2_8  and  C6_9
REMARK    7  A    between atoms: C9_13  and  O8_33
REMARK    8  A    between atoms: C20_30  and  O7_32
REMARK                            x       y       z     vdW  Elec       q    Type
REMARK                         _______ _______ _______ _____ _____    ______ ____
ROOT
ATOM      4  C   UNL     1      -0.068  -0.659   2.369  0.00  0.00    +0.215 C 
ATOM      5  C   UNL     1      -0.559  -2.095   2.404  0.00  0.00    +0.083 C 
ATOM      6  C   UNL     1      -2.054  -2.194   2.726  0.00  0.00    +0.045 C 
ATOM      7  C   UNL     1      -2.337  -2.810   4.104  0.00  0.00    +0.349 C 
ATOM     10  O   UNL     1      -3.132  -1.978   4.930  0.00  0.00    -0.396 OA
ATOM     11  C   UNL     1      -2.455  -0.854   5.507  0.00  0.00    +0.288 C 
ATOM     12  C   UNL     1      -2.434   0.248   4.474  0.00  0.00    -0.127 C 
ATOM     13  C   UNL     1      -3.755   0.592   3.797  0.00  0.00    +0.098 C 
ATOM     14  C   UNL     1      -4.168  -0.612   2.934  0.00  0.00    +0.076 C 
ATOM     15  C   UNL     1      -1.365   0.882   4.113  0.00  0.00    -0.027 C 
ATOM     16  C   UNL     1       0.032   0.613   4.578  0.00  0.00    +0.235 C 
ATOM     17  O   UNL     1       0.109  -0.094   5.805  0.00  0.00    -0.318 OA
ATOM     18  C   UNL     1       0.853  -1.205   5.700  0.00  0.00    +0.506 C 
ATOM     19  O   UNL     1       1.051  -1.989   6.606  0.00  0.00    -0.448 OA
ATOM     20  C   UNL     1       1.414  -1.334   4.346  0.00  0.00    -0.232 C 
ATOM     21  C   UNL     1       2.313  -2.234   3.949  0.00  0.00    +0.213 C 
ATOM     22  O   UNL     1      -3.001  -2.524   1.713  0.00  0.00    -0.329 OA
ATOM     23  C   UNL     1      -2.987  -1.150   2.133  0.00  0.00    +0.213 C 
ATOM     26  C   UNL     1       0.800  -0.223   3.533  0.00  0.00    +0.012 C 
ENDROOT
BRANCH   7   8
ATOM      8  O   UNL     1      -3.007  -4.061   3.918  0.00  0.00    -0.530 OA
ATOM      9  H   UNL     1      -3.223  -4.517   4.742  0.00  0.00    +0.390 HD
ENDBRANCH   7   8
BRANCH  23  24
ATOM     24  O   UNL     1      -2.547  -0.264   1.086  0.00  0.00    -0.525 OA
ATOM     25  H   UNL     1      -3.224   0.357   0.787  0.00  0.00    +0.390 HD
ENDBRANCH  23  24
BRANCH   4   3
ATOM      3  O   UNL     1       0.693  -0.477   1.160  0.00  0.00    -0.371 OA
BRANCH   3   2
ATOM      1  C   UNL     1       1.448   1.809   0.946  0.00  0.00    +0.015 C 
ATOM      2  C   UNL     1       0.434   0.758   0.490  0.00  0.00    +0.210 C 
BRANCH   2  27
ATOM     27  C   UNL     1       0.554   0.557  -0.999  0.00  0.00    -0.138 C 
ATOM     31  C   UNL     1      -0.441   0.883  -1.787  0.00  0.00    +0.062 C 
BRANCH  27  28
ATOM     28  C   UNL     1       1.819  -0.019  -1.582  0.00  0.00    +0.231 C 
BRANCH  28  29
ATOM     29  O   UNL     1       1.690  -0.112  -3.002  0.00  0.00    -0.573 OA
ATOM     30  H   UNL     1       2.469  -0.475  -3.445  0.00  0.00    +0.383 HD
ENDBRANCH  28  29
ENDBRANCH  27  28
ENDBRANCH   2  27
ENDBRANCH   3   2
ENDBRANCH   4   3
TORSDOF 7
