REMARK  Name = ZINC18847046
REMARK  3 active torsions:
REMARK  status: ('A' for Active; 'I' for Inactive)
REMARK    1  A    between atoms: C1_1  and  C2_2
REMARK    2  A    between atoms: C10_11  and  O1_16
REMARK    3  A    between atoms: O1_16  and  C13_17
REMARK                            x       y       z     vdW  Elec       q    Type
REMARK                         _______ _______ _______ _____ _____    ______ ____
ROOT
ATOM      1  C   UNL     1      -0.018   1.503   0.010  0.00  0.00    +0.184 C 
ATOM      2  C   UNL     1       0.002  -0.004   0.002  0.00  0.00    +0.156 A 
ATOM      3  C   UNL     1       0.006  -0.687  -1.208  0.00  0.00    +0.115 A 
ATOM      4  C   UNL     1       0.025  -2.092  -1.186  0.00  0.00    +0.019 A 
ATOM      5  C   UNL     1       0.024  -2.535  -2.588  0.00  0.00    -0.167 A 
ATOM      6  C   UNL     1       0.037  -3.787  -3.200  0.00  0.00    +0.150 A 
ATOM      7  C   UNL     1       0.031  -3.881  -4.573  0.00  0.00    -0.067 A 
ATOM      8  C   UNL     1       0.011  -2.728  -5.354  0.00  0.00    +0.206 A 
ATOM     11  C   UNL     1      -0.003  -1.480  -4.759  0.00  0.00    -0.036 A 
ATOM     12  C   UNL     1       0.003  -1.370  -3.372  0.00  0.00    +0.206 A 
ATOM     13  C   UNL     1       0.041  -2.743   0.047  0.00  0.00    +0.105 A 
ATOM     14  C   UNL     1       0.036  -1.984   1.198  0.00  0.00    +0.295 A 
ATOM     15  N   UNL     1      -0.007  -0.274  -2.528  0.00  0.00    -0.584 N 
ATOM     16  H   UNL     1      -0.022   0.651  -2.820  0.00  0.00    +0.436 HD
ATOM     17  N   UNL     1       0.022  -0.663   1.142  0.00  0.00    -0.430 N 
ATOM     18  H   UNL     1       0.023  -0.161   1.972  0.00  0.00    +0.451 HD
ENDROOT
BRANCH   8   9
ATOM      9  O   UNL     1       0.006  -2.830  -6.709  0.00  0.00    -0.303 OA
ATOM     10  C   UNL     1       0.021  -4.149  -7.260  0.00  0.00    +0.264 C 
ENDBRANCH   8   9
TORSDOF 1
