REMARK  Name = ZINC14684215
REMARK  2 active torsions:
REMARK  status: ('A' for Active; 'I' for Inactive)
REMARK    1  A    between atoms: C1_1  and  O1_2
REMARK    2  A    between atoms: O1_2  and  C2_3
REMARK                            x       y       z     vdW  Elec       q    Type
REMARK                         _______ _______ _______ _____ _____    ______ ____
ROOT
ATOM      3  C   UNL     1       2.385   1.411  -0.012  0.00  0.00    +0.172 A 
ATOM      4  C   UNL     1       2.400   0.019  -0.020  0.00  0.00    -0.096 A 
ATOM      5  C   UNL     1       1.218  -0.686  -0.013  0.00  0.00    +0.120 A 
ATOM      6  C   UNL     1       0.002  -0.004   0.002  0.00  0.00    -0.148 A 
ATOM      7  C   UNL     1      -1.403  -0.439   0.013  0.00  0.00    -0.057 A 
ATOM      8  C   UNL     1      -2.045  -1.677   0.012  0.00  0.00    +0.021 A 
ATOM      9  C   UNL     1      -3.423  -1.709   0.025  0.00  0.00    +0.222 A 
ATOM     10  N   UNL     1      -4.129  -0.592   0.038  0.00  0.00    -0.457 NA
ATOM     11  C   UNL     1      -3.568   0.600   0.039  0.00  0.00    +0.255 A 
ATOM     12  C   UNL     1      -2.185   0.729   0.027  0.00  0.00    +0.080 A 
ATOM     13  N   UNL     1      -1.335   1.819   0.030  0.00  0.00    -0.605 N 
ATOM     14  H   UNL     1      -1.622   2.746   0.039  0.00  0.00    +0.422 HD
ATOM     15  C   UNL     1      -0.017   1.400   0.010  0.00  0.00    +0.189 A 
ATOM     16  C   UNL     1       1.186   2.099   0.002  0.00  0.00    -0.051 A 
ENDROOT
BRANCH   3   2
ATOM      1  C   UNL     1       4.761   1.328  -0.034  0.00  0.00    +0.247 C 
ATOM      2  O   UNL     1       3.557   2.098  -0.018  0.00  0.00    -0.314 OA
ENDBRANCH   3   2
TORSDOF 1
