REMARK  Name = ZINC15257800
REMARK  9 active torsions:
REMARK  status: ('A' for Active; 'I' for Inactive)
REMARK    1  A    between atoms: C1_1  and  C2_2
REMARK    2  A    between atoms: C2_2  and  C3_3
REMARK    3  A    between atoms: C2_2  and  C4_4
REMARK    4  A    between atoms: C2_2  and  O5_21
REMARK    5  A    between atoms: C5_5  and  C6_6
REMARK    6  A    between atoms: C7_7  and  O4_19
REMARK    7  A    between atoms: C9_9  and  O3_17
REMARK    8  A    between atoms: O3_17  and  C15_18
REMARK    9  A    between atoms: O4_19  and  C16_20
REMARK                            x       y       z     vdW  Elec       q    Type
REMARK                         _______ _______ _______ _____ _____    ______ ____
ROOT
ATOM      7  C   UNL     1      -4.634   0.373   1.684  0.00  0.00    -0.144 A 
ATOM      8  C   UNL     1      -3.903  -0.033   0.561  0.00  0.00    +0.234 A 
ATOM     11  C   UNL     1      -2.583   0.363   0.401  0.00  0.00    -0.175 A 
ATOM     12  C   UNL     1      -1.973   1.164   1.348  0.00  0.00    +0.236 A 
ATOM     15  C   UNL     1      -2.691   1.576   2.486  0.00  0.00    -0.223 A 
ATOM     16  C   UNL     1      -2.078   2.393   3.471  0.00  0.00    +0.180 A 
ATOM     17  C   UNL     1      -2.805   2.769   4.555  0.00  0.00    -0.109 A 
ATOM     18  C   UNL     1      -4.143   2.347   4.683  0.00  0.00    +0.508 A 
ATOM     19  O   UNL     1      -4.789   2.688   5.657  0.00  0.00    -0.461 OA
ATOM     20  O   UNL     1      -4.721   1.582   3.740  0.00  0.00    -0.257 OA
ATOM     21  C   UNL     1      -4.029   1.183   2.651  0.00  0.00    +0.233 A 
ENDROOT
BRANCH   7   6
ATOM      5  C   UNL     1      -6.899   0.101   0.851  0.00  0.00    -0.010 C 
ATOM      6  C   UNL     1      -6.037  -0.054   1.848  0.00  0.00    +0.055 C 
BRANCH   5   2
ATOM      1  C   UNL     1      -9.256   0.871   0.832  0.00  0.00    +0.018 C 
ATOM      2  C   UNL     1      -8.332  -0.334   1.018  0.00  0.00    +0.159 C 
ATOM     22  C   UNL     1      -8.667  -1.399  -0.028  0.00  0.00    +0.019 C 
BRANCH   2   3
ATOM      3  O   UNL     1      -8.515  -0.878   2.327  0.00  0.00    -0.558 OA
ATOM      4  H   UNL     1      -9.416  -1.179   2.505  0.00  0.00    +0.378 HD
ENDBRANCH   2   3
ENDBRANCH   5   2
ENDBRANCH   7   6
BRANCH   8   9
ATOM      9  O   UNL     1      -4.490  -0.819  -0.377  0.00  0.00    -0.291 OA
ATOM     10  C   UNL     1      -3.689  -1.198  -1.498  0.00  0.00    +0.251 C 
ENDBRANCH   8   9
BRANCH  12  13
ATOM     13  O   UNL     1      -0.682   1.547   1.184  0.00  0.00    -0.301 OA
ATOM     14  C   UNL     1      -0.013   1.086   0.008  0.00  0.00    +0.258 C 
ENDBRANCH  12  13
TORSDOF 5
