REMARK  Name = ZINC95486133
REMARK  7 active torsions:
REMARK  status: ('A' for Active; 'I' for Inactive)
REMARK    1  A    between atoms: C1_1  and  C2_2
REMARK    2  A    between atoms: C6_7  and  C20_25
REMARK    3  A    between atoms: C10_11  and  C18_21
REMARK    4  A    between atoms: C11_12  and  C12_13
REMARK    5  A    between atoms: C11_12  and  O2_20
REMARK    6  A    between atoms: C12_13  and  C13_14
REMARK    7  A    between atoms: C13_14  and  C14_15
REMARK                            x       y       z     vdW  Elec       q    Type
REMARK                         _______ _______ _______ _____ _____    ______ ____
ROOT
ATOM      1  C   UNL     1      -1.052   1.870   1.830  0.00  0.00    +0.014 C 
ATOM      2  C   UNL     1      -0.824   0.383   1.495  0.00  0.00    -0.029 C 
ATOM      3  C   UNL     1      -2.011  -0.393   2.027  0.00  0.00    +0.036 C 
ATOM      4  C   UNL     1      -1.803  -1.910   2.167  0.00  0.00    +0.025 C 
ATOM      5  C   UNL     1      -0.465  -2.087   2.876  0.00  0.00    +0.061 C 
ATOM      6  C   UNL     1      -0.038  -3.351   3.598  0.00  0.00    -0.126 C 
ATOM      7  C   UNL     1       0.910  -3.008   4.748  0.00  0.00    +0.081 C 
ATOM      8  C   UNL     1      -1.324  -2.990   4.161  0.00  0.00    +0.510 C 
ATOM      9  O   UNL     1      -2.373  -3.504   4.433  0.00  0.00    -0.412 OA
ATOM     10  C   UNL     1       0.639  -4.320   2.737  0.00  0.00    +0.044 C 
ATOM     11  C   UNL     1       1.940  -3.700   2.192  0.00  0.00    +0.030 C 
ATOM     12  C   UNL     1       1.989  -2.170   2.275  0.00  0.00    +0.037 C 
ATOM     13  O   UNL     1      -0.677  -1.754   4.250  0.00  0.00    -0.312 OA
ATOM     14  C   UNL     1       0.641  -1.543   1.997  0.00  0.00    -0.003 C 
ATOM     15  C   UNL     1       0.353  -1.911   0.533  0.00  0.00    +0.047 C 
ATOM     16  C   UNL     1       0.538  -0.022   2.081  0.00  0.00    +0.155 C 
ENDROOT
BRANCH  16  17
ATOM     17  O   UNL     1       0.640   0.397   3.446  0.00  0.00    -0.538 OA
ATOM     18  H   UNL     1       0.558   1.352   3.572  0.00  0.00    +0.370 HD
ENDBRANCH  16  17
BRANCH  16  19
ATOM     19  C   UNL     1       1.666   0.624   1.265  0.00  0.00    +0.014 C 
BRANCH  19  20
ATOM     20  C   UNL     1       1.576   2.147   1.388  0.00  0.00    +0.098 C 
BRANCH  20  21
ATOM     21  C   UNL     1       2.949   2.746   1.222  0.00  0.00    -0.179 A 
ATOM     22  C   UNL     1       3.889   2.996   2.248  0.00  0.00    -0.062 A 
ATOM     23  C   UNL     1       4.973   3.533   1.661  0.00  0.00    +0.161 A 
ATOM     24  O   UNL     1       4.741   3.621   0.341  0.00  0.00    -0.178 OA
ATOM     25  C   UNL     1       3.517   3.141   0.069  0.00  0.00    +0.155 A 
ENDBRANCH  20  21
ENDBRANCH  19  20
ENDBRANCH  16  19
TORSDOF 4
