REMARK  Name = ZINC95486332
REMARK  7 active torsions:
REMARK  status: ('A' for Active; 'I' for Inactive)
REMARK    1  A    between atoms: C1_1  and  C2_2
REMARK    2  A    between atoms: C2_2  and  C3_4
REMARK    3  A    between atoms: C15_20  and  O7_30
REMARK    4  A    between atoms: C16_21  and  O6_28
REMARK    5  A    between atoms: C19_24  and  O5_27
REMARK    6  A    between atoms: O6_28  and  C21_29
REMARK    7  A    between atoms: O7_30  and  C22_31
REMARK                            x       y       z     vdW  Elec       q    Type
REMARK                         _______ _______ _______ _____ _____    ______ ____
ROOT
ATOM      3  C   UNL     1      -0.000  -0.750  -1.307  0.00  0.00    +0.149 C 
ATOM      4  C   UNL     1       1.433  -0.835  -1.892  0.00  0.00    +0.124 C 
ATOM      5  C   UNL     1       1.440  -2.214  -2.494  0.00  0.00    -0.227 A 
ATOM      6  C   UNL     1       0.336  -2.900  -1.973  0.00  0.00    +0.188 A 
ATOM      7  C   UNL     1       0.072  -4.221  -2.360  0.00  0.00    -0.022 A 
ATOM      8  C   UNL     1       0.927  -4.811  -3.253  0.00  0.00    +0.160 A 
ATOM      9  C   UNL     1       2.031  -4.131  -3.771  0.00  0.00    -0.278 A 
ATOM     10  C   UNL     1       2.936  -4.799  -4.728  0.00  0.00    +0.392 C 
ATOM     11  O   UNL     1       2.654  -5.851  -5.262  0.00  0.00    -0.423 OA
ATOM     12  C   UNL     1       4.241  -4.078  -4.994  0.00  0.00    +0.115 C 
ATOM     15  C   UNL     1       4.865  -4.549  -6.275  0.00  0.00    -0.204 A 
ATOM     16  C   UNL     1       4.831  -5.894  -6.601  0.00  0.00    +0.047 A 
ATOM     17  C   UNL     1       5.428  -6.347  -7.764  0.00  0.00    +0.069 A 
ATOM     20  C   UNL     1       6.066  -5.444  -8.610  0.00  0.00    +0.155 A 
ATOM     23  C   UNL     1       6.096  -4.100  -8.286  0.00  0.00    -0.061 A 
ATOM     24  C   UNL     1       5.493  -3.644  -7.117  0.00  0.00    +0.158 A 
ATOM     25  O   UNL     1       5.542  -2.313  -6.847  0.00  0.00    -0.298 OA
ATOM     26  C   UNL     1       5.172  -1.857  -5.542  0.00  0.00    +0.305 C 
ATOM     27  C   UNL     1       3.894  -2.586  -5.136  0.00  0.00    +0.175 C 
ATOM     28  O   UNL     1       3.364  -2.120  -3.900  0.00  0.00    -0.273 OA
ATOM     29  C   UNL     1       2.306  -2.797  -3.395  0.00  0.00    +0.239 A 
ATOM     30  O   UNL     1      -0.356  -2.132  -1.105  0.00  0.00    -0.269 OA
ENDROOT
BRANCH   3   2
ATOM      1  C   UNL     1      -0.018   1.503   0.010  0.00  0.00    +0.094 C 
ATOM      2  C   UNL     1       0.002  -0.004   0.002  0.00  0.00    +0.357 C 
ATOM     31  O   UNL     1       0.020  -0.613   1.044  0.00  0.00    -0.426 OA
ENDBRANCH   3   2
BRANCH  12  13
ATOM     13  O   UNL     1       5.144  -4.265  -3.902  0.00  0.00    -0.515 OA
ATOM     14  H   UNL     1       5.402  -5.186  -3.759  0.00  0.00    +0.389 HD
ENDBRANCH  12  13
BRANCH  17  18
ATOM     18  O   UNL     1       5.393  -7.670  -8.079  0.00  0.00    -0.303 OA
ATOM     19  C   UNL     1       4.721  -8.538  -7.164  0.00  0.00    +0.239 C 
ENDBRANCH  17  18
BRANCH  20  21
ATOM     21  O   UNL     1       6.657  -5.883  -9.753  0.00  0.00    -0.297 OA
ATOM     22  C   UNL     1       7.292  -4.900 -10.573  0.00  0.00    +0.245 C 
ENDBRANCH  20  21
TORSDOF 4
