REMARK  Name = ZINC95485895
REMARK  13 active torsions:
REMARK  status: ('A' for Active; 'I' for Inactive)
REMARK    1  A    between atoms: C1_1  and  C2_2
REMARK    2  A    between atoms: C2_2  and  C4_4
REMARK    3  A    between atoms: C7_8  and  C39_48
REMARK    4  A    between atoms: C13_17  and  C38_47
REMARK    5  A    between atoms: C16_20  and  O1_35
REMARK    6  A    between atoms: C17_22  and  C27_33
REMARK    7  A    between atoms: C17_22  and  C28_34
REMARK    8  A    between atoms: C21_27  and  C26_32
REMARK    9  A    between atoms: C22_28  and  C25_31
REMARK   10  A    between atoms: O1_35  and  C29_36
REMARK   11  A    between atoms: C29_36  and  C30_38
REMARK   12  A    between atoms: C31_39  and  C32_40
REMARK   13  A    between atoms: C35_43  and  O3_46
REMARK                            x       y       z     vdW  Elec       q    Type
REMARK                         _______ _______ _______ _____ _____    ______ ____
ROOT
ATOM      3  C   UNL     1       0.668  -0.755  -2.079  0.00  0.00    +0.015 C 
ATOM      4  C   UNL     1      -0.215  -0.447  -3.321  0.00  0.00    +0.016 C 
ATOM      5  C   UNL     1       0.775  -0.158  -4.484  0.00  0.00    -0.006 C 
ATOM      6  C   UNL     1       1.986   0.451  -3.729  0.00  0.00    -0.124 C 
ATOM     10  C   UNL     1       3.271   0.446  -4.527  0.00  0.00    +0.001 C 
ATOM     11  C   UNL     1       4.490   0.625  -3.612  0.00  0.00    +0.025 C 
ATOM     12  C   UNL     1       4.543  -0.420  -2.502  0.00  0.00    -0.036 C 
ATOM     13  C   UNL     1       4.646  -1.803  -3.159  0.00  0.00    +0.002 C 
ATOM     14  C   UNL     1       5.788  -0.255  -1.618  0.00  0.00    -0.024 C 
ATOM     15  C   UNL     1       6.991  -0.384  -2.560  0.00  0.00    +0.010 C 
ATOM     16  C   UNL     1       5.840  -1.386  -0.590  0.00  0.00    +0.006 C 
ATOM     17  C   UNL     1       7.050  -1.236   0.336  0.00  0.00    +0.010 C 
ATOM     18  C   UNL     1       7.021   0.091   1.093  0.00  0.00    +0.020 C 
ATOM     19  C   UNL     1       8.193   0.183   2.058  0.00  0.00    -0.044 C 
ATOM     20  C   UNL     1       8.443  -1.203   2.704  0.00  0.00    +0.022 C 
ATOM     21  C   UNL     1       7.870   1.116   3.237  0.00  0.00    +0.032 C 
ATOM     22  C   UNL     1       9.508   0.607   1.420  0.00  0.00    +0.183 C 
ATOM     36  C   UNL     1       9.369   1.755   0.432  0.00  0.00    +0.002 C 
ATOM     37  C   UNL     1       8.295   1.403  -0.606  0.00  0.00    +0.032 C 
ATOM     38  C   UNL     1       6.952   1.246   0.100  0.00  0.00    -0.034 C 
ATOM     39  C   UNL     1       6.689   2.576   0.841  0.00  0.00    +0.011 C 
ATOM     40  C   UNL     1       5.780   1.069  -0.871  0.00  0.00    +0.020 C 
ATOM     41  C   UNL     1       4.483   1.136  -0.043  0.00  0.00    -0.015 C 
ATOM     42  C   UNL     1       3.274   1.046  -0.988  0.00  0.00    +0.031 C 
ATOM     43  C   UNL     1       3.254  -0.322  -1.661  0.00  0.00    +0.017 C 
ATOM     44  C   UNL     1       2.090  -0.553  -2.569  0.00  0.00    -0.012 C 
ENDROOT
BRANCH   3   2
ATOM      1  C   UNL     1       0.743  -0.267   0.472  0.00  0.00    +0.046 C 
ATOM      2  C   UNL     1       0.261   0.084  -0.912  0.00  0.00    -0.150 C 
ATOM     45  C   UNL     1      -0.514   1.124  -1.092  0.00  0.00    +0.057 C 
ENDBRANCH   3   2
BRANCH   6   7
ATOM      7  C   UNL     1       1.603   1.852  -3.340  0.00  0.00    +0.521 C 
ATOM      8  O   UNL     1       2.465   2.703  -3.201  0.00  0.00    -0.692 OA
ATOM      9  O   UNL     1       0.431   2.137  -3.163  0.00  0.00    -0.684 OA
ENDBRANCH   6   7
BRANCH  22  23
ATOM     23  O   UNL     1      10.108  -0.518   0.766  0.00  0.00    -0.335 OA
BRANCH  23  24
ATOM     24  C   UNL     1      11.455  -0.598   0.798  0.00  0.00    +0.498 C 
ATOM     35  O   UNL     1      12.102   0.262   1.366  0.00  0.00    -0.518 OA
BRANCH  24  25
ATOM     25  C   UNL     1      12.115  -1.684   0.171  0.00  0.00    -0.061 C 
ATOM     26  C   UNL     1      13.463  -1.765   0.203  0.00  0.00    +0.143 C 
BRANCH  26  27
ATOM     27  C   UNL     1      14.148  -2.891  -0.448  0.00  0.00    -0.093 A 
ATOM     28  C   UNL     1      13.406  -3.878  -1.106  0.00  0.00    +0.060 A 
ATOM     29  C   UNL     1      14.052  -4.931  -1.714  0.00  0.00    -0.013 A 
ATOM     30  C   UNL     1      15.440  -5.014  -1.674  0.00  0.00    +0.122 A 
ATOM     33  C   UNL     1      16.181  -4.037  -1.021  0.00  0.00    -0.017 A 
ATOM     34  C   UNL     1      15.545  -2.976  -0.415  0.00  0.00    +0.062 A 
BRANCH  30  31
ATOM     31  O   UNL     1      16.072  -6.055  -2.274  0.00  0.00    -0.499 OA
ATOM     32  H   UNL     1      16.305  -5.893  -3.199  0.00  0.00    +0.395 HD
ENDBRANCH  30  31
ENDBRANCH  26  27
ENDBRANCH  24  25
ENDBRANCH  23  24
ENDBRANCH  22  23
TORSDOF 7
