REMARK  Name = ZINC95486033
REMARK  28 active torsions:
REMARK  status: ('A' for Active; 'I' for Inactive)
REMARK    1  A    between atoms: C1_1  and  C2_2
REMARK    2  A    between atoms: C2_2  and  C17_22
REMARK    3  A    between atoms: C3_3  and  C4_4
REMARK    4  A    between atoms: C4_4  and  C5_5
REMARK    5  A    between atoms: C5_5  and  C6_6
REMARK    6  A    between atoms: C7_7  and  C8_8
REMARK    7  A    between atoms: C7_7  and  C9_9
REMARK    8  A    between atoms: C9_9  and  C10_10
REMARK    9  A    between atoms: C10_10  and  C11_11
REMARK   10  A    between atoms: C11_11  and  C12_13
REMARK   11  A    between atoms: C11_11  and  O4_21
REMARK   12  A    between atoms: C12_13  and  C13_14
REMARK   13  A    between atoms: C12_13  and  C14_15
REMARK   14  A    between atoms: C12_13  and  O3_20
REMARK   15  A    between atoms: C14_15  and  O1_16
REMARK   16  A    between atoms: O1_16  and  C15_17
REMARK   17  A    between atoms: C15_17  and  C16_19
REMARK   18  A    between atoms: C17_22  and  C18_23
REMARK   19  A    between atoms: C18_23  and  C19_24
REMARK   20  A    between atoms: C20_25  and  C21_26
REMARK   21  A    between atoms: C20_25  and  C22_27
REMARK   22  A    between atoms: C22_27  and  C23_28
REMARK   23  A    between atoms: C23_28  and  C24_29
REMARK   24  A    between atoms: C24_29  and  C25_31
REMARK   25  A    between atoms: C24_29  and  O6_35
REMARK   26  A    between atoms: C25_31  and  C26_32
REMARK   27  A    between atoms: C25_31  and  C27_33
REMARK   28  A    between atoms: C25_31  and  O5_34
REMARK                            x       y       z     vdW  Elec       q    Type
REMARK                         _______ _______ _______ _____ _____    ______ ____
ROOT
ATOM     19  C   UNL     1      -1.837  -0.248   2.590  0.00  0.00    +0.049 C 
ENDROOT
BRANCH  19  18
ATOM      1  C   UNL     1      -2.754   0.125  -0.050  0.00  0.00    +0.072 C 
ATOM      2  C   UNL     1      -1.918  -1.080   0.296  0.00  0.00    -0.127 C 
ATOM     18  C   UNL     1      -1.444  -1.222   1.509  0.00  0.00    -0.057 C 
BRANCH   2   3
ATOM      3  C   UNL     1      -1.627  -2.122  -0.753  0.00  0.00    +0.057 C 
BRANCH   3   4
ATOM      4  C   UNL     1      -2.782  -3.123  -0.812  0.00  0.00    +0.054 C 
BRANCH   4   5
ATOM      5  C   UNL     1      -2.491  -4.165  -1.862  0.00  0.00    -0.055 C 
ATOM      6  C   UNL     1      -2.358  -5.422  -1.518  0.00  0.00    -0.127 C 
ATOM     17  C   UNL     1      -2.504  -5.827  -0.073  0.00  0.00    +0.071 C 
BRANCH   6   7
ATOM      7  C   UNL     1      -2.058  -6.462  -2.566  0.00  0.00    +0.059 C 
BRANCH   7   8
ATOM      8  C   UNL     1      -0.548  -6.700  -2.632  0.00  0.00    +0.007 C 
BRANCH   8   9
ATOM      9  C   UNL     1      -0.244  -7.756  -3.696  0.00  0.00    +0.186 C 
BRANCH   9  12
ATOM     12  C   UNL     1       1.250  -8.085  -3.677  0.00  0.00    +0.096 C 
ATOM     15  C   UNL     1       1.554  -9.141  -4.741  0.00  0.00    +0.018 C 
ATOM     16  C   UNL     1       1.636  -8.624  -2.298  0.00  0.00    +0.062 C 
BRANCH  12  13
ATOM     13  O   UNL     1       2.001  -6.901  -3.953  0.00  0.00    -0.555 OA
ATOM     14  H   UNL     1       1.808  -6.503  -4.813  0.00  0.00    +0.372 HD
ENDBRANCH  12  13
ENDBRANCH   9  12
BRANCH   9  10
ATOM     10  O   UNL     1      -0.605  -7.253  -4.984  0.00  0.00    -0.555 OA
ATOM     11  H   UNL     1      -0.133  -6.448  -5.238  0.00  0.00    +0.370 HD
ENDBRANCH   9  10
ENDBRANCH   8   9
ENDBRANCH   7   8
ENDBRANCH   6   7
ENDBRANCH   4   5
ENDBRANCH   3   4
ENDBRANCH   2   3
ENDBRANCH  19  18
BRANCH  19  20
ATOM     20  C   UNL     1      -2.558  -0.997   3.713  0.00  0.00    +0.053 C 
BRANCH  20  21
ATOM     21  C   UNL     1      -2.951  -0.023   4.794  0.00  0.00    -0.055 C 
ATOM     22  C   UNL     1      -4.214   0.138   5.103  0.00  0.00    -0.127 C 
ATOM     37  C   UNL     1      -5.278  -0.603   4.336  0.00  0.00    +0.072 C 
BRANCH  22  23
ATOM     23  C   UNL     1      -4.602   1.065   6.226  0.00  0.00    +0.062 C 
BRANCH  23  24
ATOM     24  C   UNL     1      -4.944   2.443   5.656  0.00  0.00    +0.016 C 
BRANCH  24  25
ATOM     25  C   UNL     1      -5.338   3.383   6.797  0.00  0.00    +0.193 C 
BRANCH  25  26
ATOM     26  O   UNL     1      -6.544   2.916   7.404  0.00  0.00    -0.554 OA
ATOM     27  H   UNL     1      -7.297   2.870   6.799  0.00  0.00    +0.373 HD
ENDBRANCH  25  26
BRANCH  25  28
ATOM     28  C   UNL     1      -5.559   4.792   6.243  0.00  0.00    +0.107 C 
ATOM     36  C   UNL     1      -4.267   5.292   5.592  0.00  0.00    +0.077 C 
BRANCH  28  29
ATOM     29  O   UNL     1      -6.603   4.762   5.267  0.00  0.00    -0.541 OA
ATOM     30  H   UNL     1      -7.453   4.454   5.610  0.00  0.00    +0.373 HD
ENDBRANCH  28  29
BRANCH  28  31
ATOM     31  C   UNL     1      -5.953   5.733   7.383  0.00  0.00    +0.195 C 
BRANCH  31  32
ATOM     32  O   UNL     1      -6.159   7.048   6.866  0.00  0.00    -0.341 OA
BRANCH  32  33
ATOM     33  C   UNL     1      -6.513   8.000   7.744  0.00  0.00    +0.457 C 
ATOM     34  C   UNL     1      -6.748   9.412   7.271  0.00  0.00    +0.157 C 
ATOM     35  O   UNL     1      -6.644   7.725   8.913  0.00  0.00    -0.513 OA
ENDBRANCH  32  33
ENDBRANCH  31  32
ENDBRANCH  28  31
ENDBRANCH  25  28
ENDBRANCH  24  25
ENDBRANCH  23  24
ENDBRANCH  22  23
ENDBRANCH  20  21
ENDBRANCH  19  20
TORSDOF 21
