REMARK  Name = ZINC95486374
REMARK  2 active torsions:
REMARK  status: ('A' for Active; 'I' for Inactive)
REMARK    1  A    between atoms: C1_1  and  C2_2
REMARK    2  A    between atoms: C7_7  and  O1_8
REMARK                            x       y       z     vdW  Elec       q    Type
REMARK                         _______ _______ _______ _____ _____    ______ ____
ROOT
ATOM      1  C   UNL     1      -0.018   1.503   0.010  0.00  0.00    +0.107 C 
ATOM      2  C   UNL     1       0.002  -0.004   0.002  0.00  0.00    -0.079 A 
ATOM      3  C   UNL     1       0.006  -0.683  -1.201  0.00  0.00    +0.033 A 
ATOM      4  C   UNL     1       0.029  -2.071  -1.206  0.00  0.00    -0.015 A 
ATOM      5  C   UNL     1       0.067  -2.783   0.014  0.00  0.00    -0.121 A 
ATOM      6  C   UNL     1       0.153  -4.261  -0.014  0.00  0.00    +0.583 C 
ATOM      7  N   UNL     1      -0.086  -4.897  -1.180  0.00  0.00    -0.613 N 
ATOM      8  C   UNL     1       0.143  -6.312  -1.496  0.00  0.00    +0.264 C 
ATOM      9  C   UNL     1      -0.118  -6.477  -3.014  0.00  0.00    +0.090 C 
ATOM     10  C   UNL     1      -0.008  -5.061  -3.539  0.00  0.00    -0.144 C 
ATOM     11  C   UNL     1       0.432  -4.595  -4.661  0.00  0.00    +0.012 C 
ATOM     12  C   UNL     1       0.513  -3.108  -4.889  0.00  0.00    +0.133 C 
ATOM     13  C   UNL     1       0.454  -2.350  -3.598  0.00  0.00    +0.013 C 
ATOM     14  C   UNL     1      -0.581  -4.235  -2.401  0.00  0.00    +0.305 C 
ATOM     15  O   UNL     1       0.432  -4.886   0.990  0.00  0.00    -0.526 OA
ATOM     16  C   UNL     1       0.048  -2.087   1.216  0.00  0.00    +0.070 A 
ATOM     17  C   UNL     1       0.007  -2.844  -2.466  0.00  0.00    -0.111 C 
ATOM     18  C   UNL     1       0.023  -0.700   1.205  0.00  0.00    +0.096 A 
ENDROOT
BRANCH  18  19
ATOM     19  O   UNL     1       0.013  -0.017   2.379  0.00  0.00    -0.490 OA
ATOM     20  H   UNL     1      -0.873   0.161   2.723  0.00  0.00    +0.391 HD
ENDBRANCH  18  19
TORSDOF 1
