REMARK  Name = ZINC95486063
REMARK  11 active torsions:
REMARK  status: ('A' for Active; 'I' for Inactive)
REMARK    1  A    between atoms: C1_1  and  C2_2
REMARK    2  A    between atoms: C2_2  and  C3_3
REMARK    3  A    between atoms: C2_2  and  C4_4
REMARK    4  A    between atoms: C10_10  and  C27_33
REMARK    5  A    between atoms: C12_12  and  O2_16
REMARK    6  A    between atoms: C13_13  and  O1_15
REMARK    7  A    between atoms: C16_19  and  O3_24
REMARK    8  A    between atoms: C17_21  and  C18_22
REMARK    9  A    between atoms: C17_21  and  C19_23
REMARK   10  A    between atoms: O3_24  and  C20_25
REMARK   11  A    between atoms: C20_25  and  C21_27
REMARK                            x       y       z     vdW  Elec       q    Type
REMARK                         _______ _______ _______ _____ _____    ______ ____
ROOT
ATOM      3  C   UNL     1      -1.457  -0.344   0.590  0.00  0.00    -0.103 C 
ATOM      4  C   UNL     1      -1.472  -1.149  -0.471  0.00  0.00    +0.036 C 
ATOM      5  C   UNL     1      -2.745  -1.788  -0.840  0.00  0.00    -0.057 C 
ATOM      6  C   UNL     1      -3.015  -2.225  -2.099  0.00  0.00    +0.030 C 
ATOM      7  C   UNL     1      -4.285  -2.779  -2.392  0.00  0.00    -0.025 C 
ATOM      8  C   UNL     1      -5.162  -3.095  -1.453  0.00  0.00    -0.067 C 
ATOM      9  C   UNL     1      -4.844  -2.974   0.024  0.00  0.00    +0.041 C 
ATOM     10  C   UNL     1      -4.360  -4.323   0.560  0.00  0.00    +0.058 C 
ATOM     11  C   UNL     1      -6.131  -2.547   0.734  0.00  0.00    +0.053 C 
ATOM     12  C   UNL     1      -7.180  -3.649   0.631  0.00  0.00    +0.013 C 
ATOM     13  C   UNL     1      -7.018  -4.483  -0.634  0.00  0.00    +0.184 C 
ATOM     23  C   UNL     1      -6.538  -3.620  -1.805  0.00  0.00    -0.019 C 
ATOM     24  C   UNL     1      -7.501  -2.451  -2.017  0.00  0.00    +0.056 C 
ATOM     25  C   UNL     1      -6.460  -4.468  -3.076  0.00  0.00    +0.043 C 
ATOM     26  C   UNL     1      -3.771  -1.941   0.211  0.00  0.00    -0.121 C 
ATOM     27  C   UNL     1      -3.725  -1.137   1.272  0.00  0.00    +0.049 C 
ATOM     30  C   UNL     1      -2.694  -0.053   1.384  0.00  0.00    +0.246 C 
ENDROOT
BRANCH   3   2
ATOM      1  C   UNL     1       1.008  -0.442   0.335  0.00  0.00    +0.024 C 
ATOM      2  C   UNL     1      -0.155   0.290   1.008  0.00  0.00    +0.036 C 
ATOM     33  C   UNL     1      -0.144   1.761   0.585  0.00  0.00    +0.026 C 
ENDBRANCH   3   2
BRANCH  27  28
ATOM     28  O   UNL     1      -4.624  -1.303   2.272  0.00  0.00    -0.452 OA
ATOM     29  H   UNL     1      -4.520  -0.678   3.002  0.00  0.00    +0.373 HD
ENDBRANCH  27  28
BRANCH  30  31
ATOM     31  O   UNL     1      -2.334   0.103   2.758  0.00  0.00    -0.547 OA
ATOM     32  H   UNL     1      -3.082   0.294   3.341  0.00  0.00    +0.375 HD
ENDBRANCH  30  31
BRANCH  13  14
ATOM     14  O   UNL     1      -6.063  -5.518  -0.393  0.00  0.00    -0.319 OA
BRANCH  14  15
ATOM     15  C   UNL     1      -6.535  -6.689   0.076  0.00  0.00    +0.498 C 
ATOM     22  O   UNL     1      -7.726  -6.827   0.276  0.00  0.00    -0.505 OA
BRANCH  15  16
ATOM     16  C   UNL     1      -5.606  -7.805   0.348  0.00  0.00    -0.128 A 
ATOM     17  C   UNL     1      -4.237  -7.647   0.126  0.00  0.00    +0.074 A 
ATOM     18  C   UNL     1      -3.375  -8.693   0.382  0.00  0.00    -0.002 A 
ATOM     19  C   UNL     1      -3.864  -9.897   0.858  0.00  0.00    +0.047 A 
ATOM     20  C   UNL     1      -5.220 -10.060   1.081  0.00  0.00    +0.001 A 
ATOM     21  C   UNL     1      -6.093  -9.020   0.835  0.00  0.00    +0.081 A 
ENDBRANCH  15  16
ENDBRANCH  14  15
ENDBRANCH  13  14
TORSDOF 6
