REMARK  Name = ZINC95486247
REMARK  18 active torsions:
REMARK  status: ('A' for Active; 'I' for Inactive)
REMARK    1  A    between atoms: C1_1  and  C2_2
REMARK    2  A    between atoms: C2_2  and  C3_4
REMARK    3  A    between atoms: C2_2  and  C10_14
REMARK    4  A    between atoms: C3_4  and  C4_5
REMARK    5  A    between atoms: C4_5  and  C5_6
REMARK    6  A    between atoms: C5_6  and  O3_13
REMARK    7  A    between atoms: C6_7  and  C7_8
REMARK    8  A    between atoms: C6_7  and  O2_12
REMARK    9  A    between atoms: C7_8  and  C8_9
REMARK   10  A    between atoms: C7_8  and  C9_10
REMARK   11  A    between atoms: C7_8  and  O1_11
REMARK   12  A    between atoms: C13_18  and  C31_41
REMARK   13  A    between atoms: C14_19  and  C30_40
REMARK   14  A    between atoms: C22_28  and  C29_39
REMARK   15  A    between atoms: C23_29  and  O5_38
REMARK   16  A    between atoms: C25_32  and  O4_37
REMARK   17  A    between atoms: C26_34  and  C27_35
REMARK   18  A    between atoms: C26_34  and  C28_36
REMARK                            x       y       z     vdW  Elec       q    Type
REMARK                         _______ _______ _______ _____ _____    ______ ____
ROOT
ATOM      3  C   UNL     1      -0.360  -0.024   0.738  0.00  0.00    +0.002 C 
ATOM      4  C   UNL     1      -0.382  -1.571   0.633  0.00  0.00    +0.011 C 
ATOM      5  C   UNL     1      -1.083  -1.908  -0.716  0.00  0.00    +0.021 C 
ATOM      6  C   UNL     1      -1.927  -0.644  -0.963  0.00  0.00    -0.019 C 
ATOM      7  C   UNL     1      -3.130  -0.625  -0.015  0.00  0.00    +0.039 C 
ATOM      8  C   UNL     1      -2.366  -0.420  -2.373  0.00  0.00    -0.064 C 
ATOM      9  C   UNL     1      -2.570  -1.406  -3.220  0.00  0.00    -0.033 C 
ATOM     10  C   UNL     1      -3.038  -1.215  -4.630  0.00  0.00    +0.059 C 
ATOM     11  C   UNL     1      -2.815   0.202  -5.153  0.00  0.00    +0.025 C 
ATOM     12  C   UNL     1      -3.255   1.232  -4.121  0.00  0.00    +0.004 C 
ATOM     13  C   UNL     1      -4.783   1.123  -3.919  0.00  0.00    +0.040 C 
ATOM     14  C   UNL     1      -2.951   2.649  -4.610  0.00  0.00    +0.173 C 
ATOM     17  C   UNL     1      -1.462   2.775  -4.915  0.00  0.00    -0.038 C 
ATOM     18  C   UNL     1      -1.079   1.837  -6.051  0.00  0.00    +0.171 C 
ATOM     21  C   UNL     1      -1.437   0.385  -5.747  0.00  0.00    -0.033 C 
ATOM     22  C   UNL     1      -0.340  -0.226  -4.872  0.00  0.00    +0.027 C 
ATOM     23  C   UNL     1      -1.401  -0.366  -7.103  0.00  0.00    +0.025 C 
ATOM     24  C   UNL     1      -2.583   0.987  -2.793  0.00  0.00    -0.061 C 
ATOM     25  C   UNL     1      -2.211   1.990  -2.016  0.00  0.00    -0.053 C 
ATOM     26  C   UNL     1      -1.563   1.806  -0.661  0.00  0.00    +0.073 C 
ATOM     27  C   UNL     1      -0.887   0.458  -0.616  0.00  0.00    -0.043 C 
ATOM     28  C   UNL     1       0.280   0.447  -1.609  0.00  0.00    +0.028 C 
ENDROOT
BRANCH   3   2
ATOM      1  C   UNL     1       1.082   1.998   1.015  0.00  0.00    +0.013 C 
ATOM      2  C   UNL     1       1.073   0.470   0.945  0.00  0.00    -0.007 C 
BRANCH   2  29
ATOM     29  C   UNL     1       1.626  -0.103   2.252  0.00  0.00    +0.021 C 
BRANCH  29  30
ATOM     30  C   UNL     1       3.098   0.287   2.398  0.00  0.00    +0.108 C 
BRANCH  30  31
ATOM     31  C   UNL     1       3.642  -0.277   3.685  0.00  0.00    +0.052 C 
ATOM     34  C   UNL     1       4.276  -1.435   3.682  0.00  0.00    -0.083 C 
BRANCH  34  37
ATOM     37  C   UNL     1       4.825  -1.997   4.968  0.00  0.00    +0.143 C 
ATOM     40  C   UNL     1       3.686  -2.176   5.974  0.00  0.00    +0.029 C 
ATOM     41  C   UNL     1       5.865  -1.034   5.543  0.00  0.00    +0.074 C 
BRANCH  37  38
ATOM     38  O   UNL     1       5.437  -3.263   4.712  0.00  0.00    -0.548 OA
ATOM     39  H   UNL     1       4.835  -3.924   4.346  0.00  0.00    +0.380 HD
ENDBRANCH  37  38
ENDBRANCH  34  37
BRANCH  31  32
ATOM     32  O   UNL     1       3.480   0.407   4.850  0.00  0.00    -0.485 OA
ATOM     33  H   UNL     1       3.878  -0.025   5.618  0.00  0.00    +0.387 HD
ENDBRANCH  31  32
BRANCH  34  35
ATOM     35  O   UNL     1       4.433  -2.122   2.519  0.00  0.00    -0.469 OA
ATOM     36  H   UNL     1       4.910  -2.957   2.616  0.00  0.00    +0.387 HD
ENDBRANCH  34  35
ENDBRANCH  30  31
ENDBRANCH  29  30
ENDBRANCH   2  29
ENDBRANCH   3   2
BRANCH  14  15
ATOM     15  O   UNL     1      -3.721   2.924  -5.783  0.00  0.00    -0.545 OA
ATOM     16  H   UNL     1      -3.579   3.807  -6.149  0.00  0.00    +0.371 HD
ENDBRANCH  14  15
BRANCH  18  19
ATOM     19  O   UNL     1      -1.703   2.245  -7.270  0.00  0.00    -0.548 OA
ATOM     20  H   UNL     1      -1.462   3.137  -7.556  0.00  0.00    +0.367 HD
ENDBRANCH  18  19
TORSDOF 10
