REMARK  Name = ZINC95486129
REMARK  11 active torsions:
REMARK  status: ('A' for Active; 'I' for Inactive)
REMARK    1  A    between atoms: C3_3  and  O11_37
REMARK    2  A    between atoms: C4_4  and  C16_21
REMARK    3  A    between atoms: C6_6  and  C7_7
REMARK    4  A    between atoms: C11_12  and  O5_20
REMARK    5  A    between atoms: C13_14  and  O4_19
REMARK    6  A    between atoms: C14_15  and  O3_18
REMARK    7  A    between atoms: C17_23  and  O10_36
REMARK    8  A    between atoms: C18_25  and  O9_35
REMARK    9  A    between atoms: C19_27  and  O8_34
REMARK   10  A    between atoms: C20_29  and  C21_32
REMARK   11  A    between atoms: C21_32  and  O7_33
REMARK                            x       y       z     vdW  Elec       q    Type
REMARK                         _______ _______ _______ _____ _____    ______ ____
ROOT
ATOM      1  C   UNL     1      -0.017   1.393   0.010  0.00  0.00    +0.087 A 
ATOM      2  C   UNL     1       1.168   2.096   0.002  0.00  0.00    -0.008 A 
ATOM      3  C   UNL     1       2.380   1.418  -0.014  0.00  0.00    +0.170 A 
ATOM      6  C   UNL     1       2.404   0.028  -0.022  0.00  0.00    -0.114 A 
ATOM     22  C   UNL     1       1.224  -0.682  -0.014  0.00  0.00    +0.113 A 
ATOM     23  C   UNL     1       0.002  -0.004   0.002  0.00  0.00    -0.092 A 
ENDROOT
BRANCH  23  24
ATOM     24  C   UNL     1      -1.264  -0.761   0.011  0.00  0.00    +0.214 A 
ATOM     25  C   UNL     1      -2.438  -0.073   0.020  0.00  0.00    -0.152 A 
ATOM     26  C   UNL     1      -3.662  -0.782   0.029  0.00  0.00    +0.425 A 
ATOM     27  C   UNL     1      -3.594  -2.253   0.026  0.00  0.00    -0.252 A 
ATOM     28  C   UNL     1      -4.755  -3.035   0.033  0.00  0.00    +0.212 A 
ATOM     31  C   UNL     1      -4.651  -4.413   0.030  0.00  0.00    -0.035 A 
ATOM     32  C   UNL     1      -3.400  -5.019   0.020  0.00  0.00    +0.165 A 
ATOM     35  C   UNL     1      -2.242  -4.252   0.013  0.00  0.00    +0.048 A 
ATOM     38  C   UNL     1      -2.329  -2.865   0.016  0.00  0.00    +0.157 A 
ATOM     39  O   UNL     1      -4.733  -0.197   0.037  0.00  0.00    -0.452 OA
ATOM     40  O   UNL     1      -1.214  -2.103   0.003  0.00  0.00    -0.207 OA
BRANCH  28  29
ATOM     29  O   UNL     1      -5.977  -2.442   0.043  0.00  0.00    -0.470 OA
ATOM     30  H   UNL     1      -6.338  -2.269  -0.837  0.00  0.00    +0.403 HD
ENDBRANCH  28  29
BRANCH  32  33
ATOM     33  O   UNL     1      -3.309  -6.375   0.018  0.00  0.00    -0.475 OA
ATOM     34  H   UNL     1      -3.288  -6.766  -0.867  0.00  0.00    +0.399 HD
ENDBRANCH  32  33
BRANCH  35  36
ATOM     36  O   UNL     1      -1.023  -4.858   0.005  0.00  0.00    -0.466 OA
ATOM     37  H   UNL     1      -0.676  -5.032  -0.881  0.00  0.00    +0.387 HD
ENDBRANCH  35  36
ENDBRANCH  23  24
BRANCH   6   7
ATOM      7  C   UNL     1       3.722  -0.702  -0.040  0.00  0.00    +0.231 C 
ATOM      8  C   UNL     1       4.214  -0.832  -1.484  0.00  0.00    +0.169 C 
ATOM     11  C   UNL     1       5.523  -1.627  -1.499  0.00  0.00    +0.118 C 
ATOM     14  C   UNL     1       5.288  -2.990  -0.841  0.00  0.00    +0.128 C 
ATOM     17  C   UNL     1       4.754  -2.777   0.579  0.00  0.00    +0.181 C 
ATOM     21  O   UNL     1       3.553  -2.004   0.524  0.00  0.00    -0.345 OA
BRANCH   8   9
ATOM      9  O   UNL     1       4.438   0.469  -2.031  0.00  0.00    -0.534 OA
ATOM     10  H   UNL     1       4.752   0.463  -2.945  0.00  0.00    +0.386 HD
ENDBRANCH   8   9
BRANCH  11  12
ATOM     12  O   UNL     1       5.953  -1.814  -2.849  0.00  0.00    -0.557 OA
ATOM     13  H   UNL     1       6.778  -2.311  -2.934  0.00  0.00    +0.383 HD
ENDBRANCH  11  12
BRANCH  14  15
ATOM     15  O   UNL     1       6.519  -3.712  -0.785  0.00  0.00    -0.552 OA
ATOM     16  H   UNL     1       6.917  -3.879  -1.651  0.00  0.00    +0.383 HD
ENDBRANCH  14  15
BRANCH  17  18
ATOM     18  C   UNL     1       4.460  -4.133   1.222  0.00  0.00    +0.219 C 
BRANCH  18  19
ATOM     19  O   UNL     1       4.073  -3.941   2.584  0.00  0.00    -0.566 OA
ATOM     20  H   UNL     1       3.871  -4.760   3.055  0.00  0.00    +0.385 HD
ENDBRANCH  18  19
ENDBRANCH  17  18
ENDBRANCH   6   7
BRANCH   3   4
ATOM      4  O   UNL     1       3.546   2.115  -0.021  0.00  0.00    -0.477 OA
ATOM      5  H   UNL     1       3.892   2.312   0.860  0.00  0.00    +0.392 HD
ENDBRANCH   3   4
TORSDOF 11
