REMARK  Name = ZINC15120569
REMARK  11 active torsions:
REMARK  status: ('A' for Active; 'I' for Inactive)
REMARK    1  A    between atoms: C1_1  and  C2_2
REMARK    2  A    between atoms: C2_2  and  C18_22
REMARK    3  A    between atoms: C3_3  and  C4_4
REMARK    4  A    between atoms: C4_4  and  C5_5
REMARK    5  A    between atoms: C5_5  and  C6_6
REMARK    6  A    between atoms: C6_6  and  C17_21
REMARK    7  A    between atoms: C7_7  and  C8_8
REMARK    8  A    between atoms: C8_8  and  C9_9
REMARK    9  A    between atoms: C9_9  and  C15_18
REMARK   10  A    between atoms: C11_11  and  O2_17
REMARK   11  A    between atoms: C15_18  and  C16_19
REMARK                            x       y       z     vdW  Elec       q    Type
REMARK                         _______ _______ _______ _____ _____    ______ ____
ROOT
ATOM     11  C   UNL     1      -2.136   2.255   3.189  0.00  0.00    -0.065 C 
ATOM     16  C   UNL     1      -1.708   1.923   4.625  0.00  0.00    +0.080 C 
ATOM     17  C   UNL     1      -2.088   3.086   5.540  0.00  0.00    +0.203 C 
ATOM     20  C   UNL     1      -3.536   3.444   5.388  0.00  0.00    +0.011 C 
ATOM     21  C   UNL     1      -4.251   3.140   4.312  0.00  0.00    -0.089 C 
ATOM     22  C   UNL     1      -3.643   2.411   3.193  0.00  0.00    +0.384 C 
ATOM     23  O   UNL     1      -4.324   1.949   2.302  0.00  0.00    -0.443 OA
ENDROOT
BRANCH  17  18
ATOM     18  O   UNL     1      -1.837   2.716   6.897  0.00  0.00    -0.557 OA
ATOM     19  H   UNL     1      -2.030   3.413   7.538  0.00  0.00    +0.373 HD
ENDBRANCH  17  18
BRANCH  11  10
ATOM     10  C   UNL     1      -1.733   1.117   2.248  0.00  0.00    +0.092 C 
BRANCH  10   9
ATOM      7  C   UNL     1      -2.744   0.706   0.064  0.00  0.00    -0.144 C 
ATOM      8  C   UNL     1      -3.113  -0.670   0.557  0.00  0.00    +0.064 C 
ATOM      9  C   UNL     1      -2.043   1.508   0.826  0.00  0.00    -0.022 C 
BRANCH   7   6
ATOM      6  C   UNL     1      -3.181   1.158  -1.306  0.00  0.00    +0.057 C 
BRANCH   6   5
ATOM      5  C   UNL     1      -2.176   0.667  -2.349  0.00  0.00    +0.050 C 
BRANCH   5   4
ATOM      1  C   UNL     1      -0.387   2.356  -3.722  0.00  0.00    +0.073 C 
ATOM      2  C   UNL     1      -1.706   1.986  -4.350  0.00  0.00    -0.139 C 
ATOM      3  C   UNL     1      -2.057   2.498  -5.723  0.00  0.00    +0.067 C 
ATOM      4  C   UNL     1      -2.547   1.218  -3.702  0.00  0.00    -0.058 C 
ENDBRANCH   5   4
ENDBRANCH   6   5
ENDBRANCH   7   6
ENDBRANCH  10   9
ENDBRANCH  11  10
BRANCH  11  12
ATOM     12  C   UNL     1      -1.479   3.561   2.738  0.00  0.00    -0.011 C 
BRANCH  12  13
ATOM     13  C   UNL     1       0.018   3.388   2.716  0.00  0.00    +0.470 C 
ATOM     14  O   UNL     1       0.801   4.381   2.267  0.00  0.00    -0.769 OA
ATOM     15  O   UNL     1       0.513   2.356   3.102  0.00  0.00    -0.625 OA
ENDBRANCH  12  13
ENDBRANCH  11  12
TORSDOF 8
