REMARK  Name = ZINC95486355
REMARK  10 active torsions:
REMARK  status: ('A' for Active; 'I' for Inactive)
REMARK    1  A    between atoms: C3_3  and  O9_35
REMARK    2  A    between atoms: C4_4  and  O8_34
REMARK    3  A    between atoms: C6_6  and  C7_7
REMARK    4  A    between atoms: C8_8  and  O4_20
REMARK    5  A    between atoms: C13_14  and  O3_18
REMARK    6  A    between atoms: C15_16  and  O2_17
REMARK    7  A    between atoms: O4_20  and  C17_21
REMARK    8  A    between atoms: C20_25  and  O7_33
REMARK    9  A    between atoms: C21_27  and  O6_32
REMARK   10  A    between atoms: C22_29  and  O5_31
REMARK                            x       y       z     vdW  Elec       q    Type
REMARK                         _______ _______ _______ _____ _____    ______ ____
ROOT
ATOM     11  C   UNL     1      -0.320  -0.511  -0.077  0.00  0.00    -0.029 C 
ATOM     12  C   UNL     1      -1.209  -0.980  -0.975  0.00  0.00    +0.012 C 
ATOM     26  C   UNL     1      -2.639  -1.014  -0.636  0.00  0.00    +0.414 C 
ATOM     27  C   UNL     1      -3.094  -0.202   0.510  0.00  0.00    -0.201 A 
ATOM     28  C   UNL     1      -2.155   0.281   1.425  0.00  0.00    -0.001 A 
ATOM     29  C   UNL     1      -2.579   1.047   2.479  0.00  0.00    -0.023 A 
ATOM     30  C   UNL     1      -3.929   1.337   2.646  0.00  0.00    +0.165 A 
ATOM     33  C   UNL     1      -4.869   0.854   1.747  0.00  0.00    -0.045 A 
ATOM     34  C   UNL     1      -4.457   0.081   0.674  0.00  0.00    +0.192 A 
ATOM     37  O   UNL     1      -3.422  -1.690  -1.279  0.00  0.00    -0.425 OA
ATOM     38  C   UNL     1      -0.693  -0.035   1.289  0.00  0.00    +0.182 C 
ENDROOT
BRANCH  11  10
ATOM      1  C   UNL     1       1.756   0.758  -0.586  0.00  0.00    +0.058 A 
ATOM      2  C   UNL     1       3.085   0.793  -0.947  0.00  0.00    +0.003 A 
ATOM      3  C   UNL     1       3.774  -0.387  -1.188  0.00  0.00    +0.088 A 
ATOM      6  C   UNL     1       3.125  -1.615  -1.068  0.00  0.00    +0.078 A 
ATOM      9  C   UNL     1       1.793  -1.660  -0.707  0.00  0.00    +0.036 A 
ATOM     10  C   UNL     1       1.097  -0.470  -0.463  0.00  0.00    -0.039 A 
BRANCH   3   4
ATOM      4  O   UNL     1       5.085  -0.346  -1.544  0.00  0.00    -0.489 OA
ATOM      5  H   UNL     1       5.696  -0.373  -0.795  0.00  0.00    +0.387 HD
ENDBRANCH   3   4
BRANCH   6   7
ATOM      7  O   UNL     1       3.804  -2.769  -1.306  0.00  0.00    -0.487 OA
ATOM      8  H   UNL     1       4.232  -3.142  -0.524  0.00  0.00    +0.385 HD
ENDBRANCH   6   7
ENDBRANCH  11  10
BRANCH  30  31
ATOM     31  O   UNL     1      -4.330   2.098   3.696  0.00  0.00    -0.494 OA
ATOM     32  H   UNL     1      -4.350   3.047   3.509  0.00  0.00    +0.401 HD
ENDBRANCH  30  31
BRANCH  34  35
ATOM     35  O   UNL     1      -5.366  -0.399  -0.211  0.00  0.00    -0.482 OA
ATOM     36  H   UNL     1      -5.722  -1.268   0.023  0.00  0.00    +0.403 HD
ENDBRANCH  34  35
BRANCH  12  13
ATOM     13  O   UNL     1      -0.785  -1.420  -2.189  0.00  0.00    -0.288 OA
BRANCH  13  14
ATOM     14  C   UNL     1      -1.236  -0.695  -3.335  0.00  0.00    +0.181 C 
ATOM     15  C   UNL     1      -2.144  -1.592  -4.180  0.00  0.00    +0.040 C 
ATOM     16  C   UNL     1      -2.627  -0.816  -5.407  0.00  0.00    +0.006 C 
ATOM     17  C   UNL     1      -1.422  -0.380  -6.242  0.00  0.00    +0.139 C 
ATOM     20  C   UNL     1      -0.514   0.517  -5.397  0.00  0.00    +0.157 C 
ATOM     23  C   UNL     1      -0.031  -0.259  -4.170  0.00  0.00    +0.187 C 
BRANCH  17  18
ATOM     18  O   UNL     1      -1.874   0.345  -7.388  0.00  0.00    -0.567 OA
ATOM     19  H   UNL     1      -2.455  -0.163  -7.971  0.00  0.00    +0.386 HD
ENDBRANCH  17  18
BRANCH  20  21
ATOM     21  O   UNL     1       0.611   0.925  -6.177  0.00  0.00    -0.561 OA
ATOM     22  H   UNL     1       0.379   1.423  -6.973  0.00  0.00    +0.392 HD
ENDBRANCH  20  21
BRANCH  23  24
ATOM     24  O   UNL     1       0.817   0.579  -3.381  0.00  0.00    -0.543 OA
ATOM     25  H   UNL     1       1.603   0.894  -3.848  0.00  0.00    +0.385 HD
ENDBRANCH  23  24
ENDBRANCH  13  14
ENDBRANCH  12  13
TORSDOF 10
