REMARK  Name = ZINC13359332
REMARK  11 active torsions:
REMARK  status: ('A' for Active; 'I' for Inactive)
REMARK    1  A    between atoms: C1_1  and  C2_2
REMARK    2  A    between atoms: C8_8  and  O4_30
REMARK    3  A    between atoms: C10_10  and  O3_29
REMARK    4  A    between atoms: C11_11  and  C12_12
REMARK    5  A    between atoms: C13_13  and  O2_27
REMARK    6  A    between atoms: C15_15  and  O1_25
REMARK    7  A    between atoms: C19_19  and  C22_24
REMARK    8  A    between atoms: C20_22  and  C21_23
REMARK    9  A    between atoms: O1_25  and  C23_26
REMARK   10  A    between atoms: O2_27  and  C24_28
REMARK   11  A    between atoms: O4_30  and  C25_31
REMARK                            x       y       z     vdW  Elec       q    Type
REMARK                         _______ _______ _______ _____ _____    ______ ____
ROOT
ATOM     16  C   UNL     1       1.163   1.529  -2.485  0.00  0.00    -0.100 A 
ATOM     17  C   UNL     1       1.352   0.285  -3.107  0.00  0.00    +0.197 A 
ATOM     20  C   UNL     1       0.712  -0.003  -4.301  0.00  0.00    -0.168 A 
ATOM     21  C   UNL     1      -0.113   0.939  -4.896  0.00  0.00    +0.208 A 
ATOM     24  C   UNL     1      -0.301   2.184  -4.284  0.00  0.00    -0.185 A 
ATOM     25  C   UNL     1      -1.168   3.210  -4.885  0.00  0.00    +0.229 C 
ATOM     26  C   UNL     1      -1.531   3.132  -6.346  0.00  0.00    +0.137 C 
ATOM     27  N   UNL     1      -1.617   4.179  -4.156  0.00  0.00    -0.523 NA
ATOM     28  C   UNL     1      -1.308   4.290  -2.734  0.00  0.00    +0.153 C 
ATOM     29  C   UNL     1      -1.452   5.751  -2.303  0.00  0.00    +0.052 C 
ATOM     30  C   UNL     1       0.116   3.821  -2.440  0.00  0.00    +0.077 C 
ATOM     31  C   UNL     1       0.341   2.473  -3.075  0.00  0.00    +0.035 A 
ENDROOT
BRANCH  16  15
ATOM      1  C   UNL     1       3.779   2.737  -2.535  0.00  0.00    +0.094 C 
ATOM      2  C   UNL     1       3.120   2.420  -1.217  0.00  0.00    -0.033 A 
ATOM      3  C   UNL     1       3.768   2.708  -0.058  0.00  0.00    +0.001 A 
ATOM      4  C   UNL     1       3.164   2.418   1.179  0.00  0.00    +0.005 A 
ATOM      5  C   UNL     1       3.817   2.708   2.389  0.00  0.00    -0.025 A 
ATOM      6  C   UNL     1       3.213   2.418   3.574  0.00  0.00    +0.059 A 
ATOM      7  C   UNL     1       1.950   1.835   3.614  0.00  0.00    -0.105 A 
ATOM      8  C   UNL     1       1.277   1.535   2.450  0.00  0.00    +0.158 A 
ATOM     11  C   UNL     1       1.875   1.828   1.208  0.00  0.00    -0.101 A 
ATOM     12  C   UNL     1       1.222   1.532  -0.001  0.00  0.00    +0.163 A 
ATOM     15  C   UNL     1       1.847   1.832  -1.205  0.00  0.00    -0.068 A 
BRANCH   8   9
ATOM      9  O   UNL     1       0.045   0.966   2.500  0.00  0.00    -0.296 OA
ATOM     10  C   UNL     1      -0.497   0.704   3.796  0.00  0.00    +0.239 C 
ENDBRANCH   8   9
BRANCH  12  13
ATOM     13  O   UNL     1      -0.011   0.963   0.007  0.00  0.00    -0.473 OA
ATOM     14  H   UNL     1       0.002  -0.004   0.002  0.00  0.00    +0.389 HD
ENDBRANCH  12  13
ENDBRANCH  16  15
BRANCH  17  18
ATOM     18  O   UNL     1       2.162  -0.641  -2.534  0.00  0.00    -0.303 OA
ATOM     19  C   UNL     1       2.310  -1.887  -3.220  0.00  0.00    +0.243 C 
ENDBRANCH  17  18
BRANCH  21  22
ATOM     22  O   UNL     1      -0.736   0.656  -6.068  0.00  0.00    -0.299 OA
ATOM     23  C   UNL     1      -0.497  -0.634  -6.635  0.00  0.00    +0.240 C 
ENDBRANCH  21  22
TORSDOF 5
