REMARK  Name = ZINC95486293
REMARK  6 active torsions:
REMARK  status: ('A' for Active; 'I' for Inactive)
REMARK    1  A    between atoms: C1_1  and  O1_2
REMARK    2  A    between atoms: O1_2  and  C2_3
REMARK    3  A    between atoms: C5_6  and  O2_9
REMARK    4  A    between atoms: O2_9  and  C8_10
REMARK    5  A    between atoms: C12_15  and  O6_22
REMARK    6  A    between atoms: C14_17  and  O5_21
REMARK                            x       y       z     vdW  Elec       q    Type
REMARK                         _______ _______ _______ _____ _____    ______ ____
ROOT
ATOM      8  C   UNL     1       2.467  -3.833   4.264  0.00  0.00    -0.018 A 
ATOM      9  C   UNL     1       2.991  -4.457   5.352  0.00  0.00    +0.120 A 
ATOM     10  O   UNL     1       3.559  -3.727   6.354  0.00  0.00    -0.679 OA
ATOM     11  C   UNL     1       2.945  -5.868   5.438  0.00  0.00    +0.397 A 
ATOM     12  C   UNL     1       2.317  -6.593   4.321  0.00  0.00    -0.281 A 
ATOM     13  C   UNL     1       2.226  -7.991   4.321  0.00  0.00    +0.217 A 
ATOM     16  C   UNL     1       1.630  -8.635   3.253  0.00  0.00    -0.101 A 
ATOM     17  C   UNL     1       1.124  -7.898   2.187  0.00  0.00    +0.175 A 
ATOM     20  C   UNL     1       1.211  -6.515   2.180  0.00  0.00    -0.064 A 
ATOM     21  C   UNL     1       1.806  -5.852   3.243  0.00  0.00    +0.210 A 
ATOM     22  O   UNL     1       3.406  -6.461   6.401  0.00  0.00    -0.463 OA
ATOM     23  O   UNL     1       1.893  -4.505   3.255  0.00  0.00    -0.234 OA
ENDROOT
BRANCH  13  14
ATOM     14  O   UNL     1       2.721  -8.708   5.362  0.00  0.00    -0.477 OA
ATOM     15  H   UNL     1       2.082  -8.865   6.070  0.00  0.00    +0.395 HD
ENDBRANCH  13  14
BRANCH  17  18
ATOM     18  O   UNL     1       0.541  -8.540   1.143  0.00  0.00    -0.494 OA
ATOM     19  H   UNL     1      -0.411  -8.676   1.246  0.00  0.00    +0.392 HD
ENDBRANCH  17  18
BRANCH   8   7
ATOM      7  O   UNL     1       2.521  -2.485   4.199  0.00  0.00    -0.202 OA
BRANCH   7   6
ATOM      3  C   UNL     1       0.629  -0.618   1.041  0.00  0.00    +0.110 A 
ATOM      4  C   UNL     1      -0.116  -1.108   2.104  0.00  0.00    -0.066 A 
ATOM      5  C   UNL     1       0.517  -1.733   3.160  0.00  0.00    +0.037 A 
ATOM      6  C   UNL     1       1.898  -1.870   3.159  0.00  0.00    +0.072 A 
ATOM     24  C   UNL     1       2.642  -1.380   2.096  0.00  0.00    +0.049 A 
ATOM     25  C   UNL     1       2.009  -0.760   1.037  0.00  0.00    -0.005 A 
BRANCH   3   2
ATOM      1  C   UNL     1      -1.418   0.109   0.071  0.00  0.00    +0.232 C 
ATOM      2  O   UNL     1       0.005  -0.003   0.001  0.00  0.00    -0.320 OA
ENDBRANCH   3   2
ENDBRANCH   7   6
ENDBRANCH   8   7
TORSDOF 5
