REMARK  Name = ZINC95486186
REMARK  13 active torsions:
REMARK  status: ('A' for Active; 'I' for Inactive)
REMARK    1  A    between atoms: C1_1  and  C2_2
REMARK    2  A    between atoms: C3_3  and  C4_4
REMARK    3  A    between atoms: C4_4  and  C5_5
REMARK    4  A    between atoms: C5_5  and  C23_29
REMARK    5  A    between atoms: C7_8  and  O6_28
REMARK    6  A    between atoms: C15_18  and  O5_27
REMARK    7  A    between atoms: C16_19  and  C18_22
REMARK    8  A    between atoms: C17_20  and  O4_21
REMARK    9  A    between atoms: C18_22  and  C19_23
REMARK   10  A    between atoms: C20_24  and  C21_25
REMARK   11  A    between atoms: C20_24  and  C22_26
REMARK   12  A    between atoms: C23_29  and  C24_30
REMARK   13  A    between atoms: C25_31  and  C26_32
REMARK                            x       y       z     vdW  Elec       q    Type
REMARK                         _______ _______ _______ _____ _____    ______ ____
ROOT
ATOM      5  C   UNL     1      -1.841  -2.825   1.198  0.00  0.00    -0.001 C 
ATOM     10  C   UNL     1      -1.047  -2.129   2.281  0.00  0.00    +0.405 C 
ATOM     11  C   UNL     1       0.227  -2.748   2.695  0.00  0.00    +0.115 C 
ATOM     14  C   UNL     1       0.337  -4.099   2.609  0.00  0.00    -0.067 C 
ATOM     15  C   UNL     1      -0.778  -4.905   2.101  0.00  0.00    +0.220 A 
ATOM     16  O   UNL     1      -0.721  -6.244   2.260  0.00  0.00    -0.218 OA
ATOM     17  C   UNL     1      -1.729  -7.067   1.911  0.00  0.00    +0.177 A 
ATOM     18  C   UNL     1      -1.657  -8.427   2.165  0.00  0.00    -0.027 A 
ATOM     19  C   UNL     1      -2.703  -9.259   1.794  0.00  0.00    +0.192 A 
ATOM     22  C   UNL     1      -3.831  -8.744   1.165  0.00  0.00    -0.160 A 
ATOM     28  C   UNL     1      -3.922  -7.389   0.903  0.00  0.00    +0.224 A 
ATOM     31  C   UNL     1      -2.871  -6.543   1.278  0.00  0.00    -0.260 A 
ATOM     32  C   UNL     1      -2.923  -5.095   1.022  0.00  0.00    +0.436 A 
ATOM     33  O   UNL     1      -3.877  -4.587   0.456  0.00  0.00    -0.437 OA
ATOM     34  O   UNL     1      -1.442  -1.101   2.789  0.00  0.00    -0.387 OA
ATOM     35  C   UNL     1      -1.824  -4.311   1.457  0.00  0.00    -0.280 A 
ENDROOT
BRANCH  11  12
ATOM     12  O   UNL     1       1.257  -1.990   3.148  0.00  0.00    -0.436 OA
ATOM     13  H   UNL     1       2.042  -2.499   3.392  0.00  0.00    +0.408 HD
ENDBRANCH  11  12
BRANCH  19  20
ATOM     20  O   UNL     1      -2.624 -10.591   2.047  0.00  0.00    -0.484 OA
ATOM     21  H   UNL     1      -2.981 -10.850   2.907  0.00  0.00    +0.402 HD
ENDBRANCH  19  20
BRANCH  28  29
ATOM     29  O   UNL     1      -5.021  -6.884   0.289  0.00  0.00    -0.465 OA
ATOM     30  H   UNL     1      -4.958  -6.863  -0.676  0.00  0.00    +0.399 HD
ENDBRANCH  28  29
BRANCH   5   4
ATOM      4  C   UNL     1      -1.211  -2.535  -0.166  0.00  0.00    +0.100 C 
BRANCH   4   3
ATOM      1  C   UNL     1       0.057   1.019  -0.876  0.00  0.00    +0.067 C 
ATOM      2  C   UNL     1      -0.004  -0.471  -0.658  0.00  0.00    -0.041 C 
ATOM      3  C   UNL     1      -1.149  -1.046  -0.384  0.00  0.00    -0.058 C 
ENDBRANCH   4   3
ENDBRANCH   5   4
BRANCH   5   6
ATOM      6  C   UNL     1      -3.285  -2.319   1.214  0.00  0.00    +0.117 C 
BRANCH   6   7
ATOM      7  C   UNL     1      -3.947  -2.731   2.503  0.00  0.00    -0.057 C 
ATOM      8  C   UNL     1      -4.510  -1.828   3.267  0.00  0.00    -0.046 C 
ATOM      9  C   UNL     1      -5.173  -2.239   4.557  0.00  0.00    +0.058 C 
ENDBRANCH   6   7
ENDBRANCH   5   6
BRANCH  22  23
ATOM     23  C   UNL     1      -4.956  -9.664   0.767  0.00  0.00    +0.132 C 
BRANCH  23  24
ATOM     24  C   UNL     1      -5.944  -9.767   1.901  0.00  0.00    -0.065 C 
ATOM     25  C   UNL     1      -7.209  -9.494   1.694  0.00  0.00    -0.114 C 
ATOM     26  C   UNL     1      -8.197  -9.597   2.828  0.00  0.00    +0.073 C 
ATOM     27  C   UNL     1      -7.675  -9.076   0.324  0.00  0.00    +0.077 C 
ENDBRANCH  23  24
ENDBRANCH  22  23
TORSDOF 9
