REMARK  Name = ZINC95486169
REMARK  4 active torsions:
REMARK  status: ('A' for Active; 'I' for Inactive)
REMARK    1  A    between atoms: C1_1  and  C2_2
REMARK    2  A    between atoms: C3_4  and  O6_21
REMARK    3  A    between atoms: C10_13  and  O2_14
REMARK    4  A    between atoms: O2_14  and  C11_15
REMARK                            x       y       z     vdW  Elec       q    Type
REMARK                         _______ _______ _______ _____ _____    ______ ____
ROOT
ATOM      1  C   UNL     1      -0.019   1.526   0.010  0.00  0.00    +0.077 C 
ATOM      2  C   UNL     1       0.002  -0.004   0.002  0.00  0.00    +0.002 C 
ATOM      3  C   UNL     1       0.729  -0.503  -1.254  0.00  0.00    +0.188 C 
ATOM      6  C   UNL     1       2.157  -0.004  -1.213  0.00  0.00    +0.374 C 
ATOM      7  C   UNL     1       2.911  -0.135   0.040  0.00  0.00    -0.141 A 
ATOM      8  C   UNL     1       2.213  -0.385   1.247  0.00  0.00    -0.092 A 
ATOM      9  C   UNL     1       2.916  -0.509   2.439  0.00  0.00    +0.098 A 
ATOM     10  C   UNL     1       4.301  -0.389   2.445  0.00  0.00    +0.072 A 
ATOM     11  C   UNL     1       4.992  -0.142   1.261  0.00  0.00    +0.027 A 
ATOM     12  O   UNL     1       6.326  -0.069   1.543  0.00  0.00    -0.291 OA
ATOM     13  C   UNL     1       6.407   0.136   2.965  0.00  0.00    +0.444 C 
ATOM     14  O   UNL     1       5.201  -0.469   3.467  0.00  0.00    -0.296 OA
ATOM     15  C   UNL     1       4.302  -0.015   0.055  0.00  0.00    +0.168 A 
ATOM     18  O   UNL     1       2.667   0.493  -2.195  0.00  0.00    -0.409 OA
ATOM     19  C   UNL     1       0.742  -0.509   1.221  0.00  0.00    +0.417 C 
ATOM     20  O   UNL     1       0.140  -1.006   2.150  0.00  0.00    -0.422 OA
ENDROOT
BRANCH   3   4
ATOM      4  O   UNL     1       0.716  -1.932  -1.281  0.00  0.00    -0.540 OA
ATOM      5  H   UNL     1       1.160  -2.315  -2.050  0.00  0.00    +0.393 HD
ENDBRANCH   3   4
BRANCH  15  16
ATOM     16  O   UNL     1       4.978   0.224  -1.096  0.00  0.00    -0.316 OA
ATOM     17  C   UNL     1       5.192   1.592  -1.450  0.00  0.00    +0.248 C 
ENDBRANCH  15  16
TORSDOF 2
