REMARK  Name = ZINC01530331
REMARK  6 active torsions:
REMARK  status: ('A' for Active; 'I' for Inactive)
REMARK    1  A    between atoms: C1_1  and  C2_2
REMARK    2  A    between atoms: C2_2  and  C10_10
REMARK    3  A    between atoms: C3_3  and  C4_4
REMARK    4  A    between atoms: C4_4  and  C5_5
REMARK    5  A    between atoms: C5_5  and  C6_6
REMARK    6  A    between atoms: C6_6  and  C8_8
REMARK                            x       y       z     vdW  Elec       q    Type
REMARK                         _______ _______ _______ _____ _____    ______ ____
ROOT
ATOM      5  C   UNL     1       0.840   3.894  -1.748  0.00  0.00    +0.054 C 
ENDROOT
BRANCH   5   4
ATOM      1  C   UNL     1       2.982   5.298  -2.926  0.00  0.00    +0.072 C 
ATOM      2  C   UNL     1       1.978   6.029  -2.072  0.00  0.00    -0.133 C 
ATOM      3  C   UNL     1       2.154   7.500  -1.795  0.00  0.00    +0.072 C 
ATOM      4  C   UNL     1       0.953   5.386  -1.571  0.00  0.00    -0.061 C 
ENDBRANCH   5   4
BRANCH   5   6
ATOM      6  C   UNL     1       0.682   3.228  -0.380  0.00  0.00    +0.062 C 
BRANCH   6   7
ATOM      7  C   UNL     1       0.569   1.736  -0.557  0.00  0.00    -0.101 C 
ATOM     10  C   UNL     1       1.649   0.971  -0.451  0.00  0.00    +0.023 C 
BRANCH   7   8
ATOM      8  C   UNL     1      -0.739   1.127  -0.847  0.00  0.00    -0.013 C 
ATOM      9  C   UNL     1      -1.819   1.893  -0.958  0.00  0.00    +0.023 C 
ENDBRANCH   7   8
ENDBRANCH   6   7
ENDBRANCH   5   6
TORSDOF 4
