REMARK  Name = ZINC13393282
REMARK  16 active torsions:
REMARK  status: ('A' for Active; 'I' for Inactive)
REMARK    1  A    between atoms: C1_1  and  C2_2
REMARK    2  A    between atoms: C2_2  and  C28_34
REMARK    3  A    between atoms: C3_3  and  C4_4
REMARK    4  A    between atoms: C4_4  and  C5_5
REMARK    5  A    between atoms: C5_5  and  C6_6
REMARK    6  A    between atoms: C6_6  and  C27_33
REMARK    7  A    between atoms: C7_7  and  C8_8
REMARK    8  A    between atoms: C8_8  and  C9_9
REMARK    9  A    between atoms: C13_13  and  O2_16
REMARK   10  A    between atoms: C14_14  and  O1_15
REMARK   11  A    between atoms: C17_20  and  O6_32
REMARK   12  A    between atoms: C18_21  and  C22_27
REMARK   13  A    between atoms: C19_22  and  O5_26
REMARK   14  A    between atoms: C22_27  and  C23_28
REMARK   15  A    between atoms: C24_29  and  C25_30
REMARK   16  A    between atoms: C24_29  and  C26_31
REMARK                            x       y       z     vdW  Elec       q    Type
REMARK                         _______ _______ _______ _____ _____    ______ ____
ROOT
ATOM     11  C   UNL     1      -1.442   3.707  -0.102  0.00  0.00    +0.011 A 
ATOM     12  C   UNL     1      -2.531   3.086   0.514  0.00  0.00    -0.224 A 
ATOM     13  C   UNL     1      -3.550   3.853   1.101  0.00  0.00    +0.177 A 
ATOM     14  O   UNL     1      -4.606   3.264   1.699  0.00  0.00    -0.225 OA
ATOM     15  C   UNL     1      -4.766   1.927   1.780  0.00  0.00    +0.193 A 
ATOM     16  C   UNL     1      -5.883   1.401   2.413  0.00  0.00    -0.032 A 
ATOM     17  C   UNL     1      -6.055   0.028   2.499  0.00  0.00    +0.198 A 
ATOM     20  C   UNL     1      -5.115  -0.840   1.956  0.00  0.00    -0.161 A 
ATOM     26  C   UNL     1      -3.994  -0.337   1.321  0.00  0.00    +0.223 A 
ATOM     29  C   UNL     1      -3.815   1.050   1.231  0.00  0.00    -0.267 A 
ATOM     30  C   UNL     1      -3.462   5.239   1.061  0.00  0.00    -0.015 A 
ATOM     31  C   UNL     1      -2.382   5.850   0.450  0.00  0.00    +0.159 A 
ATOM     34  C   UNL     1      -2.631   1.614   0.560  0.00  0.00    +0.439 A 
ATOM     35  O   UNL     1      -1.777   0.901   0.067  0.00  0.00    -0.422 OA
ATOM     36  C   UNL     1      -1.366   5.084  -0.127  0.00  0.00    +0.050 A 
ENDROOT
BRANCH  17  18
ATOM     18  O   UNL     1      -7.152  -0.474   3.120  0.00  0.00    -0.482 OA
ATOM     19  H   UNL     1      -7.033  -0.625   4.068  0.00  0.00    +0.401 HD
ENDBRANCH  17  18
BRANCH  26  27
ATOM     27  O   UNL     1      -3.074  -1.181   0.790  0.00  0.00    -0.468 OA
ATOM     28  H   UNL     1      -2.370  -1.432   1.403  0.00  0.00    +0.400 HD
ENDBRANCH  26  27
BRANCH  31  32
ATOM     32  O   UNL     1      -2.305   7.206   0.417  0.00  0.00    -0.483 OA
ATOM     33  H   UNL     1      -1.845   7.592   1.175  0.00  0.00    +0.404 HD
ENDBRANCH  31  32
BRANCH  36  37
ATOM     37  O   UNL     1      -0.305   5.696  -0.720  0.00  0.00    -0.479 OA
ATOM     38  H   UNL     1      -0.434   5.883  -1.661  0.00  0.00    +0.392 HD
ENDBRANCH  36  37
BRANCH  11  10
ATOM     10  C   UNL     1      -0.352   2.877  -0.729  0.00  0.00    +0.136 C 
BRANCH  10   9
ATOM      7  C   UNL     1      -0.004   2.792  -3.144  0.00  0.00    -0.128 C 
ATOM      8  C   UNL     1       1.210   3.662  -2.942  0.00  0.00    +0.075 C 
ATOM      9  C   UNL     1      -0.763   2.479  -2.123  0.00  0.00    -0.034 C 
BRANCH   7   6
ATOM      6  C   UNL     1      -0.344   2.282  -4.521  0.00  0.00    +0.062 C 
BRANCH   6   5
ATOM      5  C   UNL     1      -1.158   3.339  -5.269  0.00  0.00    +0.051 C 
BRANCH   5   4
ATOM      1  C   UNL     1      -3.854   3.064  -6.047  0.00  0.00    +0.071 C 
ATOM      2  C   UNL     1      -2.751   2.650  -6.987  0.00  0.00    -0.132 C 
ATOM      3  C   UNL     1      -3.088   2.029  -8.318  0.00  0.00    +0.072 C 
ATOM      4  C   UNL     1      -1.499   2.829  -6.646  0.00  0.00    -0.060 C 
ENDBRANCH   5   4
ENDBRANCH   6   5
ENDBRANCH   7   6
ENDBRANCH  10   9
ENDBRANCH  11  10
BRANCH  20  21
ATOM     21  C   UNL     1      -5.317  -2.330   2.059  0.00  0.00    +0.135 C 
BRANCH  21  22
ATOM     22  C   UNL     1      -4.681  -2.837   3.327  0.00  0.00    -0.060 C 
ATOM     23  C   UNL     1      -5.412  -3.443   4.230  0.00  0.00    -0.124 C 
ATOM     24  C   UNL     1      -4.767  -3.998   5.474  0.00  0.00    +0.073 C 
ATOM     25  C   UNL     1      -6.899  -3.585   4.024  0.00  0.00    +0.077 C 
ENDBRANCH  21  22
ENDBRANCH  20  21
TORSDOF 11
