REMARK  Name = ZINC95486036
REMARK  6 active torsions:
REMARK  status: ('A' for Active; 'I' for Inactive)
REMARK    1  A    between atoms: C2_2  and  C3_3
REMARK    2  A    between atoms: C5_5  and  O5_24
REMARK    3  A    between atoms: O5_24  and  C16_25
REMARK    4  A    between atoms: C16_25  and  C17_27
REMARK    5  A    between atoms: C17_27  and  C19_29
REMARK    6  A    between atoms: C19_29  and  O7_30
REMARK                            x       y       z     vdW  Elec       q    Type
REMARK                         _______ _______ _______ _____ _____    ______ ____
ROOT
ATOM      3  C   UNL     1       1.317  -0.740  -0.015  0.00  0.00    -0.056 C 
ATOM      4  C   UNL     1       1.333  -1.738  -1.176  0.00  0.00    +0.060 C 
ATOM      5  C   UNL     1       0.101  -2.635  -1.040  0.00  0.00    +0.208 C 
ATOM     14  C   UNL     1       0.071  -3.363   0.280  0.00  0.00    +0.040 C 
ATOM     15  C   UNL     1       0.302  -2.453   1.504  0.00  0.00    +0.250 C 
ATOM     16  O   UNL     1       0.713  -3.438   2.495  0.00  0.00    -0.334 OA
ATOM     17  C   UNL     1       1.543  -4.307   1.869  0.00  0.00    +0.511 C 
ATOM     18  O   UNL     1       2.432  -4.938   2.404  0.00  0.00    -0.439 OA
ATOM     19  C   UNL     1       1.210  -4.351   0.439  0.00  0.00    -0.229 C 
ATOM     20  C   UNL     1       1.777  -5.105  -0.499  0.00  0.00    +0.205 C 
ATOM     21  C   UNL     1       2.464   0.262  -0.146  0.00  0.00    +0.275 C 
ATOM     22  O   UNL     1       2.439   1.179   0.941  0.00  0.00    -0.351 OA
ATOM     23  C   UNL     1       2.473   0.633   2.183  0.00  0.00    +0.527 C 
ATOM     24  O   UNL     1       3.197   1.073   3.055  0.00  0.00    -0.441 OA
ATOM     25  C   UNL     1       1.581  -0.530   2.422  0.00  0.00    -0.205 C 
ATOM     26  C   UNL     1       0.912  -0.686   3.562  0.00  0.00    +0.170 C 
ATOM     27  C   UNL     1       1.481  -1.530   1.287  0.00  0.00    +0.035 C 
ENDROOT
BRANCH   3   2
ATOM      1  C   UNL     1      -0.034   1.280  -0.255  0.00  0.00    +0.026 C 
ATOM      2  C   UNL     1       0.002  -0.004   0.002  0.00  0.00    -0.018 C 
ENDBRANCH   3   2
BRANCH   5   6
ATOM      6  O   UNL     1      -1.073  -1.828  -1.149  0.00  0.00    -0.332 OA
BRANCH   6   7
ATOM      7  C   UNL     1      -1.583  -1.654  -2.385  0.00  0.00    +0.508 C 
ATOM     13  O   UNL     1      -1.044  -2.173  -3.343  0.00  0.00    -0.500 OA
BRANCH   7   8
ATOM      8  C   UNL     1      -2.789  -0.837  -2.574  0.00  0.00    -0.182 C 
ATOM     12  C   UNL     1      -3.293  -0.666  -3.794  0.00  0.00    +0.203 C 
BRANCH   8   9
ATOM      9  C   UNL     1      -3.457  -0.194  -1.386  0.00  0.00    +0.249 C 
BRANCH   9  10
ATOM     10  O   UNL     1      -4.601   0.542  -1.824  0.00  0.00    -0.572 OA
ATOM     11  H   UNL     1      -5.081   0.984  -1.110  0.00  0.00    +0.390 HD
ENDBRANCH   9  10
ENDBRANCH   8   9
ENDBRANCH   7   8
ENDBRANCH   6   7
ENDBRANCH   5   6
TORSDOF 6
