REMARK  Name = ZINC13480800
REMARK  9 active torsions:
REMARK  status: ('A' for Active; 'I' for Inactive)
REMARK    1  A    between atoms: C1_1  and  C2_2
REMARK    2  A    between atoms: C2_2  and  C3_3
REMARK    3  A    between atoms: C2_2  and  C4_4
REMARK    4  A    between atoms: C10_10  and  C26_31
REMARK    5  A    between atoms: C10_10  and  C27_32
REMARK    6  A    between atoms: C11_11  and  O3_22
REMARK    7  A    between atoms: C14_15  and  C18_21
REMARK    8  A    between atoms: O3_22  and  C19_23
REMARK    9  A    between atoms: C19_23  and  C20_25
REMARK                            x       y       z     vdW  Elec       q    Type
REMARK                         _______ _______ _______ _____ _____    ______ ____
ROOT
ATOM      3  C   UNL     1       3.976   6.194  -1.848  0.00  0.00    -0.202 C 
ATOM      4  C   UNL     1       4.032   5.134  -2.692  0.00  0.00    +0.141 C 
ATOM      5  C   UNL     1       3.507   3.882  -2.293  0.00  0.00    -0.129 C 
ATOM      6  C   UNL     1       3.545   2.792  -3.162  0.00  0.00    +0.120 C 
ATOM      7  C   UNL     1       3.017   1.539  -2.830  0.00  0.00    -0.018 C 
ATOM      8  C   UNL     1       2.470   1.290  -1.635  0.00  0.00    -0.034 C 
ATOM      9  C   UNL     1       1.876  -0.055  -1.300  0.00  0.00    -0.017 C 
ATOM     10  C   UNL     1       1.855  -0.936  -2.551  0.00  0.00    +0.053 C 
ATOM     11  C   UNL     1       2.707  -0.728  -0.206  0.00  0.00    +0.062 C 
ATOM     12  C   UNL     1       0.442   0.166  -0.799  0.00  0.00    +0.194 C 
ATOM     22  C   UNL     1       0.451   1.187   0.340  0.00  0.00    +0.031 C 
ATOM     23  C   UNL     1       0.975   2.533  -0.165  0.00  0.00    +0.037 C 
ATOM     24  C   UNL     1       2.436   2.383  -0.587  0.00  0.00    +0.002 C 
ATOM     25  C   UNL     1       3.229   1.901   0.629  0.00  0.00    +0.058 C 
ATOM     26  C   UNL     1       2.949   3.742  -0.997  0.00  0.00    +0.052 C 
ATOM     27  C   UNL     1       2.888   4.800  -0.156  0.00  0.00    +0.291 C 
ATOM     28  O   UNL     1       2.340   4.659   1.081  0.00  0.00    -0.476 OA
ATOM     29  C   UNL     1       3.399   6.056  -0.570  0.00  0.00    +0.367 C 
ATOM     30  O   UNL     1       3.338   7.019   0.182  0.00  0.00    -0.386 OA
ENDROOT
BRANCH   3   2
ATOM      1  C   UNL     1       3.420   8.575  -2.257  0.00  0.00    +0.029 C 
ATOM      2  C   UNL     1       4.533   7.526  -2.279  0.00  0.00    +0.044 C 
ATOM     31  C   UNL     1       5.649   7.946  -1.320  0.00  0.00    +0.031 C 
ENDBRANCH   3   2
BRANCH  12  13
ATOM     13  O   UNL     1      -0.100  -1.092  -0.317  0.00  0.00    -0.339 OA
BRANCH  13  14
ATOM     14  C   UNL     1      -1.432  -1.265  -0.425  0.00  0.00    +0.509 C 
ATOM     21  O   UNL     1      -2.121  -0.389  -0.909  0.00  0.00    -0.503 OA
BRANCH  14  15
ATOM     15  C   UNL     1      -2.054  -2.520   0.044  0.00  0.00    -0.129 A 
ATOM     16  C   UNL     1      -1.264  -3.531   0.596  0.00  0.00    +0.077 A 
ATOM     17  C   UNL     1      -1.853  -4.697   1.038  0.00  0.00    -0.000 A 
ATOM     18  C   UNL     1      -3.221  -4.872   0.925  0.00  0.00    +0.049 A 
ATOM     19  C   UNL     1      -4.009  -3.877   0.374  0.00  0.00    +0.003 A 
ATOM     20  C   UNL     1      -3.434  -2.703  -0.066  0.00  0.00    +0.082 A 
ENDBRANCH  14  15
ENDBRANCH  13  14
ENDBRANCH  12  13
TORSDOF 4
