REMARK  Name = ZINC04716567
REMARK  5 active torsions:
REMARK  status: ('A' for Active; 'I' for Inactive)
REMARK    1  A    between atoms: C1_1  and  N1_2
REMARK    2  A    between atoms: C7_8  and  O2_12
REMARK    3  A    between atoms: C8_9  and  O1_10
REMARK    4  A    between atoms: O1_10  and  C9_11
REMARK    5  A    between atoms: O2_12  and  C10_13
REMARK                            x       y       z     vdW  Elec       q    Type
REMARK                         _______ _______ _______ _____ _____    ______ ____
ROOT
ATOM      1  C   UNL     1       0.002  -0.004   0.002  0.00  0.00    +0.219 C 
ATOM      2  N   UNL     1      -0.018   1.464   0.010  0.00  0.00    -0.503 N 
ATOM      3  C   UNL     1      -0.849   1.983   1.095  0.00  0.00    +0.305 C 
ATOM      4  C   UNL     1      -0.151   1.869   2.423  0.00  0.00    -0.092 A 
ATOM      5  C   UNL     1       1.242   2.006   2.469  0.00  0.00    -0.068 A 
ATOM      6  C   UNL     1       1.958   2.199   1.187  0.00  0.00    -0.071 A 
ATOM      7  C   UNL     1       3.293   2.629   1.171  0.00  0.00    +0.037 A 
ATOM      8  C   UNL     1       3.925   2.885  -0.004  0.00  0.00    +0.030 A 
ATOM      9  C   UNL     1       3.218   2.789  -1.221  0.00  0.00    -0.033 A 
ATOM     10  C   UNL     1       3.861   3.142  -2.428  0.00  0.00    +0.046 A 
ATOM     11  C   UNL     1       3.117   3.071  -3.575  0.00  0.00    +0.047 A 
ATOM     12  O   UNL     1       3.478   3.355  -4.849  0.00  0.00    -0.303 OA
ATOM     13  C   UNL     1       2.481   2.724  -5.680  0.00  0.00    +0.432 C 
ATOM     14  O   UNL     1       1.301   2.679  -4.844  0.00  0.00    -0.305 OA
ATOM     15  C   UNL     1       1.766   2.655  -3.571  0.00  0.00    +0.035 A 
ATOM     16  C   UNL     1       1.125   2.300  -2.417  0.00  0.00    +0.081 A 
ATOM     17  C   UNL     1       1.871   2.355  -1.221  0.00  0.00    -0.026 A 
ATOM     18  C   UNL     1       1.906   1.967   3.685  0.00  0.00    +0.068 A 
ATOM     19  C   UNL     1       1.198   1.782   4.856  0.00  0.00    -0.058 A 
ATOM     20  C   UNL     1      -0.180   1.629   4.814  0.00  0.00    +0.118 A 
ATOM     23  C   UNL     1      -0.853   1.671   3.596  0.00  0.00    +0.076 A 
ATOM     26  C   UNL     1       1.266   1.988   0.001  0.00  0.00    +0.125 A 
ENDROOT
BRANCH  20  21
ATOM     21  O   UNL     1      -0.875   1.437   5.967  0.00  0.00    -0.305 OA
ATOM     22  C   UNL     1      -0.121   1.403   7.181  0.00  0.00    +0.242 C 
ENDBRANCH  20  21
BRANCH  23  24
ATOM     24  O   UNL     1      -2.204   1.528   3.561  0.00  0.00    -0.322 OA
ATOM     25  C   UNL     1      -2.712   0.200   3.415  0.00  0.00    +0.222 C 
ENDBRANCH  23  24
TORSDOF 2
