REMARK  Name = ZINC95486060
REMARK  19 active torsions:
REMARK  status: ('A' for Active; 'I' for Inactive)
REMARK    1  A    between atoms: C1_1  and  C2_2
REMARK    2  A    between atoms: C2_2  and  O2_4
REMARK    3  A    between atoms: O2_4  and  C3_5
REMARK    4  A    between atoms: C3_5  and  C4_6
REMARK    5  A    between atoms: C4_6  and  C5_7
REMARK    6  A    between atoms: C5_7  and  C6_8
REMARK    7  A    between atoms: C6_8  and  C7_9
REMARK    8  A    between atoms: C7_9  and  C8_10
REMARK    9  A    between atoms: C8_10  and  C9_11
REMARK   10  A    between atoms: C9_11  and  C10_12
REMARK   11  A    between atoms: C10_12  and  C11_13
REMARK   12  A    between atoms: C11_13  and  C12_15
REMARK   13  A    between atoms: C11_13  and  O5_27
REMARK   14  A    between atoms: C13_16  and  C14_17
REMARK   15  A    between atoms: C15_18  and  C16_19
REMARK   16  A    between atoms: C16_19  and  C17_21
REMARK   17  A    between atoms: C16_19  and  O3_23
REMARK   18  A    between atoms: O3_23  and  C19_24
REMARK   19  A    between atoms: C19_24  and  C20_26
REMARK                            x       y       z     vdW  Elec       q    Type
REMARK                         _______ _______ _______ _____ _____    ______ ____
ROOT
ATOM     12  C   UNL     1      -6.277 -10.639   0.005  0.00  0.00    +0.350 C 
ENDROOT
BRANCH  12  13
ATOM     13  O   UNL     1      -5.689 -11.070  -1.224  0.00  0.00    -0.544 OA
ATOM     14  H   UNL     1      -6.189 -10.813  -2.011  0.00  0.00    +0.382 HD
ENDBRANCH  12  13
BRANCH  12  15
ATOM     15  C   UNL     1      -7.623 -11.221   0.136  0.00  0.00    -0.146 C 
ATOM     16  C   UNL     1      -8.696 -11.684   0.240  0.00  0.00    -0.063 C 
BRANCH  16  17
ATOM     17  C   UNL     1      -9.955 -12.228   0.362  0.00  0.00    -0.037 C 
ATOM     18  C   UNL     1     -11.029 -12.692   0.466  0.00  0.00    -0.120 C 
BRANCH  18  19
ATOM     19  C   UNL     1     -12.375 -13.273   0.597  0.00  0.00    +0.360 C 
BRANCH  19  24
ATOM     24  C   UNL     1     -12.995 -12.819   1.893  0.00  0.00    -0.047 C 
ATOM     25  C   UNL     1     -14.162 -12.224   1.888  0.00  0.00    +0.053 C 
ENDBRANCH  19  24
BRANCH  19  20
ATOM     20  O   UNL     1     -13.188 -12.843  -0.497  0.00  0.00    -0.341 OA
BRANCH  20  21
ATOM     21  C   UNL     1     -14.156 -13.680  -0.902  0.00  0.00    +0.461 C 
ATOM     22  C   UNL     1     -15.053 -13.294  -2.050  0.00  0.00    +0.166 C 
ATOM     23  O   UNL     1     -14.308 -14.742  -0.347  0.00  0.00    -0.502 OA
ENDBRANCH  20  21
ENDBRANCH  19  20
ENDBRANCH  18  19
ENDBRANCH  16  17
ENDBRANCH  12  15
BRANCH  12  11
ATOM     11  C   UNL     1      -6.378  -9.113   0.014  0.00  0.00    +0.004 C 
BRANCH  11  10
ATOM     10  C   UNL     1      -4.972  -8.509   0.004  0.00  0.00    +0.021 C 
BRANCH  10   9
ATOM      9  C   UNL     1      -5.072  -6.982   0.013  0.00  0.00    +0.003 C 
BRANCH   9   8
ATOM      8  C   UNL     1      -3.667  -6.378   0.003  0.00  0.00    +0.005 C 
BRANCH   8   7
ATOM      7  C   UNL     1      -3.768  -4.851   0.012  0.00  0.00    +0.008 C 
BRANCH   7   6
ATOM      6  C   UNL     1      -2.362  -4.247   0.002  0.00  0.00    +0.014 C 
BRANCH   6   5
ATOM      5  C   UNL     1      -2.463  -2.721   0.011  0.00  0.00    +0.030 C 
BRANCH   5   4
ATOM      4  C   UNL     1      -1.057  -2.117   0.001  0.00  0.00    +0.199 C 
BRANCH   4   3
ATOM      3  O   UNL     1      -1.151  -0.691   0.009  0.00  0.00    -0.355 OA
BRANCH   3   2
ATOM      1  C   UNL     1      -0.018   1.503   0.010  0.00  0.00    +0.156 C 
ATOM      2  C   UNL     1       0.002  -0.004   0.002  0.00  0.00    +0.458 C 
ATOM     26  O   UNL     1       1.057  -0.594  -0.011  0.00  0.00    -0.513 OA
ENDBRANCH   3   2
ENDBRANCH   4   3
ENDBRANCH   5   4
ENDBRANCH   6   5
ENDBRANCH   7   6
ENDBRANCH   8   7
ENDBRANCH   9   8
ENDBRANCH  10   9
ENDBRANCH  11  10
ENDBRANCH  12  11
TORSDOF 17
