REMARK  Name = ZINC87493012
REMARK  8 active torsions:
REMARK  status: ('A' for Active; 'I' for Inactive)
REMARK    1  A    between atoms: C1_1  and  C2_2
REMARK    2  A    between atoms: C2_2  and  C3_3
REMARK    3  A    between atoms: C2_2  and  C4_4
REMARK    4  A    between atoms: C5_5  and  C6_6
REMARK    5  A    between atoms: C7_7  and  O4_23
REMARK    6  A    between atoms: C9_9  and  C12_13
REMARK    7  A    between atoms: C11_11  and  O1_12
REMARK    8  A    between atoms: C17_18  and  O3_22
REMARK                            x       y       z     vdW  Elec       q    Type
REMARK                         _______ _______ _______ _____ _____    ______ ____
ROOT
ATOM      5  C   UNL     1      -3.229  -1.800  -0.973  0.00  0.00    -0.093 A 
ATOM      6  C   UNL     1      -3.735  -2.433   0.171  0.00  0.00    +0.132 A 
ATOM      9  C   UNL     1      -5.031  -2.911   0.178  0.00  0.00    +0.013 A 
ATOM     10  C   UNL     1      -5.838  -2.763  -0.953  0.00  0.00    +0.004 A 
ATOM     22  C   UNL     1      -5.336  -2.132  -2.094  0.00  0.00    +0.015 A 
ATOM     23  C   UNL     1      -4.042  -1.648  -2.104  0.00  0.00    +0.135 A 
ENDROOT
BRANCH  10  11
ATOM     11  C   UNL     1      -7.223  -3.274  -0.943  0.00  0.00    +0.073 A 
ATOM     12  C   UNL     1      -8.091  -3.192  -1.979  0.00  0.00    -0.012 A 
ATOM     13  C   UNL     1      -9.331  -3.823  -1.522  0.00  0.00    -0.139 A 
ATOM     14  C   UNL     1     -10.578  -4.054  -2.106  0.00  0.00    +0.086 A 
ATOM     15  C   UNL     1     -11.555  -4.688  -1.393  0.00  0.00    -0.018 A 
ATOM     16  C   UNL     1     -11.315  -5.104  -0.086  0.00  0.00    +0.138 A 
ATOM     19  C   UNL     1     -10.085  -4.883   0.509  0.00  0.00    +0.003 A 
ATOM     20  C   UNL     1      -9.080  -4.241  -0.202  0.00  0.00    +0.076 A 
ATOM     21  O   UNL     1      -7.811  -3.898   0.098  0.00  0.00    -0.186 OA
BRANCH  16  17
ATOM     17  O   UNL     1     -12.297  -5.733   0.612  0.00  0.00    -0.492 OA
ATOM     18  H   UNL     1     -12.296  -6.695   0.514  0.00  0.00    +0.396 HD
ENDBRANCH  16  17
ENDBRANCH  10  11
BRANCH   5   4
ATOM      3  C   UNL     1      -1.412  -0.526   0.013  0.00  0.00    -0.012 C 
ATOM      4  C   UNL     1      -1.845  -1.290  -0.983  0.00  0.00    +0.006 C 
BRANCH   3   2
ATOM      1  C   UNL     1      -0.019   1.526   0.010  0.00  0.00    +0.025 C 
ATOM      2  C   UNL     1       0.002  -0.004   0.002  0.00  0.00    +0.007 C 
ATOM     26  C   UNL     1       0.742  -0.511   1.242  0.00  0.00    +0.027 C 
ENDBRANCH   3   2
ENDBRANCH   5   4
BRANCH   6   7
ATOM      7  O   UNL     1      -2.951  -2.578   1.271  0.00  0.00    -0.485 OA
ATOM      8  H   UNL     1      -3.009  -1.841   1.894  0.00  0.00    +0.392 HD
ENDBRANCH   6   7
BRANCH  23  24
ATOM     24  O   UNL     1      -3.556  -1.029  -3.212  0.00  0.00    -0.486 OA
ATOM     25  H   UNL     1      -3.131  -1.627  -3.841  0.00  0.00    +0.394 HD
ENDBRANCH  23  24
TORSDOF 6
