REMARK  Name = ZINC95485891
REMARK  9 active torsions:
REMARK  status: ('A' for Active; 'I' for Inactive)
REMARK    1  A    between atoms: C1_1  and  C2_2
REMARK    2  A    between atoms: C2_2  and  O2_4
REMARK    3  A    between atoms: O2_4  and  C3_5
REMARK    4  A    between atoms: C6_10  and  C28_40
REMARK    5  A    between atoms: C10_15  and  C11_16
REMARK    6  A    between atoms: C10_15  and  C12_17
REMARK    7  A    between atoms: C14_20  and  C27_39
REMARK    8  A    between atoms: C18_28  and  C23_34
REMARK    9  A    between atoms: C19_30  and  C22_33
REMARK                            x       y       z     vdW  Elec       q    Type
REMARK                         _______ _______ _______ _____ _____    ______ ____
ROOT
ATOM      4  C   UNL     1      -0.402  -2.286  -1.624  0.00  0.00    +0.182 C 
ATOM      5  C   UNL     1      -1.858  -2.774  -1.621  0.00  0.00    +0.045 C 
ATOM      6  C   UNL     1      -2.568  -2.221  -2.852  0.00  0.00    +0.016 C 
ATOM      7  C   UNL     1      -1.933  -2.755  -4.128  0.00  0.00    -0.018 C 
ATOM      8  C   UNL     1      -2.135  -4.255  -4.291  0.00  0.00    +0.046 C 
ATOM      9  C   UNL     1      -0.458  -2.380  -4.129  0.00  0.00    +0.020 C 
ATOM     10  C   UNL     1       0.284  -2.813  -5.379  0.00  0.00    +0.034 C 
ATOM     11  C   UNL     1       1.640  -2.121  -5.501  0.00  0.00    +0.054 C 
ATOM     12  C   UNL     1       2.120  -1.452  -4.234  0.00  0.00    -0.056 C 
ATOM     13  C   UNL     1       1.579  -0.020  -4.179  0.00  0.00    +0.060 C 
ATOM     14  C   UNL     1       3.643  -1.284  -4.237  0.00  0.00    +0.278 C 
ATOM     20  O   UNL     1       4.089  -0.576  -3.094  0.00  0.00    -0.335 OA
ATOM     21  C   UNL     1       3.662  -0.885  -1.867  0.00  0.00    +0.507 C 
ATOM     22  O   UNL     1       4.185  -0.395  -0.893  0.00  0.00    -0.436 OA
ATOM     23  C   UNL     1       2.509  -1.863  -1.703  0.00  0.00    +0.113 C 
ATOM     24  O   UNL     1       2.716  -3.094  -2.416  0.00  0.00    -0.326 OA
ATOM     25  C   UNL     1       1.724  -2.196  -2.967  0.00  0.00    +0.073 C 
ATOM     26  C   UNL     1      -2.604  -2.107  -5.319  0.00  0.00    +0.068 C 
ATOM     27  C   UNL     1      -3.901  -1.836  -5.297  0.00  0.00    -0.091 C 
ATOM     28  C   UNL     1      -4.718  -2.141  -4.125  0.00  0.00    +0.393 C 
ATOM     29  O   UNL     1      -5.934  -2.184  -4.227  0.00  0.00    -0.453 OA
ATOM     30  C   UNL     1      -4.076  -2.367  -2.773  0.00  0.00    -0.089 C 
ATOM     31  C   UNL     1      -4.622  -1.279  -1.818  0.00  0.00    +0.052 C 
ATOM     32  C   UNL     1      -4.504  -3.727  -2.213  0.00  0.00    +0.058 C 
ATOM     33  C   UNL     1       0.308  -2.783  -2.881  0.00  0.00    -0.004 C 
ATOM     34  C   UNL     1       0.498  -4.306  -2.764  0.00  0.00    +0.069 C 
ENDROOT
BRANCH  14  15
ATOM     15  C   UNL     1       4.038  -0.516  -5.471  0.00  0.00    -0.187 A 
ATOM     16  C   UNL     1       4.425  -1.063  -6.716  0.00  0.00    -0.046 A 
ATOM     17  C   UNL     1       4.690  -0.026  -7.532  0.00  0.00    +0.173 A 
ATOM     18  O   UNL     1       4.485   1.113  -6.851  0.00  0.00    -0.171 OA
ATOM     19  C   UNL     1       4.085   0.822  -5.602  0.00  0.00    +0.204 A 
ENDBRANCH  14  15
BRANCH   4   3
ATOM      3  O   UNL     1      -0.377  -0.860  -1.580  0.00  0.00    -0.341 OA
BRANCH   3   2
ATOM      1  C   UNL     1      -0.340   1.214  -0.240  0.00  0.00    +0.156 C 
ATOM      2  C   UNL     1      -0.367  -0.288  -0.366  0.00  0.00    +0.456 C 
ATOM     35  O   UNL     1      -0.380  -0.977   0.627  0.00  0.00    -0.505 OA
ENDBRANCH   3   2
ENDBRANCH   4   3
TORSDOF 3
