REMARK  Name = ZINC95486051
REMARK  12 active torsions:
REMARK  status: ('A' for Active; 'I' for Inactive)
REMARK    1  A    between atoms: C1_1  and  C2_2
REMARK    2  A    between atoms: C2_2  and  C24_31
REMARK    3  A    between atoms: C3_3  and  C4_4
REMARK    4  A    between atoms: C4_4  and  C5_5
REMARK    5  A    between atoms: C6_6  and  C15_17
REMARK    6  A    between atoms: C8_8  and  C11_13
REMARK    7  A    between atoms: C9_9  and  O2_12
REMARK    8  A    between atoms: C10_10  and  O1_11
REMARK    9  A    between atoms: C12_14  and  C13_15
REMARK   10  A    between atoms: C12_14  and  C14_16
REMARK   11  A    between atoms: C19_23  and  O6_30
REMARK   12  A    between atoms: C21_25  and  O5_29
REMARK                            x       y       z     vdW  Elec       q    Type
REMARK                         _______ _______ _______ _____ _____    ______ ____
ROOT
ATOM      6  C   UNL     1      -1.782  -1.133   2.544  0.00  0.00    -0.072 A 
ATOM      7  C   UNL     1      -3.124  -0.835   2.699  0.00  0.00    -0.085 A 
ATOM     23  C   UNL     1      -3.795  -1.222   3.840  0.00  0.00    +0.067 A 
ATOM     24  C   UNL     1      -3.120  -1.919   4.845  0.00  0.00    -0.063 A 
ATOM     29  C   UNL     1      -1.764  -2.221   4.687  0.00  0.00    +0.101 A 
ATOM     32  C   UNL     1      -1.101  -1.829   3.530  0.00  0.00    +0.091 A 
ENDROOT
BRANCH   7   8
ATOM      8  C   UNL     1      -3.856  -0.083   1.617  0.00  0.00    +0.242 C 
ATOM      9  C   UNL     1      -3.618   1.424   1.790  0.00  0.00    +0.038 C 
ATOM     10  C   UNL     1      -4.403   2.131   0.700  0.00  0.00    +0.404 C 
ATOM     11  C   UNL     1      -5.737   1.598   0.401  0.00  0.00    -0.293 A 
ATOM     12  C   UNL     1      -6.635   2.322  -0.399  0.00  0.00    +0.223 A 
ATOM     15  C   UNL     1      -7.882   1.792  -0.675  0.00  0.00    -0.074 A 
ATOM     16  C   UNL     1      -8.240   0.551  -0.162  0.00  0.00    +0.199 A 
ATOM     19  C   UNL     1      -7.357  -0.168   0.634  0.00  0.00    -0.052 A 
ATOM     20  C   UNL     1      -6.106   0.345   0.925  0.00  0.00    +0.215 A 
ATOM     21  O   UNL     1      -3.950   3.087   0.105  0.00  0.00    -0.430 OA
ATOM     22  O   UNL     1      -5.254  -0.355   1.711  0.00  0.00    -0.297 OA
BRANCH  12  13
ATOM     13  O   UNL     1      -6.283   3.534  -0.895  0.00  0.00    -0.479 OA
ATOM     14  H   UNL     1      -5.854   3.495  -1.761  0.00  0.00    +0.404 HD
ENDBRANCH  12  13
BRANCH  16  17
ATOM     17  O   UNL     1      -9.464   0.036  -0.441  0.00  0.00    -0.490 OA
ATOM     18  H   UNL     1      -9.490  -0.505  -1.242  0.00  0.00    +0.403 HD
ENDBRANCH  16  17
ENDBRANCH   7   8
BRANCH  24  25
ATOM     25  C   UNL     1      -3.836  -2.335   6.068  0.00  0.00    -0.010 C 
ATOM     26  C   UNL     1      -4.735  -1.529   6.617  0.00  0.00    -0.104 C 
ATOM     27  C   UNL     1      -5.568  -2.009   7.778  0.00  0.00    +0.084 C 
ATOM     28  C   UNL     1      -4.925  -0.134   6.079  0.00  0.00    +0.077 C 
ENDBRANCH  24  25
BRANCH  29  30
ATOM     30  O   UNL     1      -1.099  -2.899   5.660  0.00  0.00    -0.485 OA
ATOM     31  H   UNL     1      -1.121  -3.860   5.555  0.00  0.00    +0.393 HD
ENDBRANCH  29  30
BRANCH  32  33
ATOM     33  O   UNL     1       0.217  -2.123   3.369  0.00  0.00    -0.482 OA
ATOM     34  H   UNL     1       0.816  -1.445   3.710  0.00  0.00    +0.389 HD
ENDBRANCH  32  33
BRANCH   6   5
ATOM      5  C   UNL     1      -1.058  -0.705   1.293  0.00  0.00    +0.111 C 
BRANCH   5   4
ATOM      1  C   UNL     1       1.310  -1.577   0.034  0.00  0.00    +0.076 C 
ATOM      2  C   UNL     1       0.000  -2.261  -0.263  0.00  0.00    -0.112 C 
ATOM      3  C   UNL     1      -0.034  -3.454  -1.183  0.00  0.00    +0.074 C 
ATOM      4  C   UNL     1      -1.107  -1.819   0.278  0.00  0.00    -0.062 C 
ENDBRANCH   5   4
ENDBRANCH   6   5
TORSDOF 8
