REMARK  Name = ZINC95486231
REMARK  4 active torsions:
REMARK  status: ('A' for Active; 'I' for Inactive)
REMARK    1  A    between atoms: C1_1  and  C2_2
REMARK    2  A    between atoms: C9_13  and  C13_19
REMARK    3  A    between atoms: C16_22  and  C23_33
REMARK    4  A    between atoms: C18_25  and  C19_28
REMARK                            x       y       z     vdW  Elec       q    Type
REMARK                         _______ _______ _______ _____ _____    ______ ____
ROOT
ATOM      1  C   UNL     1      -0.957   2.429   1.815  0.00  0.00    +0.088 C 
ATOM      2  C   UNL     1      -0.566   0.997   1.497  0.00  0.00    +0.185 C 
ATOM      3  C   UNL     1      -1.738   0.026   1.237  0.00  0.00    -0.009 C 
ATOM      4  C   UNL     1      -2.649   0.673   0.242  0.00  0.00    +0.047 C 
ATOM      5  C   UNL     1      -3.837  -0.098  -0.171  0.00  0.00    +0.363 C 
ATOM      6  C   UNL     1      -5.012  -0.427   0.651  0.00  0.00    +0.068 C 
ATOM      7  C   UNL     1      -4.619  -1.494   1.683  0.00  0.00    +0.080 C 
ATOM      8  C   UNL     1      -3.732  -0.930   2.767  0.00  0.00    +0.032 C 
ATOM      9  C   UNL     1      -3.744  -1.814   4.019  0.00  0.00    +0.022 C 
ATOM     10  C   UNL     1      -4.811  -2.861   4.179  0.00  0.00    +0.056 C 
ATOM     11  C   UNL     1      -5.592  -3.220   2.925  0.00  0.00    -0.129 C 
ATOM     12  C   UNL     1      -6.823  -4.095   3.219  0.00  0.00    +0.082 C 
ATOM     13  C   UNL     1      -4.717  -3.805   1.801  0.00  0.00    +0.258 C 
ATOM     19  O   UNL     1      -4.075  -2.690   1.154  0.00  0.00    -0.325 OA
ATOM     20  C   UNL     1      -5.973  -1.869   2.311  0.00  0.00    +0.358 C 
ATOM     21  O   UNL     1      -7.024  -1.279   2.320  0.00  0.00    -0.389 OA
ATOM     22  O   UNL     1      -3.846  -0.509  -1.321  0.00  0.00    -0.454 OA
ATOM     23  C   UNL     1      -2.288  -0.601   2.478  0.00  0.00    -0.007 C 
ATOM     24  C   UNL     1      -1.944   0.276   3.688  0.00  0.00    +0.044 C 
ATOM     25  C   UNL     1      -1.464  -1.856   2.713  0.00  0.00    +0.076 C 
ATOM     26  C   UNL     1      -0.149  -1.942   2.621  0.00  0.00    -0.083 C 
ATOM     27  C   UNL     1       0.724  -0.828   2.262  0.00  0.00    +0.522 C 
ATOM     28  O   UNL     1       1.847  -1.055   1.831  0.00  0.00    -0.455 OA
ATOM     29  O   UNL     1       0.341   0.445   2.434  0.00  0.00    -0.373 OA
ENDROOT
BRANCH  13  14
ATOM     14  C   UNL     1      -3.711  -4.800   2.322  0.00  0.00    -0.181 A 
ATOM     15  C   UNL     1      -3.971  -5.883   3.191  0.00  0.00    -0.052 A 
ATOM     16  C   UNL     1      -2.798  -6.508   3.397  0.00  0.00    +0.172 A 
ATOM     17  O   UNL     1      -1.846  -5.864   2.701  0.00  0.00    -0.172 OA
ATOM     18  C   UNL     1      -2.396  -4.830   2.043  0.00  0.00    +0.180 A 
ENDBRANCH  13  14
TORSDOF 1
