REMARK  Name = ZINC95485924
REMARK  31 active torsions:
REMARK  status: ('A' for Active; 'I' for Inactive)
REMARK    1  A    between atoms: C1_1  and  C2_2
REMARK    2  A    between atoms: C2_2  and  C3_3
REMARK    3  A    between atoms: C3_3  and  C4_4
REMARK    4  A    between atoms: C4_4  and  C5_5
REMARK    5  A    between atoms: C5_5  and  C6_6
REMARK    6  A    between atoms: C6_6  and  C7_7
REMARK    7  A    between atoms: C7_7  and  C8_8
REMARK    8  A    between atoms: C8_8  and  C9_9
REMARK    9  A    between atoms: C9_9  and  C10_10
REMARK   10  A    between atoms: C10_10  and  C11_11
REMARK   11  A    between atoms: C11_11  and  C12_12
REMARK   12  A    between atoms: C12_12  and  C13_13
REMARK   13  A    between atoms: C13_13  and  C14_14
REMARK   14  A    between atoms: C14_14  and  C15_15
REMARK   15  A    between atoms: C15_15  and  C16_17
REMARK   16  A    between atoms: C15_15  and  O7_51
REMARK   17  A    between atoms: C16_17  and  O1_18
REMARK   18  A    between atoms: O1_18  and  C17_19
REMARK   19  A    between atoms: C20_22  and  C23_25
REMARK   20  A    between atoms: C26_29  and  C38_44
REMARK   21  A    between atoms: C27_30  and  O5_43
REMARK   22  A    between atoms: C28_31  and  C33_38
REMARK   23  A    between atoms: C29_32  and  O4_36
REMARK   24  A    between atoms: O4_36  and  C32_37
REMARK   25  A    between atoms: C33_38  and  C34_39
REMARK   26  A    between atoms: C35_40  and  C36_41
REMARK   27  A    between atoms: C35_40  and  C37_42
REMARK   28  A    between atoms: C38_44  and  C39_45
REMARK   29  A    between atoms: C39_45  and  C40_47
REMARK   30  A    between atoms: C39_45  and  O6_50
REMARK   31  A    between atoms: C40_47  and  C42_49
REMARK                            x       y       z     vdW  Elec       q    Type
REMARK                         _______ _______ _______ _____ _____    ______ ____
ROOT
ATOM     24  C   UNL     1       7.435 -21.606   9.075  0.00  0.00    -0.230 A 
ATOM     25  C   UNL     1       8.246 -22.593   8.614  0.00  0.00    +0.319 A 
ATOM     26  O   UNL     1       8.444 -23.734   9.278  0.00  0.00    -0.211 OA
ATOM     27  C   UNL     1       7.632 -24.120  10.281  0.00  0.00    +0.180 A 
ATOM     28  C   UNL     1       7.651 -25.430  10.740  0.00  0.00    -0.131 A 
ATOM     36  C   UNL     1       6.818 -25.814  11.779  0.00  0.00    +0.187 A 
ATOM     39  C   UNL     1       5.957 -24.900  12.376  0.00  0.00    -0.146 A 
ATOM     45  C   UNL     1       5.920 -23.591  11.932  0.00  0.00    +0.199 A 
ATOM     48  C   UNL     1       6.754 -23.198  10.878  0.00  0.00    -0.246 A 
ATOM     49  C   UNL     1       6.740 -21.819  10.360  0.00  0.00    +0.431 A 
ATOM     50  O   UNL     1       6.186 -20.909  10.953  0.00  0.00    -0.435 OA
ENDROOT
BRANCH  24  23
ATOM     20  C   UNL     1       6.925 -17.995   6.886  0.00  0.00    +0.136 A 
ATOM     21  C   UNL     1       6.479 -19.196   6.353  0.00  0.00    -0.081 A 
ATOM     22  C   UNL     1       6.643 -20.369   7.061  0.00  0.00    +0.060 A 
ATOM     23  C   UNL     1       7.258 -20.347   8.311  0.00  0.00    -0.067 A 
ATOM     51  C   UNL     1       7.705 -19.138   8.844  0.00  0.00    +0.084 A 
ATOM     52  C   UNL     1       7.542 -17.970   8.129  0.00  0.00    -0.015 A 
BRANCH  20  19
ATOM     19  O   UNL     1       6.762 -16.841   6.187  0.00  0.00    -0.303 OA
BRANCH  19  18
ATOM     18  C   UNL     1       6.119 -16.939   4.914  0.00  0.00    +0.163 C 
BRANCH  18  15
ATOM     15  C   UNL     1       6.026 -15.549   4.281  0.00  0.00    +0.220 C 
BRANCH  15  16
ATOM     16  O   UNL     1       5.173 -14.720   5.074  0.00  0.00    -0.549 OA
ATOM     17  H   UNL     1       4.270 -15.055   5.160  0.00  0.00    +0.374 HD
ENDBRANCH  15  16
BRANCH  15  14
ATOM     14  C   UNL     1       5.452 -15.669   2.869  0.00  0.00    -0.004 C 
BRANCH  14  13
ATOM     13  C   UNL     1       5.475 -14.298   2.190  0.00  0.00    +0.019 C 
BRANCH  13  12
ATOM     12  C   UNL     1       4.900 -14.418   0.777  0.00  0.00    +0.001 C 
BRANCH  12  11
ATOM     11  C   UNL     1       4.923 -13.047   0.099  0.00  0.00    +0.002 C 
BRANCH  11  10
ATOM     10  C   UNL     1       4.349 -13.167  -1.314  0.00  0.00    +0.000 C 
BRANCH  10   9
ATOM      9  C   UNL     1       4.372 -11.796  -1.992  0.00  0.00    +0.000 C 
BRANCH   9   8
ATOM      8  C   UNL     1       3.797 -11.916  -3.405  0.00  0.00    -0.000 C 
BRANCH   8   7
ATOM      7  C   UNL     1       3.820 -10.545  -4.084  0.00  0.00    +0.000 C 
BRANCH   7   6
ATOM      6  C   UNL     1       3.246 -10.666  -5.497  0.00  0.00    +0.000 C 
BRANCH   6   5
ATOM      5  C   UNL     1       3.269  -9.294  -6.175  0.00  0.00    +0.000 C 
BRANCH   5   4
ATOM      4  C   UNL     1       2.694  -9.415  -7.588  0.00  0.00    -0.000 C 
BRANCH   4   3
ATOM      3  C   UNL     1       2.717  -8.043  -8.267  0.00  0.00    -0.000 C 
BRANCH   3   2
ATOM      1  C   UNL     1       2.166  -6.793 -10.358  0.00  0.00    +0.006 C 
ATOM      2  C   UNL     1       2.143  -8.164  -9.679  0.00  0.00    -0.006 C 
ENDBRANCH   3   2
ENDBRANCH   4   3
ENDBRANCH   5   4
ENDBRANCH   6   5
ENDBRANCH   7   6
ENDBRANCH   8   7
ENDBRANCH   9   8
ENDBRANCH  10   9
ENDBRANCH  11  10
ENDBRANCH  12  11
ENDBRANCH  13  12
ENDBRANCH  14  13
ENDBRANCH  15  14
ENDBRANCH  18  15
ENDBRANCH  19  18
ENDBRANCH  20  19
ENDBRANCH  24  23
BRANCH  36  37
ATOM     37  O   UNL     1       6.842 -27.099  12.218  0.00  0.00    -0.479 OA
ATOM     38  H   UNL     1       7.479 -27.259  12.928  0.00  0.00    +0.396 HD
ENDBRANCH  36  37
BRANCH  45  46
ATOM     46  O   UNL     1       5.083 -22.695  12.514  0.00  0.00    -0.319 OA
ATOM     47  C   UNL     1       5.579 -21.987  13.652  0.00  0.00    +0.243 C 
ENDBRANCH  45  46
BRANCH  28  29
ATOM     29  C   UNL     1       8.578 -26.435  10.108  0.00  0.00    +0.081 C 
BRANCH  29  30
ATOM     30  C   UNL     1       9.918 -26.428  10.845  0.00  0.00    +0.249 C 
BRANCH  30  33
ATOM     33  C   UNL     1      10.802 -27.517  10.293  0.00  0.00    -0.163 C 
ATOM     34  C   UNL     1      11.280 -27.448   8.866  0.00  0.00    +0.079 C 
ATOM     35  C   UNL     1      11.154 -28.523  11.054  0.00  0.00    +0.027 C 
ENDBRANCH  30  33
BRANCH  30  31
ATOM     31  O   UNL     1      10.555 -25.161  10.665  0.00  0.00    -0.549 OA
ATOM     32  H   UNL     1      10.736 -24.940   9.741  0.00  0.00    +0.375 HD
ENDBRANCH  30  31
ENDBRANCH  29  30
ENDBRANCH  28  29
BRANCH  39  40
ATOM     40  C   UNL     1       5.062 -25.337  13.507  0.00  0.00    +0.136 C 
BRANCH  40  41
ATOM     41  C   UNL     1       5.826 -25.273  14.805  0.00  0.00    -0.060 C 
ATOM     42  C   UNL     1       5.997 -26.358  15.518  0.00  0.00    -0.123 C 
ATOM     43  C   UNL     1       6.599 -26.267  16.896  0.00  0.00    +0.073 C 
ATOM     44  C   UNL     1       5.592 -27.698  14.960  0.00  0.00    +0.078 C 
ENDBRANCH  40  41
ENDBRANCH  39  40
TORSDOF 26
