REMARK  Name = ZINC95485956
REMARK  9 active torsions:
REMARK  status: ('A' for Active; 'I' for Inactive)
REMARK    1  A    between atoms: C1_1  and  O1_2
REMARK    2  A    between atoms: O1_2  and  C2_3
REMARK    3  A    between atoms: C9_10  and  C14_18
REMARK    4  A    between atoms: C10_11  and  O4_16
REMARK    5  A    between atoms: O4_16  and  C13_17
REMARK    6  A    between atoms: C28_38  and  O11_39
REMARK    7  A    between atoms: O11_39  and  C29_40
REMARK    8  A    between atoms: C32_45  and  O14_46
REMARK    9  A    between atoms: O14_46  and  C33_47
REMARK                            x       y       z     vdW  Elec       q    Type
REMARK                         _______ _______ _______ _____ _____    ______ ____
ROOT
ATOM      3  C   UNL     1      -1.201  -0.638   0.010  0.00  0.00    +0.152 A 
ATOM      4  C   UNL     1      -2.364   0.119   0.020  0.00  0.00    +0.033 A 
ATOM      5  C   UNL     1      -3.593  -0.527   0.031  0.00  0.00    -0.089 A 
ATOM      6  C   UNL     1      -3.619  -1.938   0.021  0.00  0.00    -0.115 A 
ATOM      7  C   UNL     1      -4.932  -2.593   0.022  0.00  0.00    -0.044 A 
ATOM      8  C   UNL     1      -4.963  -3.993   0.212  0.00  0.00    -0.142 A 
ATOM      9  C   UNL     1      -3.667  -4.662   0.416  0.00  0.00    +0.538 A 
ATOM     10  O   UNL     1      -2.540  -4.055  -0.030  0.00  0.00    -0.259 OA
ATOM     11  O   UNL     1      -3.610  -5.740   0.976  0.00  0.00    -0.410 OA
ATOM     12  C   UNL     1      -6.188  -4.642   0.218  0.00  0.00    +0.149 A 
ATOM     13  C   UNL     1      -7.354  -3.894   0.055  0.00  0.00    -0.056 A 
ATOM     37  C   UNL     1      -7.313  -2.504  -0.122  0.00  0.00    +0.177 A 
ATOM     40  C   UNL     1      -6.092  -1.840  -0.146  0.00  0.00    +0.105 A 
ATOM     41  O   UNL     1      -5.996  -0.503  -0.360  0.00  0.00    -0.258 OA
ATOM     42  C   UNL     1      -2.454  -2.702   0.007  0.00  0.00    +0.157 A 
ATOM     43  C   UNL     1      -4.893   0.160   0.066  0.00  0.00    +0.535 A 
ATOM     44  O   UNL     1      -4.978   1.304   0.471  0.00  0.00    -0.412 OA
ATOM     45  C   UNL     1      -1.234  -2.033   0.003  0.00  0.00    +0.098 A 
ENDROOT
BRANCH  13  14
ATOM     14  C   UNL     1      -8.665  -4.585   0.068  0.00  0.00    -0.049 A 
ATOM     15  C   UNL     1      -9.096  -5.208   1.239  0.00  0.00    +0.147 A 
ATOM     16  C   UNL     1     -10.321  -5.856   1.248  0.00  0.00    -0.136 A 
ATOM     17  C   UNL     1     -11.103  -5.855   0.072  0.00  0.00    -0.054 A 
ATOM     18  C   UNL     1     -12.401  -6.538   0.119  0.00  0.00    -0.074 A 
ATOM     19  C   UNL     1     -13.094  -6.710  -1.098  0.00  0.00    -0.117 A 
ATOM     20  C   UNL     1     -12.432  -6.208  -2.313  0.00  0.00    +0.540 A 
ATOM     21  O   UNL     1     -11.489  -5.242  -2.193  0.00  0.00    -0.257 OA
ATOM     22  O   UNL     1     -12.726  -6.652  -3.406  0.00  0.00    -0.408 OA
ATOM     23  C   UNL     1     -14.325  -7.350  -1.082  0.00  0.00    +0.137 A 
ATOM     24  C   UNL     1     -14.833  -7.820   0.122  0.00  0.00    +0.074 A 
ATOM     25  C   UNL     1     -14.135  -7.655   1.321  0.00  0.00    +0.070 A 
ATOM     26  O   UNL     1     -14.863  -8.215   2.330  0.00  0.00    -0.285 OA
ATOM     27  C   UNL     1     -16.198  -8.353   1.810  0.00  0.00    +0.455 C 
ATOM     28  O   UNL     1     -16.001  -8.478   0.390  0.00  0.00    -0.291 OA
ATOM     29  C   UNL     1     -12.907  -7.002   1.331  0.00  0.00    +0.153 A 
ATOM     30  O   UNL     1     -12.213  -6.778   2.476  0.00  0.00    -0.264 OA
ATOM     31  C   UNL     1     -10.682  -5.232  -1.102  0.00  0.00    +0.114 A 
ATOM     32  C   UNL     1     -10.874  -6.570   2.410  0.00  0.00    +0.538 A 
ATOM     33  O   UNL     1     -10.143  -6.967   3.297  0.00  0.00    -0.409 OA
ATOM     34  C   UNL     1      -9.447  -4.593  -1.096  0.00  0.00    +0.174 A 
BRANCH  34  35
ATOM     35  O   UNL     1      -8.996  -3.979  -2.220  0.00  0.00    -0.307 OA
ATOM     36  C   UNL     1      -8.223  -4.770  -3.125  0.00  0.00    +0.247 C 
ENDBRANCH  34  35
ENDBRANCH  13  14
BRANCH   3   2
ATOM      1  C   UNL     1      -0.017   1.425   0.010  0.00  0.00    +0.260 C 
ATOM      2  O   UNL     1       0.002  -0.004   0.002  0.00  0.00    -0.290 OA
ENDBRANCH   3   2
BRANCH  37  38
ATOM     38  O   UNL     1      -8.468  -1.805  -0.269  0.00  0.00    -0.307 OA
ATOM     39  C   UNL     1      -9.082  -1.309   0.922  0.00  0.00    +0.246 C 
ENDBRANCH  37  38
BRANCH  45  46
ATOM     46  O   UNL     1      -0.074  -2.739  -0.003  0.00  0.00    -0.307 OA
ATOM     47  C   UNL     1       0.483  -3.083   1.268  0.00  0.00    +0.242 C 
ENDBRANCH  45  46
TORSDOF 5
