REMARK  Name = ZINC95486347
REMARK  12 active torsions:
REMARK  status: ('A' for Active; 'I' for Inactive)
REMARK    1  A    between atoms: C1_1  and  C2_2
REMARK    2  A    between atoms: C2_2  and  C3_3
REMARK    3  A    between atoms: C3_3  and  C4_5
REMARK    4  A    between atoms: C3_3  and  C27_35
REMARK    5  A    between atoms: C4_5  and  C5_6
REMARK    6  A    between atoms: C5_6  and  C6_7
REMARK    7  A    between atoms: C6_7  and  C7_9
REMARK    8  A    between atoms: C6_7  and  C8_10
REMARK    9  A    between atoms: C12_16  and  C26_34
REMARK   10  A    between atoms: C20_26  and  C25_33
REMARK   11  A    between atoms: C23_29  and  O1_32
REMARK   12  A    between atoms: C27_35  and  C28_37
REMARK                            x       y       z     vdW  Elec       q    Type
REMARK                         _______ _______ _______ _____ _____    ______ ____
ROOT
ATOM     10  C   UNL     1      -3.276   3.318  -3.632  0.00  0.00    -0.005 C 
ATOM     11  C   UNL     1      -3.993   3.135  -4.993  0.00  0.00    +0.006 C 
ATOM     12  C   UNL     1      -5.412   3.745  -4.826  0.00  0.00    +0.010 C 
ATOM     13  C   UNL     1      -5.643   3.668  -3.313  0.00  0.00    -0.005 C 
ATOM     14  C   UNL     1      -6.683   4.622  -2.755  0.00  0.00    +0.008 C 
ATOM     15  C   UNL     1      -8.067   4.243  -3.294  0.00  0.00    +0.058 C 
ATOM     16  C   UNL     1      -9.111   5.075  -2.609  0.00  0.00    -0.061 C 
ATOM     17  C   UNL     1      -8.949   5.577  -1.420  0.00  0.00    -0.092 C 
ATOM     18  C   UNL     1      -7.675   5.425  -0.588  0.00  0.00    -0.009 C 
ATOM     19  C   UNL     1      -6.988   6.782  -0.428  0.00  0.00    +0.024 C 
ATOM     20  C   UNL     1      -8.059   4.934   0.811  0.00  0.00    +0.032 C 
ATOM     21  C   UNL     1      -9.070   5.902   1.429  0.00  0.00    +0.033 C 
ATOM     22  C   UNL     1     -10.349   5.917   0.591  0.00  0.00    +0.163 C 
ATOM     25  C   UNL     1     -10.081   6.398  -0.825  0.00  0.00    +0.026 C 
ATOM     26  C   UNL     1      -6.684   4.463  -1.223  0.00  0.00    -0.004 C 
ATOM     27  C   UNL     1      -5.301   4.671  -0.612  0.00  0.00    +0.011 C 
ATOM     28  C   UNL     1      -4.244   3.776  -1.278  0.00  0.00    +0.023 C 
ATOM     29  C   UNL     1      -4.255   4.099  -2.760  0.00  0.00    -0.055 C 
ATOM     30  C   UNL     1      -4.054   5.601  -2.971  0.00  0.00    +0.021 C 
ENDROOT
BRANCH  10   9
ATOM      9  C   UNL     1      -2.975   1.957  -3.003  0.00  0.00    -0.007 C 
ATOM     31  C   UNL     1      -4.250   1.110  -2.985  0.00  0.00    +0.016 C 
BRANCH   9   8
ATOM      8  C   UNL     1      -1.900   1.242  -3.824  0.00  0.00    +0.003 C 
BRANCH   8   7
ATOM      7  C   UNL     1      -1.490  -0.050  -3.114  0.00  0.00    +0.034 C 
BRANCH   7   3
ATOM      3  C   UNL     1      -0.494  -0.817  -3.985  0.00  0.00    -0.043 C 
BRANCH   3   4
ATOM      4  C   UNL     1       0.771  -0.011  -4.130  0.00  0.00    +0.359 C 
ATOM      5  C   UNL     1       1.605  -0.136  -5.379  0.00  0.00    +0.056 C 
ATOM      6  O   UNL     1       1.117   0.734  -3.245  0.00  0.00    -0.454 OA
ENDBRANCH   3   4
BRANCH   3   2
ATOM      1  C   UNL     1      -1.431  -3.027  -3.294  0.00  0.00    +0.022 C 
ATOM      2  C   UNL     1      -0.171  -2.160  -3.329  0.00  0.00    +0.022 C 
ENDBRANCH   3   2
ENDBRANCH   7   3
ENDBRANCH   8   7
ENDBRANCH   9   8
ENDBRANCH  10   9
BRANCH  22  23
ATOM     23  O   UNL     1     -10.863   4.588   0.483  0.00  0.00    -0.565 OA
ATOM     24  H   UNL     1     -11.676   4.522  -0.036  0.00  0.00    +0.374 HD
ENDBRANCH  22  23
TORSDOF 7
