REMARK  Name = ZINC95486264
REMARK  16 active torsions:
REMARK  status: ('A' for Active; 'I' for Inactive)
REMARK    1  A    between atoms: C1_1  and  O1_2
REMARK    2  A    between atoms: O1_2  and  C2_3
REMARK    3  A    between atoms: C5_6  and  C26_33
REMARK    4  A    between atoms: C7_8  and  O2_9
REMARK    5  A    between atoms: O2_9  and  C8_10
REMARK    6  A    between atoms: C11_13  and  C15_18
REMARK    7  A    between atoms: C13_15  and  O3_16
REMARK    8  A    between atoms: O3_16  and  C14_17
REMARK    9  A    between atoms: C21_26  and  O7_31
REMARK   10  A    between atoms: C23_28  and  O6_29
REMARK   11  A    between atoms: O6_29  and  C24_30
REMARK   12  A    between atoms: O7_31  and  C25_32
REMARK   13  A    between atoms: C32_41  and  O11_46
REMARK   14  A    between atoms: C34_43  and  O10_44
REMARK   15  A    between atoms: O10_44  and  C35_45
REMARK   16  A    between atoms: O11_46  and  C36_47
REMARK                            x       y       z     vdW  Elec       q    Type
REMARK                         _______ _______ _______ _____ _____    ______ ____
ROOT
ATOM     24  O   UNL     1       0.108  -2.750  -0.135  0.00  0.00    -0.230 OA
ENDROOT
BRANCH  24  23
ATOM      3  C   UNL     1       0.872  -0.627  -0.909  0.00  0.00    +0.139 A 
ATOM      4  C   UNL     1       1.519   0.137  -1.870  0.00  0.00    -0.029 A 
ATOM      5  C   UNL     1       2.029  -0.462  -3.002  0.00  0.00    +0.078 A 
ATOM      6  C   UNL     1       1.894  -1.841  -3.185  0.00  0.00    -0.073 A 
ATOM     22  C   UNL     1       1.241  -2.610  -2.217  0.00  0.00    +0.026 A 
ATOM     23  C   UNL     1       0.738  -2.004  -1.081  0.00  0.00    +0.095 A 
BRANCH   6   7
ATOM      7  C   UNL     1       2.437  -2.483  -4.396  0.00  0.00    +0.207 A 
ATOM      8  C   UNL     1       3.071  -1.709  -5.318  0.00  0.00    -0.144 A 
ATOM      9  C   UNL     1       3.599  -2.308  -6.487  0.00  0.00    +0.426 A 
ATOM     10  C   UNL     1       3.429  -3.763  -6.640  0.00  0.00    -0.293 A 
ATOM     11  C   UNL     1       2.757  -4.469  -5.627  0.00  0.00    +0.226 A 
ATOM     12  C   UNL     1       2.585  -5.839  -5.750  0.00  0.00    -0.065 A 
ATOM     13  C   UNL     1       3.074  -6.501  -6.866  0.00  0.00    +0.232 A 
ATOM     16  C   UNL     1       3.739  -5.805  -7.869  0.00  0.00    -0.186 A 
ATOM     17  C   UNL     1       3.920  -4.438  -7.763  0.00  0.00    +0.255 A 
ATOM     20  O   UNL     1       4.175  -1.644  -7.334  0.00  0.00    -0.457 OA
ATOM     21  O   UNL     1       2.292  -3.809  -4.544  0.00  0.00    -0.216 OA
BRANCH  13  14
ATOM     14  O   UNL     1       2.901  -7.843  -6.980  0.00  0.00    -0.302 OA
ATOM     15  C   UNL     1       3.427  -8.467  -8.153  0.00  0.00    +0.253 C 
ENDBRANCH  13  14
BRANCH  17  18
ATOM     18  O   UNL     1       4.568  -3.757  -8.742  0.00  0.00    -0.276 OA
ATOM     19  C   UNL     1       5.040  -4.515  -9.857  0.00  0.00    +0.247 C 
ENDBRANCH  17  18
ENDBRANCH   6   7
BRANCH   3   2
ATOM      1  C   UNL     1       0.543   1.382   0.318  0.00  0.00    +0.247 C 
ATOM      2  O   UNL     1       0.371  -0.033   0.205  0.00  0.00    -0.298 OA
ENDBRANCH   3   2
ENDBRANCH  24  23
BRANCH  24  25
ATOM     25  C   UNL     1       0.092  -4.099  -0.293  0.00  0.00    +0.068 A 
ATOM     26  C   UNL     1      -0.990  -4.710  -0.913  0.00  0.00    +0.070 A 
ATOM     27  C   UNL     1      -1.012  -6.079  -1.076  0.00  0.00    +0.043 A 
ATOM     28  C   UNL     1       0.057  -6.854  -0.617  0.00  0.00    -0.021 A 
ATOM     44  C   UNL     1       1.145  -6.239   0.007  0.00  0.00    -0.014 A 
ATOM     45  C   UNL     1       1.163  -4.866   0.162  0.00  0.00    +0.125 A 
BRANCH  28  29
ATOM     29  C   UNL     1       0.035  -8.319  -0.789  0.00  0.00    +0.194 A 
ATOM     30  C   UNL     1      -1.036  -8.889  -1.405  0.00  0.00    -0.125 A 
ATOM     31  C   UNL     1      -1.075 -10.293  -1.579  0.00  0.00    +0.425 A 
ATOM     32  C   UNL     1       0.070 -11.070  -1.075  0.00  0.00    -0.293 A 
ATOM     33  C   UNL     1       1.126 -10.382  -0.454  0.00  0.00    +0.226 A 
ATOM     34  C   UNL     1       2.213 -11.094   0.028  0.00  0.00    -0.064 A 
ATOM     35  C   UNL     1       2.252 -12.474  -0.103  0.00  0.00    +0.232 A 
ATOM     38  C   UNL     1       1.209 -13.157  -0.718  0.00  0.00    -0.186 A 
ATOM     39  C   UNL     1       0.116 -12.464  -1.205  0.00  0.00    +0.256 A 
ATOM     42  O   UNL     1      -2.020 -10.838  -2.127  0.00  0.00    -0.452 OA
ATOM     43  O   UNL     1       1.075  -9.038  -0.338  0.00  0.00    -0.216 OA
BRANCH  35  36
ATOM     36  O   UNL     1       3.321 -13.164   0.371  0.00  0.00    -0.302 OA
ATOM     37  C   UNL     1       3.302 -14.583   0.205  0.00  0.00    +0.254 C 
ENDBRANCH  35  36
BRANCH  39  40
ATOM     40  O   UNL     1      -0.904 -13.129  -1.804  0.00  0.00    -0.276 OA
ATOM     41  C   UNL     1      -0.785 -14.550  -1.899  0.00  0.00    +0.247 C 
ENDBRANCH  39  40
ENDBRANCH  28  29
BRANCH  45  46
ATOM     46  O   UNL     1       2.224  -4.263   0.764  0.00  0.00    -0.299 OA
ATOM     47  C   UNL     1       3.286  -5.110   1.206  0.00  0.00    +0.248 C 
ENDBRANCH  45  46
ENDBRANCH  24  25
TORSDOF 10
