REMARK  Name = ZINC95486331
REMARK  12 active torsions:
REMARK  status: ('A' for Active; 'I' for Inactive)
REMARK    1  A    between atoms: C1_1  and  C2_2
REMARK    2  A    between atoms: C2_2  and  O2_4
REMARK    3  A    between atoms: O2_4  and  C3_5
REMARK    4  A    between atoms: C5_7  and  O9_34
REMARK    5  A    between atoms: C6_8  and  C10_13
REMARK    6  A    between atoms: C8_10  and  O3_11
REMARK    7  A    between atoms: O3_11  and  C9_12
REMARK    8  A    between atoms: C16_20  and  O6_24
REMARK    9  A    between atoms: O6_24  and  C19_25
REMARK   10  A    between atoms: C19_25  and  C20_27
REMARK   11  A    between atoms: C23_30  and  C24_32
REMARK   12  A    between atoms: C23_30  and  C25_33
REMARK                            x       y       z     vdW  Elec       q    Type
REMARK                         _______ _______ _______ _____ _____    ______ ____
ROOT
ATOM     10  C   UNL     1      -0.453  -6.267   0.003  0.00  0.00    -0.235 A 
ATOM     11  C   UNL     1      -0.613  -6.989  -1.136  0.00  0.00    +0.344 A 
ATOM     12  O   UNL     1      -0.441  -8.312  -1.183  0.00  0.00    -0.207 OA
ATOM     13  C   UNL     1      -0.402  -9.063  -0.065  0.00  0.00    +0.192 A 
ATOM     14  C   UNL     1      -0.545 -10.444  -0.142  0.00  0.00    -0.004 A 
ATOM     15  C   UNL     1      -0.497 -11.212   1.004  0.00  0.00    +0.210 A 
ATOM     16  C   UNL     1      -0.303 -10.607   2.259  0.00  0.00    -0.159 A 
ATOM     17  C   UNL     1      -0.256 -11.470   3.458  0.00  0.00    +0.043 C 
ATOM     18  C   UNL     1      -0.066 -12.776   3.282  0.00  0.00    -0.031 C 
ATOM     19  C   UNL     1       0.107 -13.332   1.893  0.00  0.00    +0.144 C 
ATOM     20  C   UNL     1      -0.386 -14.780   1.864  0.00  0.00    +0.092 C 
ATOM     21  C   UNL     1       1.590 -13.297   1.518  0.00  0.00    +0.042 C 
ATOM     22  C   UNL     1      -0.159  -9.227   2.357  0.00  0.00    +0.221 A 
ATOM     27  O   UNL     1      -0.636 -12.562   0.948  0.00  0.00    -0.291 OA
ATOM     28  C   UNL     1      -0.216  -8.454   1.191  0.00  0.00    -0.254 A 
ATOM     29  C   UNL     1      -0.084  -6.987   1.237  0.00  0.00    +0.442 A 
ATOM     30  O   UNL     1       0.302  -6.402   2.235  0.00  0.00    -0.449 OA
ENDROOT
BRANCH  10   9
ATOM      4  C   UNL     1      -0.981  -2.040   0.008  0.00  0.00    +0.077 A 
ATOM      5  C   UNL     1       0.297  -2.576   0.058  0.00  0.00    +0.042 A 
ATOM      6  C   UNL     1       0.473  -3.949   0.057  0.00  0.00    +0.114 A 
ATOM      9  C   UNL     1      -0.638  -4.795   0.005  0.00  0.00    -0.007 A 
ATOM     31  C   UNL     1      -1.921  -4.253  -0.045  0.00  0.00    -0.023 A 
ATOM     32  C   UNL     1      -2.091  -2.880  -0.038  0.00  0.00    +0.125 A 
BRANCH   6   7
ATOM      7  O   UNL     1       1.726  -4.474   0.105  0.00  0.00    -0.486 OA
ATOM      8  H   UNL     1       2.053  -4.632   1.002  0.00  0.00    +0.395 HD
ENDBRANCH   6   7
BRANCH  32  33
ATOM     33  O   UNL     1      -3.343  -2.350  -0.080  0.00  0.00    -0.306 OA
ATOM     34  C   UNL     1      -4.436  -3.269  -0.126  0.00  0.00    +0.247 C 
ENDBRANCH  32  33
BRANCH   4   3
ATOM      3  O   UNL     1      -1.151  -0.691   0.009  0.00  0.00    -0.285 OA
BRANCH   3   2
ATOM      1  C   UNL     1      -1.446   1.419   1.257  0.00  0.00    +0.171 C 
ATOM      2  C   UNL     1      -1.366  -0.084   1.187  0.00  0.00    +0.456 C 
ATOM     35  O   UNL     1      -1.495  -0.745   2.195  0.00  0.00    -0.495 OA
ENDBRANCH   3   2
ENDBRANCH   4   3
ENDBRANCH  10   9
BRANCH  22  23
ATOM     23  O   UNL     1       0.032  -8.638   3.564  0.00  0.00    -0.286 OA
BRANCH  23  24
ATOM     24  C   UNL     1       1.294  -8.477   3.994  0.00  0.00    +0.476 C 
ATOM     25  C   UNL     1       1.558  -7.828   5.329  0.00  0.00    +0.177 C 
ATOM     26  O   UNL     1       2.217  -8.852   3.312  0.00  0.00    -0.493 OA
ENDBRANCH  23  24
ENDBRANCH  22  23
TORSDOF 7
