REMARK  Name = ZINC01721693
REMARK  5 active torsions:
REMARK  status: ('A' for Active; 'I' for Inactive)
REMARK    1  A    between atoms: C3_3  and  O5_22
REMARK    2  A    between atoms: C6_6  and  C7_7
REMARK    3  A    between atoms: C8_9  and  O4_21
REMARK    4  A    between atoms: C11_13  and  O3_20
REMARK    5  A    between atoms: C13_15  and  O2_19
REMARK                            x       y       z     vdW  Elec       q    Type
REMARK                         _______ _______ _______ _____ _____    ______ ____
ROOT
ATOM      9  C   UNL     1      -1.293  -0.774   0.011  0.00  0.00    +0.236 C 
ATOM     10  C   UNL     1      -1.652  -1.165   1.450  0.00  0.00    +0.155 C 
ATOM     13  C   UNL     1      -3.023  -1.846   1.435  0.00  0.00    +0.076 C 
ATOM     14  C   UNL     1      -3.056  -2.897   0.354  0.00  0.00    -0.195 A 
ATOM     15  C   UNL     1      -4.041  -3.877   0.406  0.00  0.00    +0.160 A 
ATOM     18  C   UNL     1      -4.104  -4.856  -0.573  0.00  0.00    -0.060 A 
ATOM     19  C   UNL     1      -3.181  -4.858  -1.608  0.00  0.00    +0.159 A 
ATOM     22  C   UNL     1      -2.199  -3.883  -1.659  0.00  0.00    -0.038 A 
ATOM     23  C   UNL     1      -2.133  -2.901  -0.676  0.00  0.00    +0.162 A 
ATOM     24  O   UNL     1      -1.148  -1.968  -0.758  0.00  0.00    -0.295 OA
ENDROOT
BRANCH   9   8
ATOM      1  C   UNL     1      -0.017   1.378   0.010  0.00  0.00    +0.059 A 
ATOM      2  C   UNL     1       1.170   2.087   0.002  0.00  0.00    -0.014 A 
ATOM      3  C   UNL     1       2.380   1.409  -0.013  0.00  0.00    +0.112 A 
ATOM      6  C   UNL     1       2.396   0.022  -0.021  0.00  0.00    -0.017 A 
ATOM      7  C   UNL     1       1.207  -0.681  -0.013  0.00  0.00    +0.051 A 
ATOM      8  C   UNL     1       0.002  -0.004   0.002  0.00  0.00    -0.090 A 
BRANCH   3   4
ATOM      4  O   UNL     1       3.548   2.104  -0.021  0.00  0.00    -0.500 OA
ATOM      5  H   UNL     1       3.895   2.300   0.860  0.00  0.00    +0.393 HD
ENDBRANCH   3   4
ENDBRANCH   9   8
BRANCH  10  11
ATOM     11  O   UNL     1      -1.704   0.005   2.269  0.00  0.00    -0.549 OA
ATOM     12  H   UNL     1      -1.926  -0.171   3.193  0.00  0.00    +0.386 HD
ENDBRANCH  10  11
BRANCH  15  16
ATOM     16  O   UNL     1      -4.946  -3.875   1.420  0.00  0.00    -0.491 OA
ATOM     17  H   UNL     1      -5.743  -3.361   1.234  0.00  0.00    +0.395 HD
ENDBRANCH  15  16
BRANCH  19  20
ATOM     20  O   UNL     1      -3.240  -5.815  -2.570  0.00  0.00    -0.492 OA
ATOM     21  H   UNL     1      -3.793  -5.579  -3.328  0.00  0.00    +0.397 HD
ENDBRANCH  19  20
TORSDOF 5
