REMARK  Name = ZINC95486268
REMARK  8 active torsions:
REMARK  status: ('A' for Active; 'I' for Inactive)
REMARK    1  A    between atoms: C1_1  and  C2_2
REMARK    2  A    between atoms: C2_2  and  C4_4
REMARK    3  A    between atoms: C7_8  and  C29_36
REMARK    4  A    between atoms: C13_17  and  C28_35
REMARK    5  A    between atoms: C16_20  and  O1_34
REMARK    6  A    between atoms: C17_22  and  C26_32
REMARK    7  A    between atoms: C17_22  and  C27_33
REMARK    8  A    between atoms: C21_26  and  C25_31
REMARK                            x       y       z     vdW  Elec       q    Type
REMARK                         _______ _______ _______ _____ _____    ______ ____
ROOT
ATOM      3  C   UNL     1      -0.647   3.810  -1.319  0.00  0.00    +0.022 C 
ATOM      4  C   UNL     1       0.194   5.024  -1.763  0.00  0.00    +0.008 C 
ATOM      5  C   UNL     1      -0.806   6.159  -2.076  0.00  0.00    +0.007 C 
ATOM      6  C   UNL     1      -2.062   5.793  -1.231  0.00  0.00    -0.052 C 
ATOM      7  C   UNL     1      -3.329   6.484  -1.738  0.00  0.00    +0.028 C 
ATOM      8  C   UNL     1      -1.740   6.168   0.218  0.00  0.00    +0.006 C 
ATOM      9  C   UNL     1      -2.705   5.496   1.191  0.00  0.00    +0.003 C 
ATOM     10  C   UNL     1      -2.593   3.974   1.057  0.00  0.00    +0.011 C 
ATOM     11  C   UNL     1      -3.578   3.325   2.063  0.00  0.00    -0.040 C 
ATOM     12  C   UNL     1      -5.022   3.773   1.830  0.00  0.00    +0.026 C 
ATOM     13  C   UNL     1      -3.120   3.709   3.476  0.00  0.00    +0.061 C 
ATOM     14  C   UNL     1      -3.970   2.973   4.470  0.00  0.00    -0.047 C 
ATOM     15  C   UNL     1      -4.542   1.835   4.207  0.00  0.00    -0.096 C 
ATOM     16  C   UNL     1      -5.369   1.175   5.299  0.00  0.00    -0.016 C 
ATOM     17  C   UNL     1      -6.847   1.189   4.905  0.00  0.00    +0.038 C 
ATOM     18  C   UNL     1      -5.179   1.931   6.616  0.00  0.00    +0.034 C 
ATOM     19  C   UNL     1      -4.891  -0.271   5.460  0.00  0.00    +0.170 C 
ATOM     22  C   UNL     1      -4.963  -0.985   4.110  0.00  0.00    -0.016 C 
ATOM     23  C   UNL     1      -4.000  -0.322   3.123  0.00  0.00    +0.024 C 
ATOM     24  C   UNL     1      -4.433   1.128   2.889  0.00  0.00    -0.009 C 
ATOM     25  C   UNL     1      -5.822   1.097   2.249  0.00  0.00    +0.019 C 
ATOM     26  C   UNL     1      -3.480   1.807   1.919  0.00  0.00    +0.006 C 
ATOM     27  C   UNL     1      -3.840   1.398   0.488  0.00  0.00    +0.013 C 
ATOM     28  C   UNL     1      -2.875   2.059  -0.497  0.00  0.00    -0.012 C 
ATOM     29  C   UNL     1      -2.984   3.580  -0.366  0.00  0.00    +0.001 C 
ATOM     30  C   UNL     1      -2.111   4.261  -1.393  0.00  0.00    +0.006 C 
ENDROOT
BRANCH   3   2
ATOM      1  C   UNL     1      -0.510   2.007   0.564  0.00  0.00    +0.084 C 
ATOM      2  C   UNL     1      -0.293   3.423   0.094  0.00  0.00    -0.094 C 
ATOM     31  C   UNL     1       0.203   4.316   0.914  0.00  0.00    -0.001 C 
ENDBRANCH   3   2
BRANCH  19  20
ATOM     20  O   UNL     1      -5.727  -0.947   6.402  0.00  0.00    -0.564 OA
ATOM     21  H   UNL     1      -5.481  -1.870   6.554  0.00  0.00    +0.376 HD
ENDBRANCH  19  20
TORSDOF 2
