REMARK  Name = ZINC24215411
REMARK  14 active torsions:
REMARK  status: ('A' for Active; 'I' for Inactive)
REMARK    1  A    between atoms: C1_1  and  O1_2
REMARK    2  A    between atoms: O1_2  and  C2_3
REMARK    3  A    between atoms: C4_5  and  C10_13
REMARK    4  A    between atoms: C6_7  and  O3_11
REMARK    5  A    between atoms: C7_8  and  O2_9
REMARK    6  A    between atoms: O2_9  and  C8_10
REMARK    7  A    between atoms: O3_11  and  C9_12
REMARK    8  A    between atoms: C10_13  and  O5_15
REMARK    9  A    between atoms: O5_15  and  C11_16
REMARK   10  A    between atoms: C14_20  and  O10_37
REMARK   11  A    between atoms: C16_22  and  O9_36
REMARK   12  A    between atoms: C19_26  and  C20_28
REMARK   13  A    between atoms: C23_31  and  O8_35
REMARK   14  A    between atoms: C24_32  and  O7_34
REMARK                            x       y       z     vdW  Elec       q    Type
REMARK                         _______ _______ _______ _____ _____    ______ ____
ROOT
ATOM      8  C   UNL     1      -1.194   7.715   0.054  0.00  0.00    +0.175 C 
ATOM      9  C   UNL     1      -1.160   8.223   1.497  0.00  0.00    +0.110 C 
ATOM     10  C   UNL     1      -2.509   8.019   2.140  0.00  0.00    -0.241 A 
ATOM     11  C   UNL     1      -2.600   8.057   3.527  0.00  0.00    +0.234 A 
ATOM     14  C   UNL     1      -3.824   7.876   4.151  0.00  0.00    -0.156 A 
ATOM     15  C   UNL     1      -4.962   7.658   3.389  0.00  0.00    +0.230 A 
ATOM     18  C   UNL     1      -4.871   7.620   2.007  0.00  0.00    -0.150 A 
ATOM     19  C   UNL     1      -3.643   7.799   1.379  0.00  0.00    +0.217 A 
ATOM     20  O   UNL     1      -3.596   7.745   0.023  0.00  0.00    -0.295 OA
ATOM     21  C   UNL     1      -2.445   8.284  -0.628  0.00  0.00    +0.256 C 
ENDROOT
BRANCH  21  22
ATOM     22  C   UNL     1      -2.453   7.891  -2.083  0.00  0.00    -0.103 A 
ATOM     23  C   UNL     1      -2.962   6.664  -2.463  0.00  0.00    +0.060 A 
ATOM     24  C   UNL     1      -2.977   6.301  -3.797  0.00  0.00    +0.004 A 
ATOM     25  C   UNL     1      -2.470   7.164  -4.755  0.00  0.00    +0.138 A 
ATOM     28  C   UNL     1      -1.953   8.398  -4.372  0.00  0.00    +0.063 A 
ATOM     31  C   UNL     1      -1.946   8.758  -3.034  0.00  0.00    -0.028 A 
BRANCH  25  26
ATOM     26  O   UNL     1      -2.479   6.807  -6.067  0.00  0.00    -0.506 OA
ATOM     27  H   UNL     1      -2.077   7.493  -6.827  0.00  0.00    +0.440 HD
ENDBRANCH  25  26
BRANCH  28  29
ATOM     29  O   UNL     1      -1.454   9.248  -5.308  0.00  0.00    -0.518 OA
ATOM     30  H   UNL     1      -1.046  10.223  -5.004  0.00  0.00    +0.441 HD
ENDBRANCH  28  29
ENDBRANCH  21  22
BRANCH  11  12
ATOM     12  O   UNL     1      -1.485   8.271   4.273  0.00  0.00    -0.501 OA
ATOM     13  H   UNL     1      -1.555   8.301   5.370  0.00  0.00    +0.439 HD
ENDBRANCH  11  12
BRANCH  15  16
ATOM     16  O   UNL     1      -6.165   7.483   3.997  0.00  0.00    -0.504 OA
ATOM     17  H   UNL     1      -7.067   7.310   3.392  0.00  0.00    +0.439 HD
ENDBRANCH  15  16
BRANCH   8   7
ATOM      7  O   UNL     1      -1.250   6.264   0.047  0.00  0.00    -0.331 OA
BRANCH   7   6
ATOM      6  C   UNL     1      -0.074   5.606   0.032  0.00  0.00    +0.514 C 
ATOM     32  O   UNL     1       0.970   6.228   0.025  0.00  0.00    -0.498 OA
BRANCH   6   5
ATOM      3  C   UNL     1      -1.232   2.033   0.019  0.00  0.00    +0.138 A 
ATOM      4  C   UNL     1      -1.254   3.415   0.032  0.00  0.00    -0.022 A 
ATOM      5  C   UNL     1      -0.054   4.131   0.025  0.00  0.00    -0.052 A 
ATOM     33  C   UNL     1       1.165   3.448   0.009  0.00  0.00    -0.018 A 
ATOM     34  C   UNL     1       1.181   2.066   0.002  0.00  0.00    +0.139 A 
ATOM     37  C   UNL     1      -0.016   1.355   0.009  0.00  0.00    +0.066 A 
BRANCH   3   2
ATOM      1  C   UNL     1      -3.610   2.095   0.030  0.00  0.00    +0.248 C 
ATOM      2  O   UNL     1      -2.400   1.335   0.020  0.00  0.00    -0.298 OA
ENDBRANCH   3   2
BRANCH  34  35
ATOM     35  O   UNL     1       2.366   1.400  -0.013  0.00  0.00    -0.297 OA
ATOM     36  C   UNL     1       3.556   2.193  -0.020  0.00  0.00    +0.249 C 
ENDBRANCH  34  35
BRANCH  37  38
ATOM     38  O   UNL     1       0.002  -0.004   0.002  0.00  0.00    -0.311 OA
ATOM     39  C   UNL     1       0.023  -0.660   1.272  0.00  0.00    +0.226 C 
ENDBRANCH  37  38
ENDBRANCH   6   5
ENDBRANCH   7   6
ENDBRANCH   8   7
TORSDOF 11
