REMARK  Name = ZINC95486070
REMARK  0 active torsions:
REMARK  status: ('A' for Active; 'I' for Inactive)
REMARK                            x       y       z     vdW  Elec       q    Type
REMARK                         _______ _______ _______ _____ _____    ______ ____
ROOT
ATOM      1  C   UNL     1      -0.017   1.378   0.010  0.00  0.00    -0.017 A 
ATOM      2  C   UNL     1       1.167   2.094   0.002  0.00  0.00    +0.037 A 
ATOM      3  C   UNL     1       2.376   1.424  -0.025  0.00  0.00    -0.003 A 
ATOM      4  C   UNL     1       2.395   0.040  -0.030  0.00  0.00    +0.177 A 
ATOM      5  C   UNL     1       1.207  -0.682  -0.006  0.00  0.00    -0.113 A 
ATOM      6  C   UNL     1       1.219  -2.187   0.049  0.00  0.00    +0.056 C 
ATOM      7  C   UNL     1       1.253  -2.600   1.539  0.00  0.00    +0.003 C 
ATOM      8  C   UNL     1       2.524  -2.072   2.201  0.00  0.00    +0.213 C 
ATOM      9  N   UNL     1       3.739  -2.513   1.495  0.00  0.00    -0.522 NA
ATOM     10  C   UNL     1       3.932  -3.965   1.626  0.00  0.00    +0.237 C 
ATOM     11  C   UNL     1       5.133  -4.397   0.832  0.00  0.00    -0.018 C 
ATOM     12  C   UNL     1       5.535  -3.770  -0.237  0.00  0.00    -0.011 C 
ATOM     13  C   UNL     1       4.863  -2.560  -0.775  0.00  0.00    -0.024 C 
ATOM     14  C   UNL     1       5.764  -1.314  -0.736  0.00  0.00    +0.092 C 
ATOM     15  C   UNL     1       4.807  -0.175  -0.437  0.00  0.00    +0.530 C 
ATOM     16  O   UNL     1       5.088   1.004  -0.491  0.00  0.00    -0.505 OA
ATOM     17  C   UNL     1       4.267  -2.768  -2.176  0.00  0.00    +0.048 C 
ATOM     18  C   UNL     1       2.710  -2.508  -2.069  0.00  0.00    +0.042 C 
ATOM     19  C   UNL     1       3.684  -2.120   0.105  0.00  0.00    +0.321 C 
ATOM     20  C   UNL     1       2.454  -2.785  -0.588  0.00  0.00    -0.035 C 
ATOM     21  N   UNL     1       3.601  -0.669  -0.101  0.00  0.00    -0.542 N 
ATOM     22  C   UNL     1       0.002  -0.004   0.002  0.00  0.00    +0.035 A 
ENDROOT
TORSDOF 0
