REMARK  Name = ZINC95485949
REMARK  6 active torsions:
REMARK  status: ('A' for Active; 'I' for Inactive)
REMARK    1  A    between atoms: C1_1  and  C2_2
REMARK    2  A    between atoms: C7_7  and  O1_8
REMARK    3  A    between atoms: C10_12  and  C14_18
REMARK    4  A    between atoms: C10_12  and  O4_19
REMARK    5  A    between atoms: C11_13  and  C12_15
REMARK    6  A    between atoms: C12_15  and  C13_17
REMARK                            x       y       z     vdW  Elec       q    Type
REMARK                         _______ _______ _______ _____ _____    ______ ____
ROOT
ATOM      1  C   UNL     1       0.243   1.398   0.218  0.00  0.00    +0.108 C 
ATOM      2  C   UNL     1       0.227  -0.107   0.138  0.00  0.00    -0.071 A 
ATOM      3  C   UNL     1       0.122  -0.728  -1.093  0.00  0.00    +0.031 A 
ATOM      4  C   UNL     1       0.107  -2.108  -1.182  0.00  0.00    -0.026 A 
ATOM      5  C   UNL     1       0.202  -2.871  -0.016  0.00  0.00    -0.156 A 
ATOM      6  C   UNL     1       0.200  -4.345  -0.094  0.00  0.00    +0.405 C 
ATOM      7  C   UNL     1      -0.174  -4.978  -1.418  0.00  0.00    +0.034 C 
ATOM      8  C   UNL     1       0.528  -4.177  -2.523  0.00  0.00    +0.157 C 
ATOM     11  C   UNL     1       2.034  -4.148  -2.255  0.00  0.00    +0.024 C 
ATOM     12  O   UNL     1       0.486  -5.024   0.869  0.00  0.00    -0.441 OA
ATOM     13  C   UNL     1       0.305  -2.243   1.228  0.00  0.00    +0.061 A 
ATOM     14  C   UNL     1      -0.015  -2.751  -2.537  0.00  0.00    +0.033 C 
ATOM     18  C   UNL     1       0.323  -0.861   1.300  0.00  0.00    +0.096 A 
ENDROOT
BRANCH  14  15
ATOM     15  C   UNL     1       0.760  -1.938  -3.541  0.00  0.00    +0.369 C 
ATOM     16  C   UNL     1       0.305  -1.879  -4.976  0.00  0.00    +0.078 C 
ATOM     17  O   UNL     1       1.747  -1.333  -3.196  0.00  0.00    -0.442 OA
ENDBRANCH  14  15
BRANCH   8   9
ATOM      9  O   UNL     1       0.280  -4.794  -3.789  0.00  0.00    -0.550 OA
ATOM     10  H   UNL     1       0.598  -5.705  -3.851  0.00  0.00    +0.389 HD
ENDBRANCH   8   9
BRANCH  18  19
ATOM     19  O   UNL     1       0.429  -0.243   2.506  0.00  0.00    -0.489 OA
ATOM     20  H   UNL     1      -0.421  -0.060   2.930  0.00  0.00    +0.392 HD
ENDBRANCH  18  19
TORSDOF 3
