REMARK  Name = ZINC02040970
REMARK  12 active torsions:
REMARK  status: ('A' for Active; 'I' for Inactive)
REMARK    1  A    between atoms: C1_1  and  C2_2
REMARK    2  A    between atoms: C2_2  and  C15_16
REMARK    3  A    between atoms: C3_3  and  C4_4
REMARK    4  A    between atoms: C4_4  and  C5_5
REMARK    5  A    between atoms: C5_5  and  C6_6
REMARK    6  A    between atoms: C6_6  and  C14_15
REMARK    7  A    between atoms: C7_7  and  C8_8
REMARK    8  A    between atoms: C8_8  and  C9_9
REMARK    9  A    between atoms: C9_9  and  C10_10
REMARK   10  A    between atoms: C10_10  and  C11_11
REMARK   11  A    between atoms: C10_10  and  C12_12
REMARK   12  A    between atoms: C10_10  and  O1_14
REMARK                            x       y       z     vdW  Elec       q    Type
REMARK                         _______ _______ _______ _____ _____    ______ ____
ROOT
ATOM      7  C   UNL     1      -0.835   0.247   4.693  0.00  0.00    -0.127 C 
ATOM      8  C   UNL     1       0.163   0.062   5.807  0.00  0.00    +0.072 C 
ATOM      9  C   UNL     1      -1.811   1.110   4.824  0.00  0.00    -0.058 C 
ENDROOT
BRANCH   7   6
ATOM      6  C   UNL     1      -0.709  -0.562   3.427  0.00  0.00    +0.058 C 
BRANCH   6   5
ATOM      5  C   UNL     1       0.265   0.132   2.473  0.00  0.00    +0.053 C 
BRANCH   5   4
ATOM      1  C   UNL     1      -0.093   1.368  -0.035  0.00  0.00    +0.072 C 
ATOM      2  C   UNL     1       0.171  -0.113   0.046  0.00  0.00    -0.133 C 
ATOM      3  C   UNL     1       0.182  -0.947  -1.210  0.00  0.00    +0.072 C 
ATOM      4  C   UNL     1       0.391  -0.677   1.208  0.00  0.00    -0.062 C 
ENDBRANCH   5   4
ENDBRANCH   6   5
ENDBRANCH   7   6
BRANCH   9  10
ATOM     10  C   UNL     1      -1.993   1.850   6.124  0.00  0.00    +0.058 C 
BRANCH  10  11
ATOM     11  C   UNL     1      -2.025   3.356   5.853  0.00  0.00    +0.005 C 
BRANCH  11  12
ATOM     12  C   UNL     1      -2.210   4.107   7.173  0.00  0.00    +0.157 C 
ATOM     17  C   UNL     1      -3.461   3.589   7.884  0.00  0.00    +0.064 C 
BRANCH  12  13
ATOM     13  O   UNL     1      -1.067   3.897   8.005  0.00  0.00    -0.555 OA
ATOM     14  H   UNL     1      -0.236   4.202   7.616  0.00  0.00    +0.375 HD
ENDBRANCH  12  13
BRANCH  12  15
ATOM     15  C   UNL     1      -2.364   5.580   6.895  0.00  0.00    -0.073 C 
ATOM     16  C   UNL     1      -1.510   6.435   7.400  0.00  0.00    +0.022 C 
ENDBRANCH  12  15
ENDBRANCH  11  12
ENDBRANCH  10  11
ENDBRANCH   9  10
TORSDOF 8
