REMARK  Name = ZINC95486234
REMARK  12 active torsions:
REMARK  status: ('A' for Active; 'I' for Inactive)
REMARK    1  A    between atoms: C3_3  and  O12_38
REMARK    2  A    between atoms: C6_6  and  C7_7
REMARK    3  A    between atoms: C8_8  and  O11_37
REMARK    4  A    between atoms: C13_15  and  O10_36
REMARK    5  A    between atoms: C14_16  and  O9_35
REMARK    6  A    between atoms: C15_17  and  O3_18
REMARK    7  A    between atoms: O3_18  and  C16_19
REMARK    8  A    between atoms: C17_21  and  O8_34
REMARK    9  A    between atoms: C18_23  and  O7_33
REMARK   10  A    between atoms: C19_25  and  O6_32
REMARK   11  A    between atoms: C20_27  and  C21_30
REMARK   12  A    between atoms: C21_30  and  O5_31
REMARK                            x       y       z     vdW  Elec       q    Type
REMARK                         _______ _______ _______ _____ _____    ______ ____
ROOT
ATOM      9  C   UNL     1      -1.263  -0.761   0.011  0.00  0.00    +0.139 A 
ATOM     10  C   UNL     1      -1.217  -2.119  -0.096  0.00  0.00    -0.046 A 
ATOM     13  C   UNL     1      -2.425  -2.861  -0.089  0.00  0.00    +0.401 A 
ATOM     14  C   UNL     1      -3.683  -2.107   0.035  0.00  0.00    -0.242 A 
ATOM     15  C   UNL     1      -3.619  -0.706   0.138  0.00  0.00    +0.171 A 
ATOM     16  C   UNL     1      -4.792   0.023   0.256  0.00  0.00    +0.002 A 
ATOM     17  C   UNL     1      -6.016  -0.626   0.270  0.00  0.00    +0.165 A 
ATOM     20  C   UNL     1      -6.084  -2.015   0.168  0.00  0.00    +0.059 A 
ATOM     23  C   UNL     1      -4.922  -2.760   0.050  0.00  0.00    +0.171 A 
ATOM     40  O   UNL     1      -2.422  -4.079  -0.182  0.00  0.00    -0.446 OA
ATOM     41  O   UNL     1      -2.420  -0.086   0.128  0.00  0.00    -0.196 OA
ENDROOT
BRANCH   9   8
ATOM      1  C   UNL     1       0.975  -0.275  -0.965  0.00  0.00    +0.090 A 
ATOM      2  C   UNL     1       2.155   0.435  -0.969  0.00  0.00    -0.012 A 
ATOM      3  C   UNL     1       2.380   1.418  -0.014  0.00  0.00    +0.129 A 
ATOM      6  C   UNL     1       1.416   1.691   0.949  0.00  0.00    -0.013 A 
ATOM      7  C   UNL     1       0.233   0.987   0.961  0.00  0.00    +0.069 A 
ATOM      8  C   UNL     1       0.002  -0.004   0.002  0.00  0.00    -0.064 A 
BRANCH   3   4
ATOM      4  O   UNL     1       3.546   2.115  -0.022  0.00  0.00    -0.498 OA
ATOM      5  H   UNL     1       3.520   2.919  -0.559  0.00  0.00    +0.396 HD
ENDBRANCH   3   4
ENDBRANCH   9   8
BRANCH  10  11
ATOM     11  O   UNL     1      -0.020  -2.757  -0.208  0.00  0.00    -0.448 OA
ATOM     12  H   UNL     1      -0.092  -3.719  -0.278  0.00  0.00    +0.407 HD
ENDBRANCH  10  11
BRANCH  17  18
ATOM     18  O   UNL     1      -7.160   0.097   0.386  0.00  0.00    -0.473 OA
ATOM     19  H   UNL     1      -7.538   0.374  -0.460  0.00  0.00    +0.401 HD
ENDBRANCH  17  18
BRANCH  20  21
ATOM     21  O   UNL     1      -7.294  -2.639   0.184  0.00  0.00    -0.455 OA
ATOM     22  H   UNL     1      -7.690  -2.752  -0.691  0.00  0.00    +0.387 HD
ENDBRANCH  20  21
BRANCH  23  24
ATOM     24  O   UNL     1      -4.984  -4.113  -0.050  0.00  0.00    -0.290 OA
BRANCH  24  25
ATOM     25  C   UNL     1      -4.947  -4.857   1.170  0.00  0.00    +0.308 C 
ATOM     26  C   UNL     1      -4.776  -6.345   0.855  0.00  0.00    +0.148 C 
ATOM     29  C   UNL     1      -4.797  -7.141   2.164  0.00  0.00    +0.163 C 
ATOM     32  C   UNL     1      -6.106  -6.850   2.905  0.00  0.00    +0.171 C 
ATOM     35  C   UNL     1      -6.226  -5.342   3.140  0.00  0.00    +0.187 C 
ATOM     39  O   UNL     1      -6.168  -4.659   1.886  0.00  0.00    -0.363 OA
BRANCH  26  27
ATOM     27  O   UNL     1      -3.529  -6.552   0.189  0.00  0.00    -0.546 OA
ATOM     28  H   UNL     1      -3.445  -6.073  -0.647  0.00  0.00    +0.397 HD
ENDBRANCH  26  27
BRANCH  29  30
ATOM     30  O   UNL     1      -4.710  -8.538   1.875  0.00  0.00    -0.555 OA
ATOM     31  H   UNL     1      -3.907  -8.792   1.401  0.00  0.00    +0.396 HD
ENDBRANCH  29  30
BRANCH  32  33
ATOM     33  O   UNL     1      -6.106  -7.532   4.160  0.00  0.00    -0.550 OA
ATOM     34  H   UNL     1      -6.028  -8.493   4.086  0.00  0.00    +0.394 HD
ENDBRANCH  32  33
BRANCH  35  36
ATOM     36  C   UNL     1      -7.558  -5.036   3.826  0.00  0.00    +0.226 C 
BRANCH  36  37
ATOM     37  O   UNL     1      -7.620  -3.646   4.151  0.00  0.00    -0.563 OA
ATOM     38  H   UNL     1      -8.439  -3.380   4.589  0.00  0.00    +0.383 HD
ENDBRANCH  36  37
ENDBRANCH  35  36
ENDBRANCH  24  25
ENDBRANCH  23  24
TORSDOF 12
