REMARK  Name = ZINC14768737
REMARK  10 active torsions:
REMARK  status: ('A' for Active; 'I' for Inactive)
REMARK    1  A    between atoms: C1_1  and  C2_2
REMARK    2  A    between atoms: C2_2  and  C28_34
REMARK    3  A    between atoms: C3_3  and  C4_4
REMARK    4  A    between atoms: C4_4  and  C5_5
REMARK    5  A    between atoms: C6_6  and  O6_33
REMARK    6  A    between atoms: C15_16  and  O3_20
REMARK    7  A    between atoms: C20_23  and  C21_25
REMARK    8  A    between atoms: C20_23  and  C22_26
REMARK    9  A    between atoms: C25_29  and  C26_31
REMARK   10  A    between atoms: C25_29  and  C27_32
REMARK                            x       y       z     vdW  Elec       q    Type
REMARK                         _______ _______ _______ _____ _____    ______ ____
ROOT
ATOM      6  C   UNL     1      -1.295   5.609   3.811  0.00  0.00    -0.097 A 
ATOM      7  C   UNL     1      -0.298   5.240   2.921  0.00  0.00    +0.156 A 
ATOM     10  C   UNL     1      -0.344   4.003   2.286  0.00  0.00    +0.077 A 
ATOM     11  C   UNL     1      -1.404   3.130   2.542  0.00  0.00    -0.028 A 
ATOM     12  C   UNL     1      -1.436   1.836   1.831  0.00  0.00    +0.055 C 
ATOM     13  C   UNL     1      -0.303   1.400   1.280  0.00  0.00    -0.031 C 
ATOM     14  C   UNL     1       0.954   2.224   1.399  0.00  0.00    +0.141 C 
ATOM     15  C   UNL     1       1.678   1.858   2.696  0.00  0.00    +0.036 C 
ATOM     16  C   UNL     1       1.867   1.931   0.208  0.00  0.00    +0.088 C 
ATOM     17  C   UNL     1      -2.409   3.501   3.450  0.00  0.00    -0.194 A 
ATOM     18  C   UNL     1      -3.532   2.598   3.752  0.00  0.00    +0.446 A 
ATOM     19  O   UNL     1      -3.628   1.502   3.228  0.00  0.00    -0.434 OA
ATOM     20  C   UNL     1      -4.535   3.082   4.717  0.00  0.00    -0.289 A 
ATOM     21  C   UNL     1      -5.634   2.286   5.064  0.00  0.00    +0.252 A 
ATOM     24  C   UNL     1      -6.563   2.774   5.978  0.00  0.00    -0.197 A 
ATOM     25  C   UNL     1      -7.740   1.976   6.380  0.00  0.00    +0.058 C 
ATOM     26  C   UNL     1      -8.749   2.606   6.979  0.00  0.00    -0.050 C 
ATOM     27  C   UNL     1      -8.674   4.091   7.216  0.00  0.00    +0.147 C 
ATOM     28  C   UNL     1      -9.237   4.825   5.997  0.00  0.00    +0.039 C 
ATOM     29  C   UNL     1      -9.507   4.448   8.449  0.00  0.00    +0.089 C 
ATOM     30  O   UNL     1      -7.322   4.498   7.428  0.00  0.00    -0.294 OA
ATOM     31  C   UNL     1      -6.395   4.052   6.542  0.00  0.00    +0.221 A 
ATOM     32  C   UNL     1      -5.309   4.830   6.195  0.00  0.00    -0.033 A 
ATOM     33  C   UNL     1      -4.369   4.358   5.285  0.00  0.00    +0.223 A 
ATOM     34  O   UNL     1      -3.311   5.128   4.959  0.00  0.00    -0.216 OA
ATOM     35  O   UNL     1       0.626   3.616   1.415  0.00  0.00    -0.289 OA
ATOM     36  C   UNL     1      -2.353   4.751   4.087  0.00  0.00    +0.157 A 
ENDROOT
BRANCH   7   8
ATOM      8  O   UNL     1       0.729   6.091   2.666  0.00  0.00    -0.472 OA
ATOM      9  H   UNL     1       0.565   6.695   1.929  0.00  0.00    +0.397 HD
ENDBRANCH   7   8
BRANCH  21  22
ATOM     22  O   UNL     1      -5.791   1.055   4.518  0.00  0.00    -0.469 OA
ATOM     23  H   UNL     1      -5.371   0.344   5.022  0.00  0.00    +0.403 HD
ENDBRANCH  21  22
BRANCH   6   5
ATOM      5  C   UNL     1      -1.230   6.955   4.486  0.00  0.00    +0.139 C 
BRANCH   5   4
ATOM      1  C   UNL     1      -3.200   8.608   5.643  0.00  0.00    +0.076 C 
ATOM      2  C   UNL     1      -2.906   8.701   4.168  0.00  0.00    -0.117 C 
ATOM      3  C   UNL     1      -3.713   9.629   3.296  0.00  0.00    +0.074 C 
ATOM      4  C   UNL     1      -1.950   7.975   3.643  0.00  0.00    -0.061 C 
ENDBRANCH   5   4
ENDBRANCH   6   5
TORSDOF 4
