REMARK  Name = ZINC04098748
REMARK  7 active torsions:
REMARK  status: ('A' for Active; 'I' for Inactive)
REMARK    1  A    between atoms: C1_1  and  C2_2
REMARK    2  A    between atoms: C2_2  and  C23_31
REMARK    3  A    between atoms: C15_18  and  O6_28
REMARK    4  A    between atoms: C16_19  and  O5_26
REMARK    5  A    between atoms: C19_22  and  O4_25
REMARK    6  A    between atoms: O5_26  and  C21_27
REMARK    7  A    between atoms: O6_28  and  C22_29
REMARK                            x       y       z     vdW  Elec       q    Type
REMARK                         _______ _______ _______ _____ _____    ______ ____
ROOT
ATOM      1  C   UNL     1       2.915   6.098   4.744  0.00  0.00    +0.038 C 
ATOM      2  C   UNL     1       2.280   6.968   3.658  0.00  0.00    +0.146 C 
ATOM      3  C   UNL     1       2.502   8.443   4.000  0.00  0.00    +0.086 C 
ATOM      4  C   UNL     1       2.930   6.663   2.335  0.00  0.00    -0.055 C 
ATOM      5  C   UNL     1       2.439   5.705   1.554  0.00  0.00    +0.061 C 
ATOM      6  C   UNL     1       1.231   4.984   2.004  0.00  0.00    -0.178 A 
ATOM      7  C   UNL     1       0.484   5.526   3.060  0.00  0.00    +0.211 A 
ATOM      8  C   UNL     1      -0.651   4.872   3.520  0.00  0.00    -0.041 A 
ATOM      9  C   UNL     1      -1.054   3.692   2.937  0.00  0.00    +0.167 A 
ATOM     10  C   UNL     1      -0.323   3.146   1.876  0.00  0.00    -0.285 A 
ATOM     11  C   UNL     1      -0.731   1.882   1.254  0.00  0.00    +0.397 C 
ATOM     12  O   UNL     1      -1.633   1.222   1.728  0.00  0.00    -0.437 OA
ATOM     13  C   UNL     1      -0.017   1.425   0.010  0.00  0.00    +0.125 C 
ATOM     16  C   UNL     1      -0.761   1.894  -1.208  0.00  0.00    -0.205 A 
ATOM     17  C   UNL     1      -2.146   1.918  -1.185  0.00  0.00    +0.018 A 
ATOM     18  C   UNL     1      -2.858   2.338  -2.294  0.00  0.00    +0.072 A 
ATOM     21  C   UNL     1      -2.179   2.738  -3.441  0.00  0.00    +0.156 A 
ATOM     24  C   UNL     1      -0.784   2.694  -3.475  0.00  0.00    -0.057 A 
ATOM     25  C   UNL     1      -0.073   2.286  -2.350  0.00  0.00    +0.178 A 
ATOM     26  O   UNL     1       1.280   2.296  -2.398  0.00  0.00    -0.302 OA
ATOM     27  C   UNL     1       2.047   1.698  -1.371  0.00  0.00    +0.315 C 
ATOM     28  C   UNL     1       1.416   1.921  -0.001  0.00  0.00    +0.187 C 
ATOM     29  O   UNL     1       1.522   3.289   0.360  0.00  0.00    -0.287 OA
ATOM     30  C   UNL     1       0.824   3.799   1.392  0.00  0.00    +0.235 A 
ATOM     31  O   UNL     1       0.878   6.705   3.604  0.00  0.00    -0.296 OA
ENDROOT
BRANCH  13  14
ATOM     14  O   UNL     1       0.002  -0.004   0.002  0.00  0.00    -0.531 OA
ATOM     15  H   UNL     1      -0.876  -0.409   0.008  0.00  0.00    +0.396 HD
ENDBRANCH  13  14
BRANCH  18  19
ATOM     19  O   UNL     1      -4.219   2.359  -2.264  0.00  0.00    -0.302 OA
ATOM     20  C   UNL     1      -4.848   1.934  -1.054  0.00  0.00    +0.238 C 
ENDBRANCH  18  19
BRANCH  21  22
ATOM     22  O   UNL     1      -2.872   3.149  -4.536  0.00  0.00    -0.296 OA
ATOM     23  C   UNL     1      -2.108   3.545  -5.677  0.00  0.00    +0.246 C 
ENDBRANCH  21  22
TORSDOF 3
