REMARK  Name = ZINC11535640
REMARK  2 active torsions:
REMARK  status: ('A' for Active; 'I' for Inactive)
REMARK    1  A    between atoms: C1_1  and  C2_2
REMARK    2  A    between atoms: C3_3  and  C4_4
REMARK                            x       y       z     vdW  Elec       q    Type
REMARK                         _______ _______ _______ _____ _____    ______ ____
ROOT
ATOM      4  C   UNL     1       0.997   5.893   0.024  0.00  0.00    +0.194 A 
ATOM      5  C   UNL     1       2.258   5.272   0.009  0.00  0.00    -0.025 A 
ATOM      6  C   UNL     1       2.343   3.912   0.001  0.00  0.00    +0.084 A 
ATOM      7  C   UNL     1       1.146   3.167   0.008  0.00  0.00    -0.110 A 
ATOM      8  C   UNL     1       1.163   1.764   0.000  0.00  0.00    +0.036 A 
ATOM      9  C   UNL     1      -0.013   1.076   0.008  0.00  0.00    +0.009 A 
ATOM     10  C   UNL     1      -1.234   1.747   0.017  0.00  0.00    +0.032 A 
ATOM     11  C   UNL     1      -1.287   3.107   0.030  0.00  0.00    +0.038 A 
ATOM     12  C   UNL     1      -0.095   3.852   0.023  0.00  0.00    +0.135 A 
ATOM     13  N   UNL     1      -0.120   5.188   0.030  0.00  0.00    -0.478 NA
ENDROOT
BRANCH   4   3
ATOM      1  C   UNL     1      -0.344   9.474   0.057  0.00  0.00    +0.075 C 
ATOM      2  C   UNL     1      -0.264   7.970   0.047  0.00  0.00    +0.033 C 
ATOM      3  C   UNL     1       0.919   7.368   0.033  0.00  0.00    -0.022 C 
ENDBRANCH   4   3
TORSDOF 1
