REMARK  Name = ZINC95486239
REMARK  22 active torsions:
REMARK  status: ('A' for Active; 'I' for Inactive)
REMARK    1  A    between atoms: C1_1  and  C2_2
REMARK    2  A    between atoms: C1_1  and  C19_31
REMARK    3  A    between atoms: C2_2  and  C3_3
REMARK    4  A    between atoms: C3_3  and  C4_4
REMARK    5  A    between atoms: C4_4  and  C5_5
REMARK    6  A    between atoms: C5_5  and  C6_7
REMARK    7  A    between atoms: C6_7  and  C7_8
REMARK    8  A    between atoms: C7_8  and  C8_9
REMARK    9  A    between atoms: C8_9  and  C9_10
REMARK   10  A    between atoms: C9_10  and  C10_11
REMARK   11  A    between atoms: C10_11  and  C11_12
REMARK   12  A    between atoms: C11_12  and  C12_13
REMARK   13  A    between atoms: C12_13  and  O2_14
REMARK   14  A    between atoms: O2_14  and  C13_15
REMARK   15  A    between atoms: C14_17  and  O7_30
REMARK   16  A    between atoms: C15_19  and  O6_29
REMARK   17  A    between atoms: C16_21  and  O5_28
REMARK   18  A    between atoms: C17_23  and  C18_26
REMARK   19  A    between atoms: C18_26  and  O4_27
REMARK   20  A    between atoms: C19_31  and  C20_32
REMARK   21  A    between atoms: C20_32  and  C21_33
REMARK   22  A    between atoms: C21_33  and  C22_34
REMARK                            x       y       z     vdW  Elec       q    Type
REMARK                         _______ _______ _______ _____ _____    ______ ____
ROOT
ATOM     17  C   UNL     1      -8.124  -7.861   0.037  0.00  0.00    +0.024 C 
ENDROOT
BRANCH  17  16
ATOM     16  C   UNL     1      -6.616  -7.603   0.024  0.00  0.00    +0.012 C 
BRANCH  16  15
ATOM     15  C   UNL     1      -6.357  -6.095   0.030  0.00  0.00    +0.009 C 
BRANCH  15  14
ATOM     14  C   UNL     1      -4.849  -5.837   0.017  0.00  0.00    +0.005 C 
BRANCH  14  13
ATOM     13  C   UNL     1      -4.590  -4.329   0.023  0.00  0.00    +0.022 C 
BRANCH  13  12
ATOM     12  C   UNL     1      -3.082  -4.070   0.010  0.00  0.00    +0.020 C 
BRANCH  12  11
ATOM     11  C   UNL     1      -2.826  -2.585   0.015  0.00  0.00    +0.352 C 
ATOM     35  O   UNL     1      -3.755  -1.813   0.028  0.00  0.00    -0.451 OA
BRANCH  11  10
ATOM     10  C   UNL     1      -1.413  -2.063   0.004  0.00  0.00    +0.021 C 
BRANCH  10   9
ATOM      9  C   UNL     1      -1.433  -0.534   0.013  0.00  0.00    +0.020 C 
BRANCH   9   8
ATOM      8  C   UNL     1       0.002  -0.004   0.002  0.00  0.00    +0.001 C 
BRANCH   8   1
ATOM      1  C   UNL     1      -0.019   1.526   0.010  0.00  0.00    +0.001 C 
BRANCH   1   2
ATOM      2  C   UNL     1       1.417   2.055  -0.000  0.00  0.00    -0.012 C 
BRANCH   2   3
ATOM      3  C   UNL     1       1.396   3.585   0.008  0.00  0.00    +0.021 C 
BRANCH   3   4
ATOM      4  C   UNL     1       2.831   4.115  -0.003  0.00  0.00    -0.076 C 
BRANCH   4   5
ATOM      5  C   UNL     1       2.811   5.622   0.005  0.00  0.00    +0.487 C 
ATOM      6  O   UNL     1       3.858   6.245  -0.001  0.00  0.00    -0.710 OA
ATOM      7  O   UNL     1       1.747   6.217   0.019  0.00  0.00    -0.700 OA
ENDBRANCH   4   5
ENDBRANCH   3   4
ENDBRANCH   2   3
ENDBRANCH   1   2
ENDBRANCH   8   1
ENDBRANCH   9   8
ENDBRANCH  10   9
ENDBRANCH  11  10
ENDBRANCH  12  11
ENDBRANCH  13  12
ENDBRANCH  14  13
ENDBRANCH  15  14
ENDBRANCH  16  15
ENDBRANCH  17  16
BRANCH  17  18
ATOM     18  C   UNL     1      -8.383  -9.369   0.032  0.00  0.00    +0.178 C 
BRANCH  18  19
ATOM     19  O   UNL     1      -9.791  -9.610   0.044  0.00  0.00    -0.366 OA
BRANCH  19  20
ATOM     20  C   UNL     1     -10.144 -10.995   0.040  0.00  0.00    +0.286 C 
ATOM     21  C   UNL     1     -11.662 -11.136   0.179  0.00  0.00    +0.137 C 
ATOM     24  C   UNL     1     -12.037 -12.620   0.113  0.00  0.00    +0.164 C 
ATOM     27  C   UNL     1     -11.517 -13.209  -1.201  0.00  0.00    +0.177 C 
ATOM     30  C   UNL     1     -10.004 -12.988  -1.287  0.00  0.00    +0.190 C 
ATOM     34  O   UNL     1      -9.722 -11.591  -1.189  0.00  0.00    -0.373 OA
BRANCH  21  22
ATOM     22  O   UNL     1     -12.306 -10.432  -0.885  0.00  0.00    -0.540 OA
ATOM     23  H   UNL     1     -12.109  -9.485  -0.906  0.00  0.00    +0.389 HD
ENDBRANCH  21  22
BRANCH  24  25
ATOM     25  O   UNL     1     -13.459 -12.756   0.171  0.00  0.00    -0.548 OA
ATOM     26  H   UNL     1     -13.856 -12.397   0.976  0.00  0.00    +0.386 HD
ENDBRANCH  24  25
BRANCH  27  28
ATOM     28  O   UNL     1     -11.799 -14.609  -1.242  0.00  0.00    -0.557 OA
ATOM     29  H   UNL     1     -12.741 -14.822  -1.187  0.00  0.00    +0.393 HD
ENDBRANCH  27  28
BRANCH  30  31
ATOM     31  C   UNL     1      -9.486 -13.521  -2.624  0.00  0.00    +0.223 C 
BRANCH  31  32
ATOM     32  O   UNL     1      -8.061 -13.421  -2.656  0.00  0.00    -0.568 OA
ATOM     33  H   UNL     1      -7.662 -13.742  -3.477  0.00  0.00    +0.384 HD
ENDBRANCH  31  32
ENDBRANCH  30  31
ENDBRANCH  19  20
ENDBRANCH  18  19
ENDBRANCH  17  18
TORSDOF 22
