REMARK  Name = ZINC03978503
REMARK  11 active torsions:
REMARK  status: ('A' for Active; 'I' for Inactive)
REMARK    1  A    between atoms: C3_3  and  O10_34
REMARK    2  A    between atoms: C4_4  and  O9_33
REMARK    3  A    between atoms: C6_6  and  C7_7
REMARK    4  A    between atoms: C8_9  and  O4_21
REMARK    5  A    between atoms: C11_13  and  O3_20
REMARK    6  A    between atoms: C13_15  and  O2_19
REMARK    7  A    between atoms: O4_21  and  C16_22
REMARK    8  A    between atoms: C16_22  and  C17_24
REMARK    9  A    between atoms: C19_26  and  O8_32
REMARK   10  A    between atoms: C20_27  and  O7_31
REMARK   11  A    between atoms: C21_28  and  O6_30
REMARK                            x       y       z     vdW  Elec       q    Type
REMARK                         _______ _______ _______ _____ _____    ______ ____
ROOT
ATOM     11  C   UNL     1      -1.294  -0.774   0.010  0.00  0.00    +0.253 C 
ATOM     12  C   UNL     1      -1.822  -0.910  -1.423  0.00  0.00    +0.172 C 
ATOM     28  C   UNL     1      -3.076  -1.788  -1.391  0.00  0.00    +0.107 C 
ATOM     29  C   UNL     1      -4.004  -1.309  -0.304  0.00  0.00    -0.193 A 
ATOM     30  C   UNL     1      -5.336  -1.705  -0.341  0.00  0.00    +0.162 A 
ATOM     33  C   UNL     1      -6.217  -1.286   0.643  0.00  0.00    -0.061 A 
ATOM     34  C   UNL     1      -5.767  -0.469   1.670  0.00  0.00    +0.159 A 
ATOM     37  C   UNL     1      -4.441  -0.073   1.706  0.00  0.00    -0.040 A 
ATOM     38  C   UNL     1      -3.556  -0.490   0.717  0.00  0.00    +0.170 A 
ATOM     39  O   UNL     1      -2.266  -0.070   0.785  0.00  0.00    -0.292 OA
ENDROOT
BRANCH  11  10
ATOM      1  C   UNL     1      -0.017   1.378   0.010  0.00  0.00    +0.068 A 
ATOM      2  C   UNL     1       1.170   2.089   0.002  0.00  0.00    +0.004 A 
ATOM      3  C   UNL     1       2.380   1.415  -0.013  0.00  0.00    +0.092 A 
ATOM      6  C   UNL     1       2.399   0.024  -0.021  0.00  0.00    +0.081 A 
ATOM      9  C   UNL     1       1.207  -0.682  -0.013  0.00  0.00    +0.024 A 
ATOM     10  C   UNL     1       0.002  -0.004   0.002  0.00  0.00    -0.089 A 
BRANCH   3   4
ATOM      4  O   UNL     1       3.548   2.113  -0.021  0.00  0.00    -0.487 OA
ATOM      5  H   UNL     1       3.894   2.310   0.860  0.00  0.00    +0.391 HD
ENDBRANCH   3   4
BRANCH   6   7
ATOM      7  O   UNL     1       3.585  -0.642  -0.036  0.00  0.00    -0.485 OA
ATOM      8  H   UNL     1       3.937  -0.839   0.843  0.00  0.00    +0.389 HD
ENDBRANCH   6   7
ENDBRANCH  11  10
BRANCH  30  31
ATOM     31  O   UNL     1      -5.777  -2.506  -1.346  0.00  0.00    -0.491 OA
ATOM     32  H   UNL     1      -5.705  -3.452  -1.156  0.00  0.00    +0.395 HD
ENDBRANCH  30  31
BRANCH  34  35
ATOM     35  O   UNL     1      -6.627  -0.057   2.638  0.00  0.00    -0.491 OA
ATOM     36  H   UNL     1      -6.677  -0.652   3.399  0.00  0.00    +0.396 HD
ENDBRANCH  34  35
BRANCH  12  13
ATOM     13  O   UNL     1      -2.151   0.381  -1.941  0.00  0.00    -0.323 OA
BRANCH  13  14
ATOM     14  C   UNL     1      -2.027   0.556  -3.271  0.00  0.00    +0.514 C 
ATOM     27  O   UNL     1      -1.652  -0.362  -3.973  0.00  0.00    -0.494 OA
BRANCH  14  15
ATOM     15  C   UNL     1      -2.349   1.862  -3.876  0.00  0.00    -0.102 A 
ATOM     16  C   UNL     1      -2.775   2.921  -3.070  0.00  0.00    +0.074 A 
ATOM     17  C   UNL     1      -3.076   4.144  -3.639  0.00  0.00    +0.086 A 
ATOM     20  C   UNL     1      -2.954   4.322  -5.015  0.00  0.00    +0.095 A 
ATOM     23  C   UNL     1      -2.529   3.268  -5.820  0.00  0.00    +0.088 A 
ATOM     26  C   UNL     1      -2.221   2.045  -5.256  0.00  0.00    +0.080 A 
BRANCH  17  18
ATOM     18  O   UNL     1      -3.491   5.175  -2.855  0.00  0.00    -0.478 OA
ATOM     19  H   UNL     1      -2.773   5.729  -2.520  0.00  0.00    +0.392 HD
ENDBRANCH  17  18
BRANCH  20  21
ATOM     21  O   UNL     1      -3.250   5.525  -5.572  0.00  0.00    -0.472 OA
ATOM     22  H   UNL     1      -2.498   6.130  -5.626  0.00  0.00    +0.392 HD
ENDBRANCH  20  21
BRANCH  23  24
ATOM     24  O   UNL     1      -2.412   3.445  -7.164  0.00  0.00    -0.478 OA
ATOM     25  H   UNL     1      -1.539   3.753  -7.445  0.00  0.00    +0.393 HD
ENDBRANCH  23  24
ENDBRANCH  14  15
ENDBRANCH  13  14
ENDBRANCH  12  13
TORSDOF 11
