REMARK  Name = ZINC95486272
REMARK  9 active torsions:
REMARK  status: ('A' for Active; 'I' for Inactive)
REMARK    1  A    between atoms: C1_1  and  C2_2
REMARK    2  A    between atoms: C2_2  and  C3_4
REMARK    3  A    between atoms: C2_2  and  O5_28
REMARK    4  A    between atoms: C4_5  and  C5_6
REMARK    5  A    between atoms: C6_7  and  O4_26
REMARK    6  A    between atoms: C8_9  and  O3_24
REMARK    7  A    between atoms: C11_13  and  C14_18
REMARK    8  A    between atoms: O3_24  and  C20_25
REMARK    9  A    between atoms: O4_26  and  C21_27
REMARK                            x       y       z     vdW  Elec       q    Type
REMARK                         _______ _______ _______ _____ _____    ______ ____
ROOT
ATOM      7  C   UNL     1      -1.332  -1.573   1.930  0.00  0.00    -0.174 A 
ATOM      8  C   UNL     1      -2.241  -0.631   1.427  0.00  0.00    +0.242 A 
ATOM     11  C   UNL     1      -3.567  -0.975   1.218  0.00  0.00    -0.200 A 
ATOM     12  C   UNL     1      -4.010  -2.255   1.507  0.00  0.00    +0.260 A 
ATOM     15  C   UNL     1      -3.111  -3.206   2.016  0.00  0.00    -0.319 A 
ATOM     16  C   UNL     1      -3.564  -4.564   2.340  0.00  0.00    +0.405 C 
ATOM     17  O   UNL     1      -4.743  -4.848   2.392  0.00  0.00    -0.432 OA
ATOM     18  C   UNL     1      -2.478  -5.599   2.591  0.00  0.00    +0.038 C 
ATOM     19  C   UNL     1      -1.383  -4.907   3.415  0.00  0.00    +0.234 C 
ATOM     26  O   UNL     1      -0.882  -3.785   2.688  0.00  0.00    -0.285 OA
ATOM     27  C   UNL     1      -1.762  -2.871   2.219  0.00  0.00    +0.265 A 
ENDROOT
BRANCH  19  20
ATOM     20  C   UNL     1      -0.260  -5.878   3.676  0.00  0.00    -0.092 A 
ATOM     21  C   UNL     1       0.741  -6.046   2.738  0.00  0.00    +0.041 A 
ATOM     22  C   UNL     1       1.771  -6.937   2.978  0.00  0.00    +0.006 A 
ATOM     23  C   UNL     1       1.799  -7.659   4.156  0.00  0.00    +0.014 A 
ATOM     24  C   UNL     1       0.799  -7.490   5.095  0.00  0.00    +0.007 A 
ATOM     25  C   UNL     1      -0.229  -6.596   4.857  0.00  0.00    +0.023 A 
ENDBRANCH  19  20
BRANCH   7   6
ATOM      5  C   UNL     1       0.834  -0.830   1.120  0.00  0.00    -0.059 C 
ATOM      6  C   UNL     1       0.079  -1.196   2.148  0.00  0.00    +0.052 C 
BRANCH   5   2
ATOM      1  C   UNL     1       0.425   0.418  -0.983  0.00  0.00    +0.008 C 
ATOM      2  C   UNL     1       0.299  -0.937  -0.284  0.00  0.00    +0.230 C 
BRANCH   2   3
ATOM      3  O   UNL     1       1.048  -1.917  -1.006  0.00  0.00    -0.558 OA
ATOM      4  H   UNL     1       1.992  -1.717  -1.075  0.00  0.00    +0.373 HD
ENDBRANCH   2   3
ENDBRANCH   5   2
ENDBRANCH   7   6
BRANCH   8   9
ATOM      9  O   UNL     1      -1.819   0.626   1.144  0.00  0.00    -0.293 OA
ATOM     10  C   UNL     1      -2.794   1.538   0.634  0.00  0.00    +0.250 C 
ENDBRANCH   8   9
BRANCH  12  13
ATOM     13  O   UNL     1      -5.308  -2.588   1.300  0.00  0.00    -0.282 OA
ATOM     14  C   UNL     1      -6.165  -1.569   0.781  0.00  0.00    +0.248 C 
ENDBRANCH  12  13
TORSDOF 6
