REMARK  Name = ZINC95485884
REMARK  9 active torsions:
REMARK  status: ('A' for Active; 'I' for Inactive)
REMARK    1  A    between atoms: C1_1  and  C2_2
REMARK    2  A    between atoms: C4_4  and  C18_23
REMARK    3  A    between atoms: C4_4  and  C19_24
REMARK    4  A    between atoms: C6_6  and  C8_9
REMARK    5  A    between atoms: C8_9  and  C9_10
REMARK    6  A    between atoms: C10_11  and  O4_21
REMARK    7  A    between atoms: C11_12  and  C16_19
REMARK    8  A    between atoms: C11_12  and  C17_20
REMARK    9  A    between atoms: C13_14  and  C15_17
REMARK                            x       y       z     vdW  Elec       q    Type
REMARK                         _______ _______ _______ _____ _____    ______ ____
ROOT
ATOM     11  C   UNL     1       2.401  -2.300   2.716  0.00  0.00    +0.145 C 
ENDROOT
BRANCH  11  10
ATOM      1  C   UNL     1       0.390   0.710  -0.646  0.00  0.00    +0.082 C 
ATOM      2  C   UNL     1       0.500  -0.783  -0.327  0.00  0.00    -0.042 C 
ATOM      3  C   UNL     1       1.383  -1.461  -1.354  0.00  0.00    +0.378 C 
ATOM      4  O   UNL     1       1.728  -0.881  -2.355  0.00  0.00    -0.408 OA
ATOM      5  C   UNL     1       1.821  -2.887  -1.091  0.00  0.00    -0.158 C 
ATOM      6  C   UNL     1       2.901  -3.289  -2.097  0.00  0.00    +0.087 C 
ATOM      7  C   UNL     1       0.621  -3.828  -1.216  0.00  0.00    +0.100 C 
ATOM      8  C   UNL     1       2.380  -2.954   0.314  0.00  0.00    +0.381 C 
ATOM      9  O   UNL     1       3.453  -3.464   0.531  0.00  0.00    -0.407 OA
ATOM     10  C   UNL     1       1.558  -2.366   1.441  0.00  0.00    -0.050 C 
ATOM     25  C   UNL     1       1.134  -0.971   1.035  0.00  0.00    +0.370 C 
ATOM     26  O   UNL     1       1.299  -0.032   1.776  0.00  0.00    -0.390 OA
ENDBRANCH  11  10
BRANCH  11  12
ATOM     12  C   UNL     1       1.529  -1.885   3.874  0.00  0.00    -0.319 C 
ATOM     13  C   UNL     1       0.806  -2.799   4.534  0.00  0.00    +0.197 C 
ATOM     16  C   UNL     1      -0.068  -2.456   5.699  0.00  0.00    -0.032 C 
ATOM     17  C   UNL     1      -1.390  -3.215   5.564  0.00  0.00    +0.090 C 
ATOM     18  C   UNL     1       0.626  -2.906   6.986  0.00  0.00    +0.092 C 
ATOM     19  C   UNL     1      -0.360  -0.991   5.795  0.00  0.00    +0.261 C 
ATOM     20  O   UNL     1      -1.388  -0.588   6.571  0.00  0.00    -0.435 OA
ATOM     21  C   UNL     1       0.353  -0.063   5.145  0.00  0.00    -0.089 C 
ATOM     22  C   UNL     1       0.014   1.397   5.295  0.00  0.00    +0.186 C 
ATOM     23  C   UNL     1       1.471  -0.480   4.289  0.00  0.00    +0.413 C 
ATOM     24  O   UNL     1       2.322   0.317   3.931  0.00  0.00    -0.401 OA
BRANCH  13  14
ATOM     14  O   UNL     1       0.869  -4.085   4.132  0.00  0.00    -0.455 OA
ATOM     15  H   UNL     1       1.385  -4.220   3.325  0.00  0.00    +0.404 HD
ENDBRANCH  13  14
ENDBRANCH  11  12
TORSDOF 3
