REMARK  Name = ZINC18185774
REMARK  5 active torsions:
REMARK  status: ('A' for Active; 'I' for Inactive)
REMARK    1  A    between atoms: C3_3  and  O6_21
REMARK    2  A    between atoms: C4_4  and  O5_20
REMARK    3  A    between atoms: C6_6  and  C7_7
REMARK    4  A    between atoms: C11_12  and  O4_19
REMARK    5  A    between atoms: C13_14  and  O3_18
REMARK                            x       y       z     vdW  Elec       q    Type
REMARK                         _______ _______ _______ _____ _____    ______ ____
ROOT
ATOM     11  C   UNL     1      -1.264  -0.761   0.011  0.00  0.00    +0.207 A 
ATOM     12  C   UNL     1      -2.437  -0.072   0.020  0.00  0.00    -0.142 A 
ATOM     13  C   UNL     1      -3.662  -0.781   0.029  0.00  0.00    +0.423 A 
ATOM     14  C   UNL     1      -3.594  -2.252   0.026  0.00  0.00    -0.266 A 
ATOM     15  C   UNL     1      -4.755  -3.034   0.033  0.00  0.00    +0.220 A 
ATOM     18  C   UNL     1      -4.648  -4.413   0.030  0.00  0.00    -0.054 A 
ATOM     19  C   UNL     1      -3.396  -5.016   0.020  0.00  0.00    +0.193 A 
ATOM     22  C   UNL     1      -2.241  -4.248   0.013  0.00  0.00    -0.029 A 
ATOM     23  C   UNL     1      -2.329  -2.865   0.016  0.00  0.00    +0.183 A 
ATOM     24  O   UNL     1      -4.733  -0.196   0.037  0.00  0.00    -0.452 OA
ATOM     25  O   UNL     1      -1.215  -2.102   0.003  0.00  0.00    -0.218 OA
ENDROOT
BRANCH  11  10
ATOM      1  C   UNL     1      -0.017   1.393   0.010  0.00  0.00    +0.075 A 
ATOM      2  C   UNL     1       1.168   2.098   0.002  0.00  0.00    +0.016 A 
ATOM      3  C   UNL     1       2.380   1.424  -0.014  0.00  0.00    +0.110 A 
ATOM      6  C   UNL     1       2.407   0.030  -0.021  0.00  0.00    +0.079 A 
ATOM      9  C   UNL     1       1.224  -0.683  -0.014  0.00  0.00    +0.056 A 
ATOM     10  C   UNL     1       0.002  -0.004   0.002  0.00  0.00    -0.066 A 
BRANCH   3   4
ATOM      4  O   UNL     1       3.545   2.124  -0.022  0.00  0.00    -0.485 OA
ATOM      5  H   UNL     1       3.891   2.322   0.859  0.00  0.00    +0.395 HD
ENDBRANCH   3   4
BRANCH   6   7
ATOM      7  O   UNL     1       3.597  -0.627  -0.037  0.00  0.00    -0.483 OA
ATOM      8  H   UNL     1       3.950  -0.822   0.842  0.00  0.00    +0.392 HD
ENDBRANCH   6   7
ENDBRANCH  11  10
BRANCH  15  16
ATOM     16  O   UNL     1      -5.977  -2.444   0.044  0.00  0.00    -0.472 OA
ATOM     17  H   UNL     1      -6.338  -2.271  -0.837  0.00  0.00    +0.403 HD
ENDBRANCH  15  16
BRANCH  19  20
ATOM     20  O   UNL     1      -3.302  -6.370   0.018  0.00  0.00    -0.487 OA
ATOM     21  H   UNL     1      -3.281  -6.762  -0.866  0.00  0.00    +0.404 HD
ENDBRANCH  19  20
TORSDOF 5
