REMARK  Name = ZINC95486327
REMARK  6 active torsions:
REMARK  status: ('A' for Active; 'I' for Inactive)
REMARK    1  A    between atoms: C1_1  and  C2_2
REMARK    2  A    between atoms: C5_6  and  C7_9
REMARK    3  A    between atoms: C8_10  and  O6_27
REMARK    4  A    between atoms: C12_14  and  O3_15
REMARK    5  A    between atoms: C15_19  and  C16_21
REMARK    6  A    between atoms: O6_27  and  C22_28
REMARK                            x       y       z     vdW  Elec       q    Type
REMARK                         _______ _______ _______ _____ _____    ______ ____
ROOT
ATOM      6  C   UNL     1       2.501  -1.231   4.216  0.00  0.00    -0.099 A 
ATOM      7  C   UNL     1       1.810  -1.249   5.435  0.00  0.00    +0.224 A 
ATOM     10  C   UNL     1       2.500  -1.229   6.634  0.00  0.00    -0.093 A 
ATOM     11  C   UNL     1       3.887  -1.192   6.641  0.00  0.00    +0.211 A 
ATOM     12  C   UNL     1       4.588  -1.174   5.422  0.00  0.00    -0.289 A 
ATOM     13  C   UNL     1       6.060  -1.134   5.458  0.00  0.00    +0.426 A 
ATOM     14  C   UNL     1       6.680  -1.116   6.731  0.00  0.00    -0.144 A 
ATOM     15  C   UNL     1       5.910  -1.136   7.851  0.00  0.00    +0.203 A 
ATOM     22  O   UNL     1       6.719  -1.117   4.432  0.00  0.00    -0.456 OA
ATOM     23  O   UNL     1       4.570  -1.172   7.806  0.00  0.00    -0.218 OA
ATOM     24  C   UNL     1       3.894  -1.199   4.207  0.00  0.00    +0.255 A 
ENDROOT
BRANCH   6   5
ATOM      1  C   UNL     1      -0.018   1.503   0.010  0.00  0.00    +0.122 C 
ATOM      2  C   UNL     1       0.002  -0.004   0.002  0.00  0.00    +0.097 C 
ATOM      3  C   UNL     1       0.600  -0.671   0.997  0.00  0.00    -0.074 C 
ATOM      4  C   UNL     1       1.278  -0.085   2.174  0.00  0.00    +0.402 C 
ATOM      5  C   UNL     1       1.750  -1.252   2.936  0.00  0.00    -0.274 C 
ATOM     27  C   UNL     1       1.366  -2.350   2.240  0.00  0.00    +0.358 C 
ATOM     28  O   UNL     1       1.415   1.094   2.450  0.00  0.00    -0.429 OA
ATOM     29  O   UNL     1       0.700  -2.017   1.128  0.00  0.00    -0.217 OA
ENDBRANCH   6   5
BRANCH  15  16
ATOM     16  C   UNL     1       6.576  -1.116   9.170  0.00  0.00    -0.073 A 
ATOM     17  C   UNL     1       7.969  -1.072   9.252  0.00  0.00    +0.056 A 
ATOM     18  C   UNL     1       8.584  -1.054  10.487  0.00  0.00    +0.014 A 
ATOM     19  C   UNL     1       7.823  -1.079  11.642  0.00  0.00    +0.037 A 
ATOM     20  C   UNL     1       6.442  -1.123  11.568  0.00  0.00    +0.009 A 
ATOM     21  C   UNL     1       5.814  -1.136  10.340  0.00  0.00    +0.054 A 
ENDBRANCH  15  16
BRANCH   7   8
ATOM      8  O   UNL     1       0.453  -1.286   5.439  0.00  0.00    -0.294 OA
ATOM      9  C   UNL     1      -0.191  -1.303   6.715  0.00  0.00    +0.254 C 
ENDBRANCH   7   8
BRANCH  24  25
ATOM     25  O   UNL     1       4.571  -1.187   3.031  0.00  0.00    -0.466 OA
ATOM     26  H   UNL     1       4.747  -0.300   2.688  0.00  0.00    +0.404 HD
ENDBRANCH  24  25
TORSDOF 4
