REMARK  Name = ZINC13408812
REMARK  8 active torsions:
REMARK  status: ('A' for Active; 'I' for Inactive)
REMARK    1  A    between atoms: C1_1  and  C2_2
REMARK    2  A    between atoms: C2_2  and  C3_3
REMARK    3  A    between atoms: C17_21  and  C18_23
REMARK    4  A    between atoms: C18_23  and  C21_27
REMARK    5  A    between atoms: C19_24  and  O1_25
REMARK    6  A    between atoms: O1_25  and  C20_26
REMARK    7  A    between atoms: C21_27  and  O3_29
REMARK    8  A    between atoms: O3_29  and  C22_30
REMARK                            x       y       z     vdW  Elec       q    Type
REMARK                         _______ _______ _______ _____ _____    ______ ____
ROOT
ATOM      3  C   UNL     1      -5.108   0.872  -1.265  0.00  0.00    +0.022 C 
ATOM      4  C   UNL     1      -4.706   1.939  -0.254  0.00  0.00    +0.279 C 
ATOM      5  N   UNL     1      -3.254   2.185  -0.377  0.00  0.00    -0.391 N 
ATOM      6  H   UNL     1      -3.040   2.421  -1.353  0.00  0.00    +0.427 HD
ATOM      7  C   UNL     1      -2.504   0.965  -0.005  0.00  0.00    +0.275 C 
ATOM      8  C   UNL     1      -2.828  -0.125  -1.028  0.00  0.00    +0.054 C 
ATOM      9  C   UNL     1      -1.032   1.290  -0.043  0.00  0.00    +0.017 A 
ATOM     10  N   UNL     1       0.012   0.407  -0.101  0.00  0.00    -0.564 N 
ATOM     11  H   UNL     1      -0.075  -0.558  -0.137  0.00  0.00    +0.422 HD
ATOM     12  C   UNL     1       1.195   1.090  -0.106  0.00  0.00    +0.112 A 
ATOM     13  C   UNL     1       2.520   0.662  -0.157  0.00  0.00    +0.006 A 
ATOM     14  C   UNL     1       3.497   1.642  -0.145  0.00  0.00    +0.051 A 
ATOM     15  C   UNL     1       3.189   2.991  -0.085  0.00  0.00    -0.007 A 
ATOM     16  C   UNL     1       1.894   3.443  -0.035  0.00  0.00    +0.071 A 
ATOM     17  C   UNL     1       0.885   2.474  -0.045  0.00  0.00    -0.101 A 
ATOM     18  C   UNL     1      -0.558   2.557  -0.002  0.00  0.00    -0.153 A 
ATOM     19  C   UNL     1      -1.443   3.775   0.070  0.00  0.00    +0.149 C 
ATOM     20  C   UNL     1      -2.849   3.321   0.487  0.00  0.00    +0.273 C 
ATOM     21  C   UNL     1      -4.331  -0.418  -0.986  0.00  0.00    +0.091 C 
ENDROOT
BRANCH   3   2
ATOM      1  C   UNL     1      -5.667   2.571  -3.009  0.00  0.00    +0.029 C 
ATOM      2  C   UNL     1      -4.785   1.366  -2.676  0.00  0.00    +0.005 C 
ENDBRANCH   3   2
BRANCH  21  22
ATOM     22  C   UNL     1      -4.673  -1.447  -2.032  0.00  0.00    -0.260 C 
ATOM     27  C   UNL     1      -3.800  -1.718  -3.020  0.00  0.00    +0.301 C 
BRANCH  22  23
ATOM     23  C   UNL     1      -5.912  -2.129  -1.977  0.00  0.00    +0.502 C 
ATOM     26  O   UNL     1      -6.148  -3.027  -2.763  0.00  0.00    -0.488 OA
BRANCH  23  24
ATOM     24  O   UNL     1      -6.832  -1.782  -1.052  0.00  0.00    -0.362 OA
ATOM     25  C   UNL     1      -8.060  -2.513  -1.054  0.00  0.00    +0.260 C 
ENDBRANCH  23  24
ENDBRANCH  22  23
BRANCH  27  28
ATOM     28  O   UNL     1      -4.105  -2.638  -3.956  0.00  0.00    -0.278 OA
ATOM     29  C   UNL     1      -3.116  -2.879  -4.991  0.00  0.00    +0.261 C 
ENDBRANCH  27  28
ENDBRANCH  21  22
TORSDOF 5
