REMARK  Name = ZINC95486366
REMARK  7 active torsions:
REMARK  status: ('A' for Active; 'I' for Inactive)
REMARK    1  A    between atoms: C1_1  and  C2_2
REMARK    2  A    between atoms: C7_7  and  C8_8
REMARK    3  A    between atoms: C8_8  and  C9_9
REMARK    4  A    between atoms: C15_17  and  C22_26
REMARK    5  A    between atoms: C19_21  and  C20_22
REMARK    6  A    between atoms: C19_21  and  C21_23
REMARK    7  A    between atoms: C25_30  and  C27_33
REMARK                            x       y       z     vdW  Elec       q    Type
REMARK                         _______ _______ _______ _____ _____    ______ ____
ROOT
ATOM     16  C   UNL     1       0.523  -0.061   3.599  0.00  0.00    +0.089 C 
ENDROOT
BRANCH  16  15
ATOM      1  C   UNL     1       1.384  -2.537   4.819  0.00  0.00    +0.092 C 
ATOM      2  C   UNL     1       1.565  -2.327   3.337  0.00  0.00    -0.076 A 
ATOM      3  C   UNL     1       2.136  -3.322   2.568  0.00  0.00    +0.012 A 
ATOM      4  C   UNL     1       2.310  -3.144   1.204  0.00  0.00    +0.035 A 
ATOM      5  C   UNL     1       1.906  -1.957   0.606  0.00  0.00    -0.100 A 
ATOM      6  C   UNL     1       1.325  -0.944   1.389  0.00  0.00    -0.125 A 
ATOM      7  C   UNL     1       0.898   0.315   0.743  0.00  0.00    +0.384 C 
ATOM      8  C   UNL     1       1.089   0.492  -0.716  0.00  0.00    +0.253 C 
ATOM      9  O   UNL     1       0.698   1.644  -1.308  0.00  0.00    -0.648 OA
ATOM     10  C   UNL     1       1.647  -0.485  -1.460  0.00  0.00    -0.449 C 
ATOM     11  C   UNL     1       1.829  -0.278  -2.942  0.00  0.00    +0.067 C 
ATOM     12  O   UNL     1       0.394   1.200   1.405  0.00  0.00    -0.415 OA
ATOM     13  C   UNL     1       2.080  -1.744  -0.848  0.00  0.00    +0.427 C 
ATOM     14  O   UNL     1       2.582  -2.614  -1.535  0.00  0.00    -0.527 OA
ATOM     15  C   UNL     1       1.152  -1.140   2.755  0.00  0.00    -0.025 A 
ENDBRANCH  16  15
BRANCH  16  17
ATOM     17  C   UNL     1      -1.000  -0.178   3.524  0.00  0.00    +0.043 C 
ATOM     18  C   UNL     1      -1.449  -1.506   4.069  0.00  0.00    -0.087 C 
ATOM     19  C   UNL     1      -1.358  -1.705   5.564  0.00  0.00    +0.037 C 
ATOM     20  C   UNL     1      -2.135  -0.560   6.225  0.00  0.00    +0.018 C 
ATOM     21  C   UNL     1      -1.564   0.802   5.808  0.00  0.00    +0.035 C 
ATOM     22  C   UNL     1      -2.313   1.888   6.581  0.00  0.00    -0.121 C 
ATOM     26  C   UNL     1      -1.582   3.233   6.568  0.00  0.00    +0.012 C 
ATOM     27  C   UNL     1      -3.739   2.058   6.065  0.00  0.00    +0.023 C 
ATOM     28  C   UNL     1      -3.766   2.289   4.558  0.00  0.00    -0.016 C 
ATOM     29  C   UNL     1      -3.097   1.117   3.845  0.00  0.00    +0.007 C 
ATOM     30  C   UNL     1      -1.900  -2.454   3.286  0.00  0.00    -0.035 C 
ATOM     31  C   UNL     1      -1.643   0.982   4.300  0.00  0.00    -0.033 C 
ATOM     32  C   UNL     1      -0.866   2.227   3.836  0.00  0.00    +0.025 C 
BRANCH  22  23
ATOM     23  C   UNL     1      -2.411   1.500   8.051  0.00  0.00    +0.506 C 
ATOM     24  O   UNL     1      -3.500   1.280   8.552  0.00  0.00    -0.704 OA
ATOM     25  O   UNL     1      -1.400   1.409   8.726  0.00  0.00    -0.703 OA
ENDBRANCH  22  23
ENDBRANCH  16  17
TORSDOF 3
