REMARK  Name = ZINC95485997
REMARK  17 active torsions:
REMARK  status: ('A' for Active; 'I' for Inactive)
REMARK    1  A    between atoms: C1_1  and  C2_2
REMARK    2  A    between atoms: C2_2  and  O2_4
REMARK    3  A    between atoms: O2_4  and  C3_5
REMARK    4  A    between atoms: C5_9  and  O6_42
REMARK    5  A    between atoms: C7_12  and  C28_37
REMARK    6  A    between atoms: C8_13  and  O3_15
REMARK    7  A    between atoms: O3_15  and  C9_16
REMARK    8  A    between atoms: C9_16  and  C10_17
REMARK    9  A    between atoms: C17_24  and  C21_30
REMARK   10  A    between atoms: C19_27  and  C20_28
REMARK   11  A    between atoms: C19_27  and  O4_29
REMARK   12  A    between atoms: C21_30  and  C22_31
REMARK   13  A    between atoms: C29_39  and  C30_40
REMARK   14  A    between atoms: C29_39  and  C31_41
REMARK   15  A    between atoms: O6_42  and  C32_43
REMARK   16  A    between atoms: C35_47  and  C38_52
REMARK   17  A    between atoms: N1_50  and  C37_51
REMARK                            x       y       z     vdW  Elec       q    Type
REMARK                         _______ _______ _______ _____ _____    ______ ____
ROOT
ATOM      4  C   UNL     1      -0.419  -1.436  -1.936  0.00  0.00    +0.166 C 
ATOM      5  C   UNL     1      -0.864  -2.147  -3.212  0.00  0.00    -0.032 C 
ATOM      6  C   UNL     1      -0.605  -3.669  -2.937  0.00  0.00    +0.142 C 
ATOM     19  C   UNL     1       0.933  -3.667  -3.034  0.00  0.00    +0.164 C 
ATOM     20  O   UNL     1       1.273  -2.697  -4.057  0.00  0.00    -0.325 OA
ATOM     21  C   UNL     1       1.499  -3.124  -1.724  0.00  0.00    -0.043 C 
ATOM     22  C   UNL     1       1.035  -3.908  -0.493  0.00  0.00    +0.046 C 
ATOM     23  C   UNL     1       3.025  -3.109  -1.788  0.00  0.00    +0.061 C 
ATOM     24  C   UNL     1       3.653  -4.412  -2.232  0.00  0.00    -0.004 C 
ATOM     32  C   UNL     1       3.000  -5.055  -3.435  0.00  0.00    +0.010 C 
ATOM     33  C   UNL     1       1.479  -5.013  -3.448  0.00  0.00    +0.161 C 
ATOM     36  C   UNL     1       0.898  -6.166  -2.638  0.00  0.00    +0.022 C 
ATOM     37  C   UNL     1       0.118  -1.912  -4.375  0.00  0.00    +0.131 C 
ATOM     38  C   UNL     1       0.470  -0.440  -4.565  0.00  0.00    +0.051 C 
ATOM     39  C   UNL     1      -0.494  -2.419  -5.693  0.00  0.00    +0.026 C 
ATOM     40  C   UNL     1       1.023  -1.671  -1.541  0.00  0.00    +0.149 C 
ENDROOT
BRANCH  33  34
ATOM     34  O   UNL     1       1.079  -5.229  -4.825  0.00  0.00    -0.538 OA
ATOM     35  H   UNL     1       1.379  -6.070  -5.195  0.00  0.00    +0.364 HD
ENDBRANCH  33  34
BRANCH   4   3
ATOM      3  O   UNL     1      -0.700  -0.034  -2.001  0.00  0.00    -0.332 OA
BRANCH   3   2
ATOM      1  C   UNL     1      -1.357   2.047  -0.846  0.00  0.00    +0.156 C 
ATOM      2  C   UNL     1      -1.047   0.572  -0.855  0.00  0.00    +0.450 C 
ATOM     49  O   UNL     1      -1.111  -0.065   0.170  0.00  0.00    -0.508 OA
ENDBRANCH   3   2
ENDBRANCH   4   3
BRANCH   6   7
ATOM      7  O   UNL     1      -1.244  -4.493  -3.912  0.00  0.00    -0.321 OA
BRANCH   7   8
ATOM      8  C   UNL     1      -2.667  -4.539  -3.792  0.00  0.00    +0.374 C 
ATOM      9  C   UNL     1      -3.268  -5.043  -5.102  0.00  0.00    +0.091 C 
ATOM     10  C   UNL     1      -4.743  -5.296  -4.929  0.00  0.00    +0.043 C 
ATOM     11  C   UNL     1      -5.206  -5.762  -3.748  0.00  0.00    -0.202 C 
ATOM     15  C   UNL     1      -4.246  -6.008  -2.649  0.00  0.00    +0.558 C 
ATOM     16  O   UNL     1      -4.552  -6.728  -1.718  0.00  0.00    -0.496 OA
ATOM     17  N   UNL     1      -3.031  -5.431  -2.692  0.00  0.00    -0.639 N 
ATOM     18  C   UNL     1      -2.066  -5.696  -1.622  0.00  0.00    +0.264 C 
BRANCH  11  12
ATOM     12  C   UNL     1      -6.644  -6.020  -3.557  0.00  0.00    +0.528 C 
ATOM     13  O   UNL     1      -7.053  -6.442  -2.484  0.00  0.00    -0.662 OA
ATOM     14  O   UNL     1      -7.429  -5.813  -4.472  0.00  0.00    -0.691 OA
ENDBRANCH  11  12
ENDBRANCH   7   8
ENDBRANCH   6   7
BRANCH  24  25
ATOM     25  C   UNL     1       3.821  -5.399  -1.079  0.00  0.00    +0.065 C 
BRANCH  25  26
ATOM     26  C   UNL     1       4.642  -6.576  -1.540  0.00  0.00    -0.073 A 
ATOM     27  C   UNL     1       4.016  -7.742  -1.938  0.00  0.00    +0.003 A 
ATOM     28  C   UNL     1       4.769  -8.821  -2.361  0.00  0.00    +0.004 A 
ATOM     29  C   UNL     1       6.148  -8.734  -2.386  0.00  0.00    -0.008 A 
ATOM     30  C   UNL     1       6.774  -7.567  -1.989  0.00  0.00    +0.000 A 
ATOM     31  C   UNL     1       6.021  -6.487  -1.570  0.00  0.00    +0.000 A 
ENDBRANCH  25  26
ENDBRANCH  24  25
BRANCH  40  41
ATOM     41  O   UNL     1       1.909  -0.760  -2.174  0.00  0.00    -0.330 OA
BRANCH  41  42
ATOM     42  C   UNL     1       2.134   0.442  -1.434  0.00  0.00    +0.202 C 
BRANCH  42  43
ATOM     43  C   UNL     1       3.084   1.330  -2.195  0.00  0.00    -0.084 A 
ATOM     44  C   UNL     1       4.447   1.219  -1.993  0.00  0.00    +0.023 A 
ATOM     45  C   UNL     1       5.319   2.034  -2.691  0.00  0.00    -0.002 A 
ATOM     46  C   UNL     1       4.827   2.960  -3.591  0.00  0.00    +0.006 A 
ATOM     47  C   UNL     1       3.465   3.071  -3.795  0.00  0.00    +0.000 A 
ATOM     48  C   UNL     1       2.593   2.253  -3.100  0.00  0.00    +0.029 A 
ENDBRANCH  42  43
ENDBRANCH  41  42
ENDBRANCH  40  41
TORSDOF 11
