REMARK  Name = ZINC95485946
REMARK  43 active torsions:
REMARK  status: ('A' for Active; 'I' for Inactive)
REMARK    1  A    between atoms: C1_1  and  O1_2
REMARK    2  A    between atoms: O1_2  and  C2_3
REMARK    3  A    between atoms: C4_5  and  C8_10
REMARK    4  A    between atoms: C7_8  and  O2_9
REMARK    5  A    between atoms: C8_10  and  C9_11
REMARK    6  A    between atoms: C9_11  and  O3_12
REMARK    7  A    between atoms: O3_12  and  C10_13
REMARK    8  A    between atoms: C10_13  and  C11_14
REMARK    9  A    between atoms: C11_14  and  C12_15
REMARK   10  A    between atoms: C12_15  and  C13_16
REMARK   11  A    between atoms: C13_16  and  C14_17
REMARK   12  A    between atoms: C14_17  and  C15_18
REMARK   13  A    between atoms: C15_18  and  C16_19
REMARK   14  A    between atoms: C16_19  and  C17_20
REMARK   15  A    between atoms: C17_20  and  C18_21
REMARK   16  A    between atoms: C18_21  and  C19_22
REMARK   17  A    between atoms: C19_22  and  C20_23
REMARK   18  A    between atoms: C20_23  and  C21_24
REMARK   19  A    between atoms: C21_24  and  C22_25
REMARK   20  A    between atoms: C22_25  and  C23_26
REMARK   21  A    between atoms: C23_26  and  C24_27
REMARK   22  A    between atoms: C24_27  and  C25_28
REMARK   23  A    between atoms: C25_28  and  C26_29
REMARK   24  A    between atoms: C26_29  and  C27_30
REMARK   25  A    between atoms: C27_30  and  C28_31
REMARK   26  A    between atoms: C28_31  and  C29_32
REMARK   27  A    between atoms: C29_32  and  C30_33
REMARK   28  A    between atoms: C30_33  and  C31_34
REMARK   29  A    between atoms: C31_34  and  C32_35
REMARK   30  A    between atoms: C32_35  and  C33_36
REMARK   31  A    between atoms: C33_36  and  C34_37
REMARK   32  A    between atoms: C34_37  and  C35_38
REMARK   33  A    between atoms: C35_38  and  C36_39
REMARK   34  A    between atoms: C36_39  and  C37_40
REMARK   35  A    between atoms: C37_40  and  C38_41
REMARK   36  A    between atoms: C38_41  and  C39_42
REMARK   37  A    between atoms: C39_42  and  O4_43
REMARK   38  A    between atoms: O4_43  and  C40_44
REMARK   39  A    between atoms: C40_44  and  C41_46
REMARK   40  A    between atoms: C42_47  and  C43_48
REMARK   41  A    between atoms: C46_51  and  O7_56
REMARK   42  A    between atoms: C47_52  and  O6_54
REMARK   43  A    between atoms: O6_54  and  C49_55
REMARK                            x       y       z     vdW  Elec       q    Type
REMARK                         _______ _______ _______ _____ _____    ______ ____
ROOT
ATOM     24  C   UNL     1      20.255  11.012 -12.354  0.00  0.00    +0.000 C 
ENDROOT
BRANCH  24  23
ATOM     23  C   UNL     1      19.737  10.167 -11.188  0.00  0.00    +0.000 C 
BRANCH  23  22
ATOM     22  C   UNL     1      18.267   9.815 -11.427  0.00  0.00    +0.000 C 
BRANCH  22  21
ATOM     21  C   UNL     1      17.749   8.970 -10.261  0.00  0.00    +0.000 C 
BRANCH  21  20
ATOM     20  C   UNL     1      16.279   8.618 -10.500  0.00  0.00    +0.000 C 
BRANCH  20  19
ATOM     19  C   UNL     1      15.761   7.774  -9.334  0.00  0.00    +0.000 C 
BRANCH  19  18
ATOM     18  C   UNL     1      14.291   7.422  -9.573  0.00  0.00    +0.000 C 
BRANCH  18  17
ATOM     17  C   UNL     1      13.773   6.577  -8.408  0.00  0.00    +0.000 C 
BRANCH  17  16
ATOM     16  C   UNL     1      12.304   6.225  -8.647  0.00  0.00    +0.000 C 
BRANCH  16  15
ATOM     15  C   UNL     1      11.785   5.380  -7.481  0.00  0.00    +0.000 C 
BRANCH  15  14
ATOM     14  C   UNL     1      10.316   5.028  -7.720  0.00  0.00    +0.001 C 
BRANCH  14  13
ATOM     13  C   UNL     1       9.798   4.183  -6.554  0.00  0.00    +0.001 C 
BRANCH  13  12
ATOM     12  C   UNL     1       8.328   3.831  -6.793  0.00  0.00    +0.006 C 
BRANCH  12  11
ATOM     11  C   UNL     1       7.810   2.987  -5.627  0.00  0.00    +0.009 C 
BRANCH  11  10
ATOM     10  C   UNL     1       6.340   2.635  -5.866  0.00  0.00    +0.023 C 
BRANCH  10   9
ATOM      9  C   UNL     1       5.822   1.790  -4.701  0.00  0.00    +0.159 C 
BRANCH   9   8
ATOM      8  O   UNL     1       4.449   1.461  -4.924  0.00  0.00    -0.390 OA
BRANCH   8   7
ATOM      7  C   UNL     1       3.865   0.669  -3.888  0.00  0.00    +0.170 C 
BRANCH   7   6
ATOM      6  C   UNL     1       2.403   0.379  -4.230  0.00  0.00    +0.088 C 
BRANCH   6   5
ATOM      3  C   UNL     1       0.606  -0.608  -1.056  0.00  0.00    +0.105 A 
ATOM      4  C   UNL     1       1.173   0.159  -2.062  0.00  0.00    -0.057 A 
ATOM      5  C   UNL     1       1.787  -0.456  -3.137  0.00  0.00    -0.052 A 
ATOM     54  C   UNL     1       1.837  -1.836  -3.212  0.00  0.00    -0.004 A 
ATOM     55  C   UNL     1       1.273  -2.606  -2.212  0.00  0.00    +0.034 A 
ATOM     56  C   UNL     1       0.662  -1.996  -1.129  0.00  0.00    +0.072 A 
BRANCH   3   2
ATOM      1  C   UNL     1      -0.017   1.425   0.010  0.00  0.00    +0.239 C 
ATOM      2  O   UNL     1       0.002  -0.004   0.002  0.00  0.00    -0.307 OA
ENDBRANCH   3   2
BRANCH  56  57
ATOM     57  O   UNL     1       0.112  -2.753  -0.142  0.00  0.00    -0.486 OA
ATOM     58  H   UNL     1      -0.816  -2.979  -0.291  0.00  0.00    +0.387 HD
ENDBRANCH  56  57
ENDBRANCH   6   5
ENDBRANCH   7   6
ENDBRANCH   8   7
ENDBRANCH   9   8
ENDBRANCH  10   9
ENDBRANCH  11  10
ENDBRANCH  12  11
ENDBRANCH  13  12
ENDBRANCH  14  13
ENDBRANCH  15  14
ENDBRANCH  16  15
ENDBRANCH  17  16
ENDBRANCH  18  17
ENDBRANCH  19  18
ENDBRANCH  20  19
ENDBRANCH  21  20
ENDBRANCH  22  21
ENDBRANCH  23  22
ENDBRANCH  24  23
BRANCH  24  25
ATOM     25  C   UNL     1      21.724  11.364 -12.115  0.00  0.00    +0.000 C 
BRANCH  25  26
ATOM     26  C   UNL     1      22.243  12.208 -13.280  0.00  0.00    +0.000 C 
BRANCH  26  27
ATOM     27  C   UNL     1      23.712  12.560 -13.041  0.00  0.00    +0.000 C 
BRANCH  27  28
ATOM     28  C   UNL     1      24.230  13.405 -14.207  0.00  0.00    +0.000 C 
BRANCH  28  29
ATOM     29  C   UNL     1      25.700  13.757 -13.968  0.00  0.00    +0.000 C 
BRANCH  29  30
ATOM     30  C   UNL     1      26.218  14.602 -15.134  0.00  0.00    +0.000 C 
BRANCH  30  31
ATOM     31  C   UNL     1      27.688  14.954 -14.895  0.00  0.00    +0.000 C 
BRANCH  31  32
ATOM     32  C   UNL     1      28.206  15.799 -16.061  0.00  0.00    +0.000 C 
BRANCH  32  33
ATOM     33  C   UNL     1      29.676  16.151 -15.822  0.00  0.00    +0.001 C 
BRANCH  33  34
ATOM     34  C   UNL     1      30.194  16.995 -16.988  0.00  0.00    +0.002 C 
BRANCH  34  35
ATOM     35  C   UNL     1      31.663  17.347 -16.749  0.00  0.00    +0.008 C 
BRANCH  35  36
ATOM     36  C   UNL     1      32.182  18.192 -17.914  0.00  0.00    +0.014 C 
BRANCH  36  37
ATOM     37  C   UNL     1      33.651  18.544 -17.675  0.00  0.00    +0.030 C 
BRANCH  37  38
ATOM     38  C   UNL     1      34.169  19.389 -18.841  0.00  0.00    +0.202 C 
BRANCH  38  39
ATOM     39  O   UNL     1      35.542  19.718 -18.618  0.00  0.00    -0.350 OA
BRANCH  39  40
ATOM     40  C   UNL     1      36.154  20.465 -19.560  0.00  0.00    +0.501 C 
ATOM     53  O   UNL     1      35.538  20.827 -20.544  0.00  0.00    -0.514 OA
BRANCH  40  41
ATOM     41  C   UNL     1      37.516  20.828 -19.403  0.00  0.00    -0.060 C 
ATOM     42  C   UNL     1      38.128  21.576 -20.346  0.00  0.00    +0.150 C 
BRANCH  42  43
ATOM     43  C   UNL     1      39.539  21.952 -20.184  0.00  0.00    -0.057 A 
ATOM     44  C   UNL     1      40.252  21.532 -19.055  0.00  0.00    +0.026 A 
ATOM     45  C   UNL     1      41.575  21.887 -18.905  0.00  0.00    +0.033 A 
ATOM     46  C   UNL     1      42.204  22.660 -19.871  0.00  0.00    +0.095 A 
ATOM     49  C   UNL     1      41.501  23.083 -20.999  0.00  0.00    +0.100 A 
ATOM     52  C   UNL     1      40.176  22.727 -21.160  0.00  0.00    -0.026 A 
BRANCH  46  47
ATOM     47  O   UNL     1      43.508  23.007 -19.717  0.00  0.00    -0.485 OA
ATOM     48  H   UNL     1      44.131  22.374 -20.100  0.00  0.00    +0.392 HD
ENDBRANCH  46  47
BRANCH  49  50
ATOM     50  O   UNL     1      42.121  23.840 -21.942  0.00  0.00    -0.306 OA
ATOM     51  C   UNL     1      41.341  24.238 -23.071  0.00  0.00    +0.242 C 
ENDBRANCH  49  50
ENDBRANCH  42  43
ENDBRANCH  40  41
ENDBRANCH  39  40
ENDBRANCH  38  39
ENDBRANCH  37  38
ENDBRANCH  36  37
ENDBRANCH  35  36
ENDBRANCH  34  35
ENDBRANCH  33  34
ENDBRANCH  32  33
ENDBRANCH  31  32
ENDBRANCH  30  31
ENDBRANCH  29  30
ENDBRANCH  28  29
ENDBRANCH  27  28
ENDBRANCH  26  27
ENDBRANCH  25  26
ENDBRANCH  24  25
TORSDOF 41
