REMARK  Name = ZINC95486112
REMARK  17 active torsions:
REMARK  status: ('A' for Active; 'I' for Inactive)
REMARK    1  A    between atoms: C1_1  and  C2_2
REMARK    2  A    between atoms: C5_5  and  O7_47
REMARK    3  A    between atoms: C6_7  and  C29_35
REMARK    4  A    between atoms: C6_7  and  O3_36
REMARK    5  A    between atoms: C10_12  and  C28_34
REMARK    6  A    between atoms: C14_17  and  C27_33
REMARK    7  A    between atoms: C18_21  and  C26_30
REMARK    8  A    between atoms: C21_25  and  C24_28
REMARK    9  A    between atoms: C21_25  and  C25_29
REMARK   10  A    between atoms: O3_36  and  C30_37
REMARK   11  A    between atoms: C30_37  and  O5_39
REMARK   12  A    between atoms: O5_39  and  C31_40
REMARK   13  A    between atoms: C34_43  and  O6_46
REMARK   14  A    between atoms: O7_47  and  C37_48
REMARK   15  A    between atoms: C37_48  and  O9_50
REMARK   16  A    between atoms: O9_50  and  C38_51
REMARK   17  A    between atoms: C41_54  and  O10_57
REMARK                            x       y       z     vdW  Elec       q    Type
REMARK                         _______ _______ _______ _____ _____    ______ ____
ROOT
ATOM      1  C   UNL     1       0.086   1.488  -0.113  0.00  0.00    +0.040 C 
ATOM      2  C   UNL     1       0.096  -0.030  -0.146  0.00  0.00    -0.041 C 
ATOM      3  C   UNL     1      -1.360  -0.518  -0.030  0.00  0.00    +0.038 C 
ATOM      4  C   UNL     1      -1.954  -0.082   1.304  0.00  0.00    +0.014 C 
ATOM      5  C   UNL     1      -1.166  -0.686   2.461  0.00  0.00    +0.180 C 
ATOM     18  C   UNL     1       0.314  -0.297   2.377  0.00  0.00    +0.166 C 
ATOM     31  C   UNL     1       1.054  -1.111   3.457  0.00  0.00    +0.037 C 
ATOM     32  C   UNL     1       0.681  -0.597  -1.438  0.00  0.00    +0.003 C 
ATOM     33  C   UNL     1      -0.094  -0.224  -2.679  0.00  0.00    +0.009 C 
ATOM     34  C   UNL     1       0.407  -0.905  -3.945  0.00  0.00    +0.017 C 
ATOM     35  C   UNL     1       1.649  -1.767  -3.754  0.00  0.00    +0.014 C 
ATOM     36  C   UNL     1       1.220  -3.066  -3.063  0.00  0.00    +0.004 C 
ATOM     37  C   UNL     1       2.644  -1.076  -2.874  0.00  0.00    -0.116 C 
ATOM     38  C   UNL     1       3.920  -1.026  -3.132  0.00  0.00    -0.011 C 
ATOM     39  C   UNL     1       4.499  -1.586  -4.404  0.00  0.00    +0.049 C 
ATOM     40  C   UNL     1       3.439  -1.360  -5.493  0.00  0.00    -0.113 C 
ATOM     44  C   UNL     1       4.002  -1.778  -6.851  0.00  0.00    +0.015 C 
ATOM     45  C   UNL     1       4.372  -3.257  -6.835  0.00  0.00    +0.002 C 
ATOM     46  C   UNL     1       3.145  -4.104  -6.509  0.00  0.00    -0.065 C 
ATOM     47  C   UNL     1       3.584  -5.573  -6.363  0.00  0.00    +0.006 C 
ATOM     48  C   UNL     1       2.116  -4.018  -7.638  0.00  0.00    +0.017 C 
ATOM     49  C   UNL     1       2.513  -3.665  -5.184  0.00  0.00    +0.016 C 
ATOM     50  C   UNL     1       2.207  -2.176  -5.121  0.00  0.00    +0.020 C 
ATOM     51  C   UNL     1       2.172  -0.363  -1.608  0.00  0.00    +0.002 C 
ATOM     52  C   UNL     1       2.540   1.117  -1.795  0.00  0.00    +0.032 C 
ATOM     53  C   UNL     1       2.922  -0.926  -0.400  0.00  0.00    +0.021 C 
ATOM     54  C   UNL     1       2.366  -0.306   0.891  0.00  0.00    +0.025 C 
ATOM     55  C   UNL     1       0.885  -0.641   1.015  0.00  0.00    +0.034 C 
ENDROOT
BRANCH  40  41
ATOM     41  C   UNL     1       3.097   0.108  -5.570  0.00  0.00    +0.513 C 
ATOM     42  O   UNL     1       2.205   0.488  -6.309  0.00  0.00    -0.705 OA
ATOM     43  O   UNL     1       3.712   0.914  -4.892  0.00  0.00    -0.685 OA
ENDBRANCH  40  41
BRANCH   5   6
ATOM      6  O   UNL     1      -1.702  -0.231   3.702  0.00  0.00    -0.287 OA
BRANCH   6   7
ATOM      7  C   UNL     1      -2.679  -0.974   4.254  0.00  0.00    +0.599 C 
ATOM     17  O   UNL     1      -3.065  -1.981   3.695  0.00  0.00    -0.533 OA
BRANCH   7   8
ATOM      8  O   UNL     1      -3.228  -0.601   5.424  0.00  0.00    -0.261 OA
BRANCH   8   9
ATOM      9  C   UNL     1      -4.138  -1.434   5.997  0.00  0.00    +0.087 A 
ATOM     10  C   UNL     1      -3.714  -2.593   6.630  0.00  0.00    +0.038 A 
ATOM     11  C   UNL     1      -4.638  -3.439   7.212  0.00  0.00    +0.009 A 
ATOM     12  C   UNL     1      -5.989  -3.130   7.163  0.00  0.00    +0.115 A 
ATOM     15  C   UNL     1      -6.413  -1.970   6.530  0.00  0.00    +0.010 A 
ATOM     16  C   UNL     1      -5.489  -1.122   5.953  0.00  0.00    +0.046 A 
BRANCH  12  13
ATOM     13  O   UNL     1      -6.899  -3.962   7.736  0.00  0.00    -0.496 OA
ATOM     14  H   UNL     1      -7.088  -3.761   8.663  0.00  0.00    +0.394 HD
ENDBRANCH  12  13
ENDBRANCH   8   9
ENDBRANCH   7   8
ENDBRANCH   6   7
ENDBRANCH   5   6
BRANCH  18  19
ATOM     19  O   UNL     1       0.465   1.087   2.686  0.00  0.00    -0.294 OA
BRANCH  19  20
ATOM     20  C   UNL     1       0.180   1.466   3.945  0.00  0.00    +0.598 C 
ATOM     30  O   UNL     1      -0.085   0.631   4.786  0.00  0.00    -0.495 OA
BRANCH  20  21
ATOM     21  O   UNL     1       0.188   2.772   4.272  0.00  0.00    -0.268 OA
BRANCH  21  22
ATOM     22  C   UNL     1      -0.004   3.104   5.577  0.00  0.00    +0.093 A 
ATOM     23  C   UNL     1       1.021   2.926   6.495  0.00  0.00    +0.036 A 
ATOM     24  C   UNL     1       0.827   3.264   7.820  0.00  0.00    +0.007 A 
ATOM     25  C   UNL     1      -0.392   3.781   8.233  0.00  0.00    +0.113 A 
ATOM     28  C   UNL     1      -1.417   3.959   7.315  0.00  0.00    +0.008 A 
ATOM     29  C   UNL     1      -1.221   3.626   5.989  0.00  0.00    +0.050 A 
BRANCH  25  26
ATOM     26  O   UNL     1      -0.583   4.113   9.537  0.00  0.00    -0.497 OA
ATOM     27  H   UNL     1      -0.348   5.027   9.749  0.00  0.00    +0.393 HD
ENDBRANCH  25  26
ENDBRANCH  21  22
ENDBRANCH  20  21
ENDBRANCH  19  20
ENDBRANCH  18  19
TORSDOF 11
