REMARK  Name = ZINC95486200
REMARK  6 active torsions:
REMARK  status: ('A' for Active; 'I' for Inactive)
REMARK    1  A    between atoms: C1_1  and  C2_2
REMARK    2  A    between atoms: C2_2  and  C9_12
REMARK    3  A    between atoms: C3_3  and  C4_4
REMARK    4  A    between atoms: C4_4  and  C5_6
REMARK    5  A    between atoms: C6_8  and  C7_10
REMARK    6  A    between atoms: C6_8  and  C8_11
REMARK                            x       y       z     vdW  Elec       q    Type
REMARK                         _______ _______ _______ _____ _____    ______ ____
ROOT
ATOM      6  C   UNL     1       0.127   0.006   2.394  0.00  0.00    +0.392 C 
ATOM     12  O   UNL     1      -0.071   1.204   2.414  0.00  0.00    -0.444 OA
ENDROOT
BRANCH   6   7
ATOM      7  C   UNL     1       0.376  -0.739   3.680  0.00  0.00    +0.088 C 
ATOM      8  C   UNL     1       1.827  -1.045   4.058  0.00  0.00    +0.037 C 
ATOM      9  C   UNL     1       2.926  -0.574   3.103  0.00  0.00    +0.087 C 
ATOM     10  C   UNL     1       2.110  -2.349   4.804  0.00  0.00    +0.095 C 
ATOM     11  O   UNL     1       1.054  -0.046   4.730  0.00  0.00    -0.327 OA
ENDBRANCH   6   7
BRANCH   6   5
ATOM      1  C   UNL     1      -0.775   1.357   0.087  0.00  0.00    +0.109 C 
ATOM      2  C   UNL     1      -0.224  -0.044   0.025  0.00  0.00    +0.030 C 
ATOM      5  C   UNL     1       0.125  -0.688   1.168  0.00  0.00    -0.123 C 
BRANCH   2   3
ATOM      3  C   UNL     1      -0.066  -0.710  -1.266  0.00  0.00    -0.030 C 
ATOM      4  C   UNL     1      -0.410  -0.077  -2.391  0.00  0.00    +0.085 C 
ENDBRANCH   2   3
ENDBRANCH   6   5
TORSDOF 3
