REMARK  Name = ZINC95486073
REMARK  8 active torsions:
REMARK  status: ('A' for Active; 'I' for Inactive)
REMARK    1  A    between atoms: C1_1  and  C2_2
REMARK    2  A    between atoms: C5_5  and  O3_37
REMARK    3  A    between atoms: C6_7  and  C29_35
REMARK    4  A    between atoms: C6_7  and  C30_36
REMARK    5  A    between atoms: C10_12  and  C28_34
REMARK    6  A    between atoms: C15_18  and  C27_33
REMARK    7  A    between atoms: C21_25  and  C24_29
REMARK    8  A    between atoms: C21_25  and  C25_30
REMARK                            x       y       z     vdW  Elec       q    Type
REMARK                         _______ _______ _______ _____ _____    ______ ____
ROOT
ATOM      1  C   UNL     1       0.559   2.274  -0.335  0.00  0.00    +0.024 C 
ATOM      2  C   UNL     1       0.458   0.791  -0.003  0.00  0.00    -0.039 C 
ATOM      3  C   UNL     1      -1.022   0.509   0.337  0.00  0.00    +0.020 C 
ATOM      4  C   UNL     1      -1.423   1.363   1.538  0.00  0.00    -0.023 C 
ATOM      5  C   UNL     1      -0.604   0.982   2.763  0.00  0.00    +0.165 C 
ATOM      8  C   UNL     1       0.902   1.011   2.513  0.00  0.00    -0.039 C 
ATOM      9  C   UNL     1       1.543   0.179   3.654  0.00  0.00    +0.015 C 
ATOM     10  C   UNL     1       1.433   2.437   2.654  0.00  0.00    +0.033 C 
ATOM     11  C   UNL     1       0.837  -0.075  -1.220  0.00  0.00    +0.037 C 
ATOM     12  C   UNL     1       0.317  -1.484  -0.906  0.00  0.00    +0.010 C 
ATOM     13  C   UNL     1       0.674  -2.478  -1.999  0.00  0.00    +0.028 C 
ATOM     14  C   UNL     1       1.387  -1.785  -3.146  0.00  0.00    +0.142 C 
ATOM     15  C   UNL     1       2.646  -1.067  -2.685  0.00  0.00    -0.041 C 
ATOM     16  C   UNL     1       3.718  -2.061  -2.226  0.00  0.00    +0.032 C 
ATOM     17  C   UNL     1       3.184  -0.256  -3.878  0.00  0.00    +0.040 C 
ATOM     18  C   UNL     1       3.267  -1.139  -5.134  0.00  0.00    +0.033 C 
ATOM     19  C   UNL     1       1.888  -1.720  -5.426  0.00  0.00    -0.149 C 
ATOM     20  C   UNL     1       0.806  -0.678  -5.151  0.00  0.00    +0.217 C 
ATOM     21  C   UNL     1       1.840  -2.440  -6.728  0.00  0.00    +0.385 C 
ATOM     22  O   UNL     1       1.145  -2.052  -7.644  0.00  0.00    -0.448 OA
ATOM     23  C   UNL     1       2.705  -3.683  -6.851  0.00  0.00    +0.033 C 
ATOM     24  C   UNL     1       2.517  -4.608  -5.651  0.00  0.00    -0.057 C 
ATOM     25  C   UNL     1       3.648  -5.646  -5.663  0.00  0.00    +0.034 C 
ATOM     26  C   UNL     1       1.186  -5.343  -5.767  0.00  0.00    +0.027 C 
ATOM     27  C   UNL     1       2.588  -3.837  -4.320  0.00  0.00    +0.060 C 
ATOM     28  O   UNL     1       0.505  -0.784  -3.738  0.00  0.00    -0.363 OA
ATOM     29  C   UNL     1       1.560  -2.751  -4.310  0.00  0.00    -0.012 C 
ATOM     30  C   UNL     1       2.327  -0.109  -1.517  0.00  0.00    -0.022 C 
ATOM     31  C   UNL     1       2.857   1.280  -1.915  0.00  0.00    +0.019 C 
ATOM     32  C   UNL     1       3.095  -0.517  -0.255  0.00  0.00    +0.017 C 
ATOM     33  C   UNL     1       2.773   0.463   0.890  0.00  0.00    +0.009 C 
ATOM     34  C   UNL     1       1.284   0.366   1.198  0.00  0.00    +0.002 C 
ENDROOT
BRANCH   5   6
ATOM      6  O   UNL     1      -0.914   1.882   3.835  0.00  0.00    -0.566 OA
ATOM      7  H   UNL     1      -1.845   1.876   4.098  0.00  0.00    +0.374 HD
ENDBRANCH   5   6
TORSDOF 1
