REMARK  Name = ZINC95486258
REMARK  10 active torsions:
REMARK  status: ('A' for Active; 'I' for Inactive)
REMARK    1  A    between atoms: C5_5  and  O1_7
REMARK    2  A    between atoms: C11_13  and  C14_17
REMARK    3  A    between atoms: C13_15  and  O3_16
REMARK    4  A    between atoms: C14_17  and  O4_18
REMARK    5  A    between atoms: C15_19  and  C16_21
REMARK    6  A    between atoms: C16_21  and  O9_34
REMARK    7  A    between atoms: C18_23  and  O8_33
REMARK    8  A    between atoms: C19_25  and  O7_32
REMARK    9  A    between atoms: C20_27  and  C21_30
REMARK   10  A    between atoms: C21_30  and  O6_31
REMARK                            x       y       z     vdW  Elec       q    Type
REMARK                         _______ _______ _______ _____ _____    ______ ____
ROOT
ATOM      1  C   UNL     1       0.092   1.375   0.004  0.00  0.00    +0.067 A 
ATOM      2  C   UNL     1       1.266   2.107  -0.013  0.00  0.00    +0.002 A 
ATOM      3  C   UNL     1       2.494   1.469  -0.037  0.00  0.00    -0.035 A 
ATOM      4  C   UNL     1       2.531   0.074  -0.040  0.00  0.00    -0.177 A 
ATOM      5  C   UNL     1       3.834  -0.621  -0.042  0.00  0.00    +0.438 C 
ATOM      6  C   UNL     1       5.029   0.157   0.345  0.00  0.00    -0.170 A 
ATOM      7  C   UNL     1       4.973   1.551   0.346  0.00  0.00    -0.009 A 
ATOM      8  C   UNL     1       6.094   2.266   0.727  0.00  0.00    +0.047 A 
ATOM      9  C   UNL     1       7.257   1.612   1.091  0.00  0.00    -0.045 A 
ATOM     13  C   UNL     1       7.321   0.233   1.083  0.00  0.00    +0.002 A 
ATOM     14  C   UNL     1       6.207  -0.506   0.710  0.00  0.00    +0.161 A 
ATOM     17  O   UNL     1       3.921  -1.794  -0.353  0.00  0.00    -0.414 OA
ATOM     18  C   UNL     1       1.342  -0.667  -0.028  0.00  0.00    +0.168 A 
ATOM     21  C   UNL     1       3.741   2.298  -0.068  0.00  0.00    +0.095 C 
ATOM     37  C   UNL     1       0.123  -0.005  -0.004  0.00  0.00    -0.009 A 
ENDROOT
BRANCH  21  22
ATOM     22  C   UNL     1       3.944   2.825  -1.490  0.00  0.00    +0.312 C 
ATOM     25  C   UNL     1       2.803   3.781  -1.848  0.00  0.00    +0.023 C 
ATOM     26  C   UNL     1       3.045   4.349  -3.249  0.00  0.00    +0.151 C 
ATOM     29  C   UNL     1       4.412   5.039  -3.280  0.00  0.00    +0.127 C 
ATOM     32  C   UNL     1       5.491   4.035  -2.867  0.00  0.00    +0.226 C 
ATOM     36  O   UNL     1       5.189   3.521  -1.568  0.00  0.00    -0.324 OA
BRANCH  22  23
ATOM     23  O   UNL     1       3.953   1.729  -2.407  0.00  0.00    -0.547 OA
ATOM     24  H   UNL     1       3.168   1.166  -2.356  0.00  0.00    +0.378 HD
ENDBRANCH  22  23
BRANCH  26  27
ATOM     27  O   UNL     1       2.022   5.297  -3.563  0.00  0.00    -0.559 OA
ATOM     28  H   UNL     1       2.113   5.698  -4.439  0.00  0.00    +0.380 HD
ENDBRANCH  26  27
BRANCH  29  30
ATOM     30  O   UNL     1       4.679   5.512  -4.602  0.00  0.00    -0.554 OA
ATOM     31  H   UNL     1       4.031   6.150  -4.930  0.00  0.00    +0.381 HD
ENDBRANCH  29  30
BRANCH  32  33
ATOM     33  C   UNL     1       5.529   2.884  -3.874  0.00  0.00    +0.182 C 
BRANCH  33  34
ATOM     34  O   UNL     1       6.527   1.940  -3.481  0.00  0.00    -0.558 OA
ATOM     35  H   UNL     1       6.607   1.181  -4.075  0.00  0.00    +0.375 HD
ENDBRANCH  33  34
ENDBRANCH  32  33
ENDBRANCH  21  22
BRANCH  14  15
ATOM     15  O   UNL     1       6.259  -1.861   0.700  0.00  0.00    -0.484 OA
ATOM     16  H   UNL     1       6.544  -2.238  -0.144  0.00  0.00    +0.398 HD
ENDBRANCH  14  15
BRANCH  18  19
ATOM     19  O   UNL     1       1.383  -2.023  -0.039  0.00  0.00    -0.478 OA
ATOM     20  H   UNL     1       1.408  -2.423   0.841  0.00  0.00    +0.398 HD
ENDBRANCH  18  19
BRANCH   9  10
ATOM     10  C   UNL     1       8.466   2.412   1.502  0.00  0.00    +0.234 C 
BRANCH  10  11
ATOM     11  O   UNL     1       8.432   2.638   2.913  0.00  0.00    -0.566 OA
ATOM     12  H   UNL     1       9.181   3.149   3.248  0.00  0.00    +0.384 HD
ENDBRANCH  10  11
ENDBRANCH   9  10
TORSDOF 10
