REMARK  Name = ZINC95486339
REMARK  10 active torsions:
REMARK  status: ('A' for Active; 'I' for Inactive)
REMARK    1  A    between atoms: C3_3  and  C7_9
REMARK    2  A    between atoms: C4_4  and  O2_8
REMARK    3  A    between atoms: C5_5  and  O1_7
REMARK    4  A    between atoms: C8_11  and  O7_24
REMARK    5  A    between atoms: C11_16  and  O6_23
REMARK    6  A    between atoms: C13_18  and  O5_22
REMARK    7  A    between atoms: O7_24  and  C16_25
REMARK    8  A    between atoms: C17_27  and  O11_37
REMARK    9  A    between atoms: C18_29  and  O10_36
REMARK   10  A    between atoms: C19_31  and  O9_35
REMARK                            x       y       z     vdW  Elec       q    Type
REMARK                         _______ _______ _______ _____ _____    ______ ____
ROOT
ATOM      4  C   UNL     1       3.670   2.198  -0.023  0.00  0.00    +0.301 C 
ATOM      5  C   UNL     1       4.223   2.256  -1.454  0.00  0.00    +0.144 C 
ATOM     19  C   UNL     1       3.193   2.975  -2.306  0.00  0.00    +0.396 C 
ATOM     20  C   UNL     1       2.530   4.133  -1.696  0.00  0.00    -0.281 A 
ATOM     21  C   UNL     1       1.760   5.010  -2.476  0.00  0.00    +0.225 A 
ATOM     24  C   UNL     1       1.136   6.088  -1.874  0.00  0.00    -0.073 A 
ATOM     25  C   UNL     1       1.275   6.299  -0.507  0.00  0.00    +0.198 A 
ATOM     28  C   UNL     1       2.041   5.437   0.268  0.00  0.00    -0.056 A 
ATOM     29  C   UNL     1       2.675   4.354  -0.314  0.00  0.00    +0.211 A 
ATOM     30  O   UNL     1       2.930   2.610  -3.433  0.00  0.00    -0.406 OA
ATOM     31  O   UNL     1       3.430   3.525   0.446  0.00  0.00    -0.283 OA
ENDROOT
BRANCH   4   3
ATOM      1  C   UNL     1      -0.017   1.378   0.000  0.00  0.00    +0.033 A 
ATOM      2  C   UNL     1       1.169   2.089  -0.007  0.00  0.00    +0.032 A 
ATOM      3  C   UNL     1       2.379   1.420  -0.014  0.00  0.00    -0.144 A 
ATOM     32  C   UNL     1       2.405   0.035  -0.012  0.00  0.00    +0.101 A 
ATOM     35  C   UNL     1       1.211  -0.680  -0.004  0.00  0.00    +0.087 A 
ATOM     38  C   UNL     1       0.002  -0.004   0.002  0.00  0.00    +0.022 A 
BRANCH  32  33
ATOM     33  O   UNL     1       3.595  -0.625  -0.018  0.00  0.00    -0.485 OA
ATOM     34  H   UNL     1       3.944  -0.814   0.864  0.00  0.00    +0.392 HD
ENDBRANCH  32  33
BRANCH  35  36
ATOM     36  O   UNL     1       1.232  -2.040  -0.002  0.00  0.00    -0.484 OA
ATOM     37  H   UNL     1       1.243  -2.433   0.881  0.00  0.00    +0.391 HD
ENDBRANCH  35  36
ENDBRANCH   4   3
BRANCH  21  22
ATOM     22  O   UNL     1       1.629   4.803  -3.810  0.00  0.00    -0.476 OA
ATOM     23  H   UNL     1       0.876   4.246  -4.049  0.00  0.00    +0.402 HD
ENDBRANCH  21  22
BRANCH  25  26
ATOM     26  O   UNL     1       0.657   7.357   0.075  0.00  0.00    -0.489 OA
ATOM     27  H   UNL     1      -0.235   7.164   0.394  0.00  0.00    +0.402 HD
ENDBRANCH  25  26
BRANCH   5   6
ATOM      6  O   UNL     1       5.458   2.975  -1.470  0.00  0.00    -0.329 OA
BRANCH   6   7
ATOM      7  C   UNL     1       6.365   2.551  -2.489  0.00  0.00    +0.289 C 
ATOM      8  C   UNL     1       7.731   3.205  -2.261  0.00  0.00    +0.190 C 
ATOM     11  C   UNL     1       8.680   2.793  -3.390  0.00  0.00    +0.203 C 
ATOM     14  C   UNL     1       8.061   3.192  -4.734  0.00  0.00    +0.125 C 
ATOM     17  C   UNL     1       6.683   2.539  -4.866  0.00  0.00    +0.215 C 
ATOM     18  O   UNL     1       5.860   2.939  -3.768  0.00  0.00    -0.377 OA
BRANCH   8   9
ATOM      9  O   UNL     1       7.584   4.626  -2.253  0.00  0.00    -0.536 OA
ATOM     10  H   UNL     1       6.992   4.957  -1.564  0.00  0.00    +0.387 HD
ENDBRANCH   8   9
BRANCH  11  12
ATOM     12  O   UNL     1       9.935   3.455  -3.225  0.00  0.00    -0.544 OA
ATOM     13  H   UNL     1      10.586   3.239  -3.906  0.00  0.00    +0.389 HD
ENDBRANCH  11  12
BRANCH  14  15
ATOM     15  O   UNL     1       8.905   2.749  -5.798  0.00  0.00    -0.562 OA
ATOM     16  H   UNL     1       8.574   2.968  -6.680  0.00  0.00    +0.388 HD
ENDBRANCH  14  15
ENDBRANCH   6   7
ENDBRANCH   5   6
TORSDOF 10
