REMARK  Name = ZINC01663628
REMARK  8 active torsions:
REMARK  status: ('A' for Active; 'I' for Inactive)
REMARK    1  A    between atoms: C1_1  and  O1_2
REMARK    2  A    between atoms: O1_2  and  C2_3
REMARK    3  A    between atoms: C6_7  and  O3_11
REMARK    4  A    between atoms: C7_8  and  O2_9
REMARK    5  A    between atoms: O2_9  and  C8_10
REMARK    6  A    between atoms: C10_14  and  C12_18
REMARK    7  A    between atoms: C12_18  and  C13_19
REMARK    8  A    between atoms: C16_22  and  O6_25
REMARK                            x       y       z     vdW  Elec       q    Type
REMARK                         _______ _______ _______ _____ _____    ______ ____
ROOT
ATOM      3  C   UNL     1      -1.470   4.805  -2.606  0.00  0.00    +0.197 A 
ATOM      4  C   UNL     1      -1.194   3.448  -2.493  0.00  0.00    -0.102 A 
ATOM      5  C   UNL     1      -0.967   2.884  -1.250  0.00  0.00    +0.231 A 
ATOM      6  C   UNL     1      -1.013   3.700  -0.104  0.00  0.00    -0.304 A 
ATOM      7  C   UNL     1      -0.753   3.099   1.209  0.00  0.00    +0.403 C 
ATOM      8  C   UNL     1      -0.733   1.582   1.271  0.00  0.00    -0.049 C 
ATOM     18  C   UNL     1      -0.013   1.086   0.008  0.00  0.00    +0.276 C 
ATOM     19  O   UNL     1      -0.564   3.779   2.196  0.00  0.00    -0.416 OA
ATOM     20  C   UNL     1      -1.298   5.069  -0.220  0.00  0.00    +0.224 A 
ATOM     23  O   UNL     1      -0.704   1.559  -1.148  0.00  0.00    -0.299 OA
ATOM     24  C   UNL     1      -1.524   5.614  -1.475  0.00  0.00    -0.010 A 
ENDROOT
BRANCH   3   2
ATOM      1  C   UNL     1      -1.619   4.463  -4.953  0.00  0.00    +0.253 C 
ATOM      2  O   UNL     1      -1.689   5.346  -3.831  0.00  0.00    -0.293 OA
ENDBRANCH   3   2
BRANCH  20  21
ATOM     21  O   UNL     1      -1.353   5.852   0.886  0.00  0.00    -0.460 OA
ATOM     22  H   UNL     1      -2.232   5.906   1.287  0.00  0.00    +0.396 HD
ENDBRANCH  20  21
BRANCH  24  25
ATOM     25  O   UNL     1      -1.800   6.942  -1.600  0.00  0.00    -0.308 OA
ATOM     26  C   UNL     1      -3.175   7.328  -1.543  0.00  0.00    +0.217 C 
ENDBRANCH  24  25
BRANCH   8   9
ATOM      9  C   UNL     1      -2.164   1.043   1.300  0.00  0.00    +0.110 C 
BRANCH   9  10
ATOM     10  C   UNL     1      -2.822   1.432   2.599  0.00  0.00    -0.100 A 
ATOM     11  C   UNL     1      -2.735   0.594   3.695  0.00  0.00    +0.034 A 
ATOM     12  C   UNL     1      -3.332   0.951   4.888  0.00  0.00    -0.012 A 
ATOM     13  C   UNL     1      -4.029   2.147   4.983  0.00  0.00    +0.107 A 
ATOM     16  C   UNL     1      -4.119   2.984   3.880  0.00  0.00    -0.011 A 
ATOM     17  C   UNL     1      -3.515   2.625   2.691  0.00  0.00    +0.025 A 
BRANCH  13  14
ATOM     14  O   UNL     1      -4.622   2.498   6.154  0.00  0.00    -0.499 OA
ATOM     15  H   UNL     1      -5.534   2.188   6.241  0.00  0.00    +0.391 HD
ENDBRANCH  13  14
ENDBRANCH   9  10
ENDBRANCH   8   9
TORSDOF 6
