REMARK  Name = ZINC95486317
REMARK  9 active torsions:
REMARK  status: ('A' for Active; 'I' for Inactive)
REMARK    1  A    between atoms: C1_1  and  C2_2
REMARK    2  A    between atoms: C7_8  and  C12_16
REMARK    3  A    between atoms: C8_9  and  O1_15
REMARK    4  A    between atoms: C10_11  and  C11_14
REMARK    5  A    between atoms: C17_21  and  O4_29
REMARK    6  A    between atoms: C19_23  and  O3_27
REMARK    7  A    between atoms: C21_25  and  O2_26
REMARK    8  A    between atoms: O3_27  and  C22_28
REMARK    9  A    between atoms: O4_29  and  C23_30
REMARK                            x       y       z     vdW  Elec       q    Type
REMARK                         _______ _______ _______ _____ _____    ______ ____
ROOT
ATOM      1  C   UNL     1      -0.019   1.526   0.010  0.00  0.00    +0.094 C 
ATOM      2  C   UNL     1       0.002  -0.004   0.002  0.00  0.00    +0.167 C 
ATOM      3  C   UNL     1      -1.431  -0.537   0.022  0.00  0.00    +0.132 C 
ATOM      4  C   UNL     1      -1.418  -2.029   0.242  0.00  0.00    -0.076 A 
ATOM      5  C   UNL     1      -2.567  -2.751  -0.048  0.00  0.00    +0.029 A 
ATOM      6  C   UNL     1      -2.604  -4.116   0.140  0.00  0.00    +0.081 A 
ATOM      7  C   UNL     1      -1.478  -4.778   0.627  0.00  0.00    -0.022 A 
ATOM     24  C   UNL     1      -0.322  -4.049   0.918  0.00  0.00    +0.143 A 
ATOM     27  C   UNL     1      -0.297  -2.674   0.722  0.00  0.00    -0.155 A 
ATOM     28  C   UNL     1       0.972  -1.927   1.040  0.00  0.00    +0.236 C 
ATOM     29  C   UNL     1       1.974  -2.126  -0.099  0.00  0.00    +0.093 C 
ATOM     30  N   UNL     1       0.705  -0.495   1.197  0.00  0.00    -0.501 N 
ATOM     31  H   UNL     1       0.129  -0.349   2.012  0.00  0.00    +0.430 HD
ATOM     32  H   UNL     1       1.576   0.003   1.305  0.00  0.00    +0.431 HD
ENDROOT
BRANCH   7   8
ATOM      8  C   UNL     1      -1.507  -6.243   0.835  0.00  0.00    -0.142 A 
ATOM      9  C   UNL     1      -1.921  -6.778   2.078  0.00  0.00    +0.059 A 
ATOM     10  C   UNL     1      -2.311  -5.939   3.133  0.00  0.00    -0.045 A 
ATOM     11  C   UNL     1      -2.707  -6.478   4.321  0.00  0.00    +0.085 A 
ATOM     12  C   UNL     1      -2.732  -7.857   4.509  0.00  0.00    -0.107 A 
ATOM     13  C   UNL     1      -2.356  -8.712   3.497  0.00  0.00    +0.180 A 
ATOM     16  C   UNL     1      -1.943  -8.182   2.259  0.00  0.00    -0.109 A 
ATOM     17  C   UNL     1      -1.553  -9.027   1.200  0.00  0.00    +0.206 A 
ATOM     20  C   UNL     1      -1.154  -8.484  -0.001  0.00  0.00    -0.132 A 
ATOM     21  C   UNL     1      -1.133  -7.103  -0.190  0.00  0.00    +0.190 A 
BRANCH  13  14
ATOM     14  O   UNL     1      -2.384 -10.056   3.691  0.00  0.00    -0.289 OA
ATOM     15  C   UNL     1      -2.813 -10.517   4.973  0.00  0.00    +0.247 C 
ENDBRANCH  13  14
BRANCH  17  18
ATOM     18  O   UNL     1      -1.570 -10.374   1.364  0.00  0.00    -0.283 OA
ATOM     19  C   UNL     1      -1.162 -11.169   0.249  0.00  0.00    +0.249 C 
ENDBRANCH  17  18
BRANCH  21  22
ATOM     22  O   UNL     1      -0.740  -6.593  -1.386  0.00  0.00    -0.490 OA
ATOM     23  H   UNL     1       0.210  -6.422  -1.447  0.00  0.00    +0.389 HD
ENDBRANCH  21  22
ENDBRANCH   7   8
BRANCH  24  25
ATOM     25  O   UNL     1       0.780  -4.686   1.393  0.00  0.00    -0.484 OA
ATOM     26  H   UNL     1       1.385  -4.994   0.704  0.00  0.00    +0.392 HD
ENDBRANCH  24  25
TORSDOF 5
