REMARK  Name = ZINC95486337
REMARK  36 active torsions:
REMARK  status: ('A' for Active; 'I' for Inactive)
REMARK    1  A    between atoms: C1_1  and  O1_2
REMARK    2  A    between atoms: O1_2  and  C2_3
REMARK    3  A    between atoms: C4_5  and  C8_10
REMARK    4  A    between atoms: C7_8  and  O2_9
REMARK    5  A    between atoms: C9_11  and  C10_12
REMARK    6  A    between atoms: C10_12  and  O4_14
REMARK    7  A    between atoms: O4_14  and  C11_15
REMARK    8  A    between atoms: C11_15  and  C12_16
REMARK    9  A    between atoms: C12_16  and  C13_17
REMARK   10  A    between atoms: C13_17  and  C14_18
REMARK   11  A    between atoms: C14_18  and  C15_19
REMARK   12  A    between atoms: C15_19  and  C16_20
REMARK   13  A    between atoms: C16_20  and  C17_21
REMARK   14  A    between atoms: C17_21  and  C18_22
REMARK   15  A    between atoms: C18_22  and  C19_23
REMARK   16  A    between atoms: C19_23  and  C20_24
REMARK   17  A    between atoms: C20_24  and  C21_25
REMARK   18  A    between atoms: C21_25  and  C22_26
REMARK   19  A    between atoms: C22_26  and  C23_27
REMARK   20  A    between atoms: C23_27  and  C24_28
REMARK   21  A    between atoms: C24_28  and  C25_29
REMARK   22  A    between atoms: C25_29  and  C26_30
REMARK   23  A    between atoms: C26_30  and  C27_31
REMARK   24  A    between atoms: C27_31  and  C28_32
REMARK   25  A    between atoms: C28_32  and  C29_33
REMARK   26  A    between atoms: C29_33  and  C30_34
REMARK   27  A    between atoms: C30_34  and  C31_35
REMARK   28  A    between atoms: C31_35  and  C32_36
REMARK   29  A    between atoms: C32_36  and  C33_37
REMARK   30  A    between atoms: C33_37  and  C34_38
REMARK   31  A    between atoms: C34_38  and  O6_40
REMARK   32  A    between atoms: O6_40  and  C35_41
REMARK   33  A    between atoms: C35_41  and  C36_42
REMARK   34  A    between atoms: C36_42  and  C37_44
REMARK   35  A    between atoms: C36_42  and  O8_46
REMARK   36  A    between atoms: C37_44  and  O7_45
REMARK                            x       y       z     vdW  Elec       q    Type
REMARK                         _______ _______ _______ _____ _____    ______ ____
ROOT
ATOM     18  C   UNL     1       9.915   0.776  16.906  0.00  0.00    +0.000 C 
ENDROOT
BRANCH  18  17
ATOM     17  C   UNL     1       9.301  -0.121  15.828  0.00  0.00    +0.000 C 
BRANCH  17  16
ATOM     16  C   UNL     1       8.650   0.750  14.751  0.00  0.00    +0.000 C 
BRANCH  16  15
ATOM     15  C   UNL     1       8.036  -0.147  13.674  0.00  0.00    +0.001 C 
BRANCH  15  14
ATOM     14  C   UNL     1       7.385   0.724  12.597  0.00  0.00    +0.002 C 
BRANCH  14  13
ATOM     13  C   UNL     1       6.771  -0.173  11.520  0.00  0.00    +0.008 C 
BRANCH  13  12
ATOM     12  C   UNL     1       6.120   0.698  10.443  0.00  0.00    +0.014 C 
BRANCH  12  11
ATOM     11  C   UNL     1       5.506  -0.199   9.365  0.00  0.00    +0.030 C 
BRANCH  11  10
ATOM     10  C   UNL     1       4.855   0.671   8.288  0.00  0.00    +0.202 C 
BRANCH  10   9
ATOM      9  O   UNL     1       4.282  -0.166   7.282  0.00  0.00    -0.350 OA
BRANCH   9   8
ATOM      8  C   UNL     1       3.664   0.450   6.252  0.00  0.00    +0.501 C 
ATOM     43  O   UNL     1       3.614   1.665   6.211  0.00  0.00    -0.514 OA
BRANCH   8   7
ATOM      6  C   UNL     1       2.454   0.297   4.187  0.00  0.00    +0.150 C 
ATOM      7  C   UNL     1       3.073  -0.319   5.218  0.00  0.00    -0.060 C 
BRANCH   6   5
ATOM      3  C   UNL     1       0.626  -0.619   1.042  0.00  0.00    +0.100 A 
ATOM      4  C   UNL     1       1.200   0.136   2.047  0.00  0.00    -0.026 A 
ATOM      5  C   UNL     1       1.841  -0.500   3.116  0.00  0.00    -0.057 A 
ATOM     44  C   UNL     1       1.898  -1.898   3.160  0.00  0.00    +0.026 A 
ATOM     45  C   UNL     1       1.323  -2.643   2.154  0.00  0.00    +0.033 A 
ATOM     46  C   UNL     1       0.682  -2.011   1.097  0.00  0.00    +0.095 A 
BRANCH   3   2
ATOM      1  C   UNL     1      -0.017   1.425   0.010  0.00  0.00    +0.242 C 
ATOM      2  O   UNL     1       0.002  -0.004   0.002  0.00  0.00    -0.306 OA
ENDBRANCH   3   2
BRANCH  46  47
ATOM     47  O   UNL     1       0.113  -2.751   0.111  0.00  0.00    -0.485 OA
ATOM     48  H   UNL     1       0.708  -2.953  -0.624  0.00  0.00    +0.392 HD
ENDBRANCH  46  47
ENDBRANCH   6   5
ENDBRANCH   8   7
ENDBRANCH   9   8
ENDBRANCH  10   9
ENDBRANCH  11  10
ENDBRANCH  12  11
ENDBRANCH  13  12
ENDBRANCH  14  13
ENDBRANCH  15  14
ENDBRANCH  16  15
ENDBRANCH  17  16
ENDBRANCH  18  17
BRANCH  18  19
ATOM     19  C   UNL     1      10.566  -0.095  17.983  0.00  0.00    +0.000 C 
BRANCH  19  20
ATOM     20  C   UNL     1      11.180   0.802  19.060  0.00  0.00    +0.000 C 
BRANCH  20  21
ATOM     21  C   UNL     1      11.831  -0.068  20.137  0.00  0.00    +0.000 C 
BRANCH  21  22
ATOM     22  C   UNL     1      12.445   0.828  21.215  0.00  0.00    +0.000 C 
BRANCH  22  23
ATOM     23  C   UNL     1      13.096  -0.042  22.291  0.00  0.00    +0.000 C 
BRANCH  23  24
ATOM     24  C   UNL     1      13.710   0.854  23.369  0.00  0.00    +0.000 C 
BRANCH  24  25
ATOM     25  C   UNL     1      14.361  -0.016  24.446  0.00  0.00    -0.000 C 
BRANCH  25  26
ATOM     26  C   UNL     1      14.975   0.880  25.523  0.00  0.00    +0.000 C 
BRANCH  26  27
ATOM     27  C   UNL     1      15.627   0.010  26.600  0.00  0.00    +0.000 C 
BRANCH  27  28
ATOM     28  C   UNL     1      16.240   0.906  27.678  0.00  0.00    +0.002 C 
BRANCH  28  29
ATOM     29  C   UNL     1      16.892   0.036  28.755  0.00  0.00    +0.005 C 
BRANCH  29  30
ATOM     30  C   UNL     1      17.505   0.932  29.832  0.00  0.00    +0.010 C 
BRANCH  30  31
ATOM     31  C   UNL     1      18.157   0.062  30.909  0.00  0.00    +0.034 C 
BRANCH  31  32
ATOM     32  C   UNL     1      18.770   0.958  31.986  0.00  0.00    +0.102 C 
BRANCH  32  33
ATOM     33  C   UNL     1      19.412   0.101  33.047  0.00  0.00    +0.460 C 
ATOM     42  O   UNL     1      19.381  -1.103  32.951  0.00  0.00    -0.507 OA
BRANCH  33  34
ATOM     34  O   UNL     1      20.017   0.675  34.099  0.00  0.00    -0.342 OA
BRANCH  34  35
ATOM     35  C   UNL     1      20.604  -0.198  35.066  0.00  0.00    +0.190 C 
BRANCH  35  36
ATOM     36  C   UNL     1      21.242   0.632  36.182  0.00  0.00    +0.227 C 
BRANCH  36  37
ATOM     37  O   UNL     1      20.224   1.346  36.885  0.00  0.00    -0.542 OA
ATOM     38  H   UNL     1      19.558   0.778  37.297  0.00  0.00    +0.374 HD
ENDBRANCH  36  37
BRANCH  36  39
ATOM     39  C   UNL     1      21.977  -0.296  37.151  0.00  0.00    +0.162 C 
BRANCH  39  40
ATOM     40  O   UNL     1      22.669   0.486  38.126  0.00  0.00    -0.561 OA
ATOM     41  H   UNL     1      23.159  -0.038  38.775  0.00  0.00    +0.385 HD
ENDBRANCH  39  40
ENDBRANCH  36  39
ENDBRANCH  35  36
ENDBRANCH  34  35
ENDBRANCH  33  34
ENDBRANCH  32  33
ENDBRANCH  31  32
ENDBRANCH  30  31
ENDBRANCH  29  30
ENDBRANCH  28  29
ENDBRANCH  27  28
ENDBRANCH  26  27
ENDBRANCH  25  26
ENDBRANCH  24  25
ENDBRANCH  23  24
ENDBRANCH  22  23
ENDBRANCH  21  22
ENDBRANCH  20  21
ENDBRANCH  19  20
ENDBRANCH  18  19
TORSDOF 35
