REMARK  Name = ZINC95486213
REMARK  15 active torsions:
REMARK  status: ('A' for Active; 'I' for Inactive)
REMARK    1  A    between atoms: C1_1  and  C2_2
REMARK    2  A    between atoms: C2_2  and  C3_4
REMARK    3  A    between atoms: C2_2  and  O7_27
REMARK    4  A    between atoms: C3_4  and  C4_6
REMARK    5  A    between atoms: C3_4  and  O5_23
REMARK    6  A    between atoms: C4_6  and  C5_8
REMARK    7  A    between atoms: C4_6  and  O3_19
REMARK    8  A    between atoms: C5_8  and  C6_9
REMARK    9  A    between atoms: C7_10  and  C8_11
REMARK   10  A    between atoms: O3_19  and  C13_20
REMARK   11  A    between atoms: C13_20  and  C14_22
REMARK   12  A    between atoms: O5_23  and  C15_24
REMARK   13  A    between atoms: C15_24  and  C16_26
REMARK   14  A    between atoms: O7_27  and  C17_28
REMARK   15  A    between atoms: C17_28  and  C18_30
REMARK                            x       y       z     vdW  Elec       q    Type
REMARK                         _______ _______ _______ _____ _____    ______ ____
ROOT
ATOM     12  C   UNL     1       0.763  -2.041   1.233  0.00  0.00    +0.173 C 
ENDROOT
BRANCH  12   7
ATOM      7  C   UNL     1       0.742  -0.511   1.242  0.00  0.00    +0.207 C 
BRANCH   7   2
ATOM      1  C   UNL     1      -0.019   1.526   0.010  0.00  0.00    +0.051 C 
ATOM      2  C   UNL     1       0.002  -0.004   0.002  0.00  0.00    +0.185 C 
BRANCH   2   3
ATOM      3  O   UNL     1      -1.339  -0.499   0.012  0.00  0.00    -0.329 OA
BRANCH   3   4
ATOM      4  C   UNL     1      -1.922  -0.703  -1.179  0.00  0.00    +0.457 C 
ATOM      5  C   UNL     1      -3.334  -1.224  -1.248  0.00  0.00    +0.159 C 
ATOM      6  O   UNL     1      -1.314  -0.470  -2.197  0.00  0.00    -0.507 OA
ENDBRANCH   3   4
ENDBRANCH   2   3
ENDBRANCH   7   2
BRANCH   7   8
ATOM      8  O   UNL     1       2.083  -0.016   1.231  0.00  0.00    -0.333 OA
BRANCH   8   9
ATOM      9  C   UNL     1       2.666   0.188   2.423  0.00  0.00    +0.458 C 
ATOM     10  C   UNL     1       4.078   0.709   2.491  0.00  0.00    +0.167 C 
ATOM     11  O   UNL     1       2.058  -0.045   3.441  0.00  0.00    -0.495 OA
ENDBRANCH   8   9
ENDBRANCH   7   8
ENDBRANCH  12   7
BRANCH  12  13
ATOM     13  O   UNL     1      -0.578  -2.535   1.243  0.00  0.00    -0.323 OA
BRANCH  13  14
ATOM     14  C   UNL     1      -0.797  -3.715   0.641  0.00  0.00    +0.454 C 
ATOM     15  C   UNL     1      -2.185  -4.300   0.612  0.00  0.00    +0.158 C 
ATOM     16  O   UNL     1       0.120  -4.308   0.122  0.00  0.00    -0.504 OA
ENDBRANCH  13  14
ENDBRANCH  12  13
BRANCH  12  17
ATOM     17  C   UNL     1       1.503  -2.548   2.473  0.00  0.00    +0.075 C 
BRANCH  17  18
ATOM     18  C   UNL     1       1.631  -4.048   2.403  0.00  0.00    -0.001 C 
ATOM     19  C   UNL     1       2.811  -4.609   2.496  0.00  0.00    -0.034 C 
BRANCH  19  20
ATOM     20  C   UNL     1       2.938  -6.109   2.426  0.00  0.00    +0.216 C 
ATOM     21  C   UNL     1       3.831  -6.493   1.245  0.00  0.00    +0.073 C 
ATOM     22  C   UNL     1       4.195  -7.951   1.316  0.00  0.00    +0.072 C 
ATOM     23  C   UNL     1       4.126  -8.628   2.457  0.00  0.00    -0.085 C 
ATOM     24  C   UNL     1       3.676  -7.947   3.685  0.00  0.00    +0.510 C 
ATOM     25  O   UNL     1       3.441  -8.569   4.701  0.00  0.00    -0.450 OA
ATOM     26  O   UNL     1       3.532  -6.598   3.638  0.00  0.00    -0.354 OA
ENDBRANCH  19  20
ENDBRANCH  17  18
ENDBRANCH  12  17
TORSDOF 11
