REMARK  Name = ZINC95486126
REMARK  9 active torsions:
REMARK  status: ('A' for Active; 'I' for Inactive)
REMARK    1  A    between atoms: C1_1  and  C2_2
REMARK    2  A    between atoms: C5_6  and  C30_39
REMARK    3  A    between atoms: C8_9  and  C29_38
REMARK    4  A    between atoms: C13_15  and  C25_32
REMARK    5  A    between atoms: C18_22  and  C24_31
REMARK    6  A    between atoms: C20_25  and  O1_30
REMARK    7  A    between atoms: C21_27  and  C22_28
REMARK    8  A    between atoms: C21_27  and  C23_29
REMARK    9  A    between atoms: C27_35  and  C28_37
REMARK                            x       y       z     vdW  Elec       q    Type
REMARK                         _______ _______ _______ _____ _____    ______ ____
ROOT
ATOM      1  C   UNL     1       0.857   1.699   0.229  0.00  0.00    +0.013 C 
ATOM      2  C   UNL     1       0.796   0.189   0.016  0.00  0.00    -0.022 C 
ATOM      3  C   UNL     1      -0.462  -0.198  -0.749  0.00  0.00    +0.007 C 
ATOM      4  C   UNL     1      -1.724  -0.009   0.082  0.00  0.00    +0.009 C 
ATOM      5  C   UNL     1      -1.642  -0.811   1.387  0.00  0.00    -0.039 C 
ATOM      6  C   UNL     1      -1.682  -2.301   1.057  0.00  0.00    +0.022 C 
ATOM      7  C   UNL     1      -2.895  -0.499   2.220  0.00  0.00    +0.005 C 
ATOM      8  C   UNL     1      -2.826  -1.218   3.568  0.00  0.00    +0.021 C 
ATOM      9  C   UNL     1      -1.622  -0.726   4.377  0.00  0.00    +0.007 C 
ATOM     10  C   UNL     1      -1.797   0.797   4.498  0.00  0.00    +0.018 C 
ATOM     11  C   UNL     1      -0.369  -0.923   3.551  0.00  0.00    -0.082 C 
ATOM     12  C   UNL     1       0.686  -1.508   4.025  0.00  0.00    -0.060 C 
ATOM     13  C   UNL     1       0.760  -2.142   5.383  0.00  0.00    +0.050 C 
ATOM     14  C   UNL     1      -0.177  -1.439   6.354  0.00  0.00    +0.004 C 
ATOM     15  C   UNL     1       0.362  -0.086   6.795  0.00  0.00    +0.014 C 
ATOM     16  C   UNL     1       1.801  -0.228   7.289  0.00  0.00    -0.016 C 
ATOM     17  C   UNL     1       1.925  -1.297   8.371  0.00  0.00    +0.018 C 
ATOM     18  C   UNL     1       2.336   1.107   7.800  0.00  0.00    -0.017 C 
ATOM     19  C   UNL     1       1.436   1.723   8.857  0.00  0.00    +0.162 C 
ATOM     22  C   UNL     1      -0.013   1.822   8.384  0.00  0.00    -0.043 C 
ATOM     23  C   UNL     1      -0.868   2.301   9.569  0.00  0.00    +0.025 C 
ATOM     24  C   UNL     1      -0.096   2.873   7.274  0.00  0.00    +0.029 C 
ATOM     25  C   UNL     1      -0.531   0.468   7.904  0.00  0.00    +0.019 C 
ATOM     26  C   UNL     1      -1.972   0.595   7.421  0.00  0.00    +0.001 C 
ATOM     27  C   UNL     1      -2.510  -0.657   6.755  0.00  0.00    +0.011 C 
ATOM     28  C   UNL     1      -1.578  -1.337   5.755  0.00  0.00    -0.026 C 
ATOM     29  C   UNL     1      -2.090  -2.803   5.655  0.00  0.00    +0.008 C 
ATOM     30  C   UNL     1      -0.395  -0.386   2.141  0.00  0.00    +0.037 C 
ATOM     31  C   UNL     1       0.887  -0.546   1.359  0.00  0.00    -0.008 C 
ATOM     32  C   UNL     1       1.321  -1.984   1.091  0.00  0.00    +0.017 C 
ENDROOT
BRANCH  19  20
ATOM     20  O   UNL     1       1.505   1.004  10.087  0.00  0.00    -0.557 OA
ATOM     21  H   UNL     1       2.390   0.973  10.475  0.00  0.00    +0.374 HD
ENDBRANCH  19  20
TORSDOF 1
