REMARK  Name = ZINC19366648
REMARK  6 active torsions:
REMARK  status: ('A' for Active; 'I' for Inactive)
REMARK    1  A    between atoms: C1_1  and  C2_2
REMARK    2  A    between atoms: C2_2  and  C3_4
REMARK    3  A    between atoms: C2_2  and  N1_10
REMARK    4  A    between atoms: N2_13  and  C13_16
REMARK    5  A    between atoms: C13_16  and  C14_18
REMARK    6  A    between atoms: C13_16  and  C15_19
REMARK                            x       y       z     vdW  Elec       q    Type
REMARK                         _______ _______ _______ _____ _____    ______ ____
ROOT
ATOM      3  N   UNL     1       0.713  -0.491   1.192  0.00  0.00    -0.384 N 
ATOM      4  H   UNL     1       0.240  -0.166   2.022  0.00  0.00    +0.415 HD
ATOM      5  C   UNL     1       2.090   0.019   1.182  0.00  0.00    +0.271 C 
ATOM      6  C   UNL     1       2.825  -0.472   2.432  0.00  0.00    +0.212 C 
ATOM      7  N   UNL     1       2.828  -1.942   2.448  0.00  0.00    -0.532 NA
ATOM     16  C   UNL     1       1.456  -2.467   2.433  0.00  0.00    +0.210 C 
ATOM     17  C   UNL     1       0.732  -1.959   1.184  0.00  0.00    +0.270 C 
ENDROOT
BRANCH   3   2
ATOM      1  C   UNL     1      -0.019   1.526   0.010  0.00  0.00    +0.096 C 
ATOM      2  C   UNL     1       0.002  -0.004   0.002  0.00  0.00    +0.223 C 
BRANCH   2  18
ATOM     18  C   UNL     1      -1.412  -0.526   0.013  0.00  0.00    -0.139 A 
ATOM     19  C   UNL     1      -2.123  -0.571   1.197  0.00  0.00    -0.008 A 
ATOM     20  C   UNL     1      -3.420  -1.049   1.207  0.00  0.00    +0.031 A 
ATOM     21  C   UNL     1      -4.006  -1.482   0.032  0.00  0.00    +0.043 A 
ATOM     22  C   UNL     1      -3.295  -1.436  -1.153  0.00  0.00    +0.033 A 
ATOM     23  C   UNL     1      -2.000  -0.954  -1.163  0.00  0.00    +0.044 A 
ENDBRANCH   2  18
ENDBRANCH   3   2
BRANCH   7   8
ATOM      8  C   UNL     1       3.575  -2.453   3.605  0.00  0.00    +0.189 C 
ATOM     15  C   UNL     1       5.022  -1.960   3.537  0.00  0.00    +0.058 C 
BRANCH   8   9
ATOM      9  C   UNL     1       3.557  -3.960   3.588  0.00  0.00    -0.099 A 
ATOM     10  C   UNL     1       3.702  -4.640   2.393  0.00  0.00    +0.028 A 
ATOM     11  C   UNL     1       3.685  -6.022   2.378  0.00  0.00    +0.003 A 
ATOM     12  C   UNL     1       3.524  -6.724   3.558  0.00  0.00    +0.014 A 
ATOM     13  C   UNL     1       3.380  -6.045   4.753  0.00  0.00    +0.011 A 
ATOM     14  C   UNL     1       3.401  -4.662   4.769  0.00  0.00    +0.009 A 
ENDBRANCH   8   9
ENDBRANCH   7   8
TORSDOF 4
