REMARK  Name = ZINC39144622
REMARK  11 active torsions:
REMARK  status: ('A' for Active; 'I' for Inactive)
REMARK    1  A    between atoms: C1_1  and  C2_2
REMARK    2  A    between atoms: C2_2  and  C26_34
REMARK    3  A    between atoms: C3_3  and  C4_4
REMARK    4  A    between atoms: C4_4  and  C5_5
REMARK    5  A    between atoms: C8_8  and  O5_26
REMARK    6  A    between atoms: C11_12  and  C14_19
REMARK    7  A    between atoms: C12_14  and  O3_18
REMARK    8  A    between atoms: C17_22  and  O4_25
REMARK    9  A    between atoms: O5_26  and  C20_27
REMARK   10  A    between atoms: C23_30  and  C24_32
REMARK   11  A    between atoms: C23_30  and  C25_33
REMARK                            x       y       z     vdW  Elec       q    Type
REMARK                         _______ _______ _______ _____ _____    ______ ____
ROOT
ATOM      6  C   UNL     1       0.673  -0.370   3.418  0.00  0.00    -0.146 A 
ATOM      7  C   UNL     1      -0.445   0.252   3.948  0.00  0.00    +0.223 A 
ATOM      8  C   UNL     1      -0.984  -0.178   5.172  0.00  0.00    -0.194 A 
ATOM      9  C   UNL     1      -2.181   0.512   5.697  0.00  0.00    +0.056 C 
ATOM     10  C   UNL     1      -2.886   1.268   4.858  0.00  0.00    -0.054 C 
ATOM     11  C   UNL     1      -2.462   1.390   3.418  0.00  0.00    +0.149 C 
ATOM     12  C   UNL     1      -2.914   2.745   2.872  0.00  0.00    +0.086 C 
ATOM     13  C   UNL     1      -3.120   0.274   2.602  0.00  0.00    +0.037 C 
ATOM     14  C   UNL     1      -0.394  -1.233   5.865  0.00  0.00    +0.233 A 
ATOM     17  C   UNL     1       0.741  -1.855   5.323  0.00  0.00    -0.299 A 
ATOM     18  C   UNL     1       1.393  -2.962   6.032  0.00  0.00    +0.371 C 
ATOM     19  O   UNL     1       1.122  -3.229   7.185  0.00  0.00    -0.416 OA
ATOM     20  C   UNL     1       2.415  -3.764   5.243  0.00  0.00    +0.148 C 
ATOM     23  C   UNL     1       3.228  -2.760   4.413  0.00  0.00    +0.251 C 
ATOM     32  O   UNL     1       2.350  -2.038   3.551  0.00  0.00    -0.282 OA
ATOM     33  O   UNL     1      -1.043   1.284   3.301  0.00  0.00    -0.289 OA
ATOM     34  C   UNL     1       1.268  -1.426   4.089  0.00  0.00    +0.225 A 
ENDROOT
BRANCH  23  24
ATOM     24  C   UNL     1       4.248  -3.500   3.586  0.00  0.00    -0.095 A 
ATOM     25  C   UNL     1       3.892  -4.022   2.356  0.00  0.00    +0.056 A 
ATOM     26  C   UNL     1       4.824  -4.701   1.596  0.00  0.00    -0.016 A 
ATOM     27  C   UNL     1       6.119  -4.859   2.068  0.00  0.00    +0.117 A 
ATOM     30  C   UNL     1       6.474  -4.334   3.302  0.00  0.00    -0.012 A 
ATOM     31  C   UNL     1       5.540  -3.652   4.056  0.00  0.00    +0.064 A 
BRANCH  27  28
ATOM     28  O   UNL     1       7.039  -5.527   1.322  0.00  0.00    -0.500 OA
ATOM     29  H   UNL     1       7.539  -4.963   0.717  0.00  0.00    +0.394 HD
ENDBRANCH  27  28
ENDBRANCH  23  24
BRANCH  14  15
ATOM     15  O   UNL     1      -0.909  -1.652   7.046  0.00  0.00    -0.318 OA
ATOM     16  C   UNL     1      -1.904  -2.677   6.993  0.00  0.00    +0.242 C 
ENDBRANCH  14  15
BRANCH  20  21
ATOM     21  O   UNL     1       3.278  -4.465   6.141  0.00  0.00    -0.532 OA
ATOM     22  H   UNL     1       2.825  -5.115   6.694  0.00  0.00    +0.394 HD
ENDBRANCH  20  21
BRANCH   6   5
ATOM      5  C   UNL     1       1.240   0.100   2.104  0.00  0.00    +0.138 C 
BRANCH   5   4
ATOM      1  C   UNL     1      -0.018   1.503   0.010  0.00  0.00    +0.074 C 
ATOM      2  C   UNL     1       0.002  -0.004   0.002  0.00  0.00    -0.126 C 
ATOM      3  C   UNL     1      -0.651  -0.760  -1.126  0.00  0.00    +0.070 C 
ATOM      4  C   UNL     1       0.588  -0.657   0.976  0.00  0.00    -0.051 C 
ENDBRANCH   5   4
ENDBRANCH   6   5
TORSDOF 6
