REMARK  Name = ZINC95486343
REMARK  10 active torsions:
REMARK  status: ('A' for Active; 'I' for Inactive)
REMARK    1  A    between atoms: C1_1  and  N1_2
REMARK    2  A    between atoms: C6_7  and  O5_26
REMARK    3  A    between atoms: C7_8  and  O3_23
REMARK    4  A    between atoms: C14_16  and  O2_22
REMARK    5  A    between atoms: C15_17  and  O1_20
REMARK    6  A    between atoms: O1_20  and  C18_21
REMARK    7  A    between atoms: O3_23  and  C19_24
REMARK    8  A    between atoms: C19_24  and  O4_25
REMARK    9  A    between atoms: O5_26  and  C20_27
REMARK   10  A    between atoms: C20_27  and  O6_28
REMARK                            x       y       z     vdW  Elec       q    Type
REMARK                         _______ _______ _______ _____ _____    ______ ____
ROOT
ATOM      1  C   UNL     1       0.195   0.831  -0.967  0.00  0.00    +0.328 C 
ATOM      2  N   UNL     1       0.106  -0.614  -0.714  0.00  0.00    -0.382 N 
ATOM      3  H   UNL     1      -0.861  -0.875  -0.593  0.00  0.00    +0.425 HD
ATOM      4  C   UNL     1       0.668  -1.343  -1.851  0.00  0.00    +0.267 C 
ATOM      5  C   UNL     1       0.420  -2.836  -1.712  0.00  0.00    +0.124 C 
ATOM      6  C   UNL     1       0.579  -3.306  -0.293  0.00  0.00    -0.049 A 
ATOM      7  C   UNL     1       0.525  -4.673  -0.045  0.00  0.00    -0.042 A 
ATOM      8  C   UNL     1       0.691  -5.168   1.236  0.00  0.00    +0.156 A 
ATOM     13  C   UNL     1       0.911  -4.290   2.291  0.00  0.00    +0.079 A 
ATOM     18  C   UNL     1       0.944  -2.919   2.049  0.00  0.00    +0.007 A 
ATOM     19  C   UNL     1       1.175  -1.966   3.160  0.00  0.00    -0.043 A 
ATOM     20  C   UNL     1       1.706  -2.401   4.373  0.00  0.00    +0.097 A 
ATOM     23  C   UNL     1       1.928  -1.482   5.393  0.00  0.00    +0.112 A 
ATOM     26  C   UNL     1       1.623  -0.144   5.198  0.00  0.00    -0.042 A 
ATOM     27  C   UNL     1       1.090   0.283   3.995  0.00  0.00    +0.062 A 
ATOM     28  C   UNL     1       0.858  -0.621   2.979  0.00  0.00    -0.107 A 
ATOM     29  C   UNL     1       0.260  -0.167   1.676  0.00  0.00    +0.114 C 
ATOM     30  C   UNL     1       0.784  -2.428   0.749  0.00  0.00    -0.154 A 
ATOM     31  C   UNL     1       0.858  -0.944   0.505  0.00  0.00    +0.242 C 
ENDROOT
BRANCH  20  21
ATOM     21  O   UNL     1       2.003  -3.715   4.558  0.00  0.00    -0.418 OA
ATOM     22  H   UNL     1       2.929  -3.936   4.387  0.00  0.00    +0.377 HD
ENDBRANCH  20  21
BRANCH  23  24
ATOM     24  O   UNL     1       2.445  -1.896   6.581  0.00  0.00    -0.302 OA
ATOM     25  C   UNL     1       2.647  -0.898   7.584  0.00  0.00    +0.250 C 
ENDBRANCH  23  24
BRANCH   8   9
ATOM      9  O   UNL     1       0.638  -6.508   1.462  0.00  0.00    -0.257 OA
BRANCH   9  10
ATOM     10  C   UNL     1       0.408  -7.348   0.329  0.00  0.00    +0.398 C 
BRANCH  10  11
ATOM     11  O   UNL     1       1.601  -7.431  -0.453  0.00  0.00    -0.591 OA
ATOM     12  H   UNL     1       1.518  -7.987  -1.240  0.00  0.00    +0.404 HD
ENDBRANCH  10  11
ENDBRANCH   9  10
ENDBRANCH   8   9
BRANCH  13  14
ATOM     14  O   UNL     1       1.092  -4.767   3.551  0.00  0.00    -0.231 OA
BRANCH  14  15
ATOM     15  C   UNL     1      -0.083  -5.064   4.308  0.00  0.00    +0.372 C 
BRANCH  15  16
ATOM     16  O   UNL     1      -0.736  -6.203   3.746  0.00  0.00    -0.590 OA
ATOM     17  H   UNL     1      -1.500  -6.509   4.254  0.00  0.00    +0.392 HD
ENDBRANCH  15  16
ENDBRANCH  14  15
ENDBRANCH  13  14
TORSDOF 8
