REMARK  Name = ZINC95486030
REMARK  5 active torsions:
REMARK  status: ('A' for Active; 'I' for Inactive)
REMARK    1  A    between atoms: C1_1  and  N1_2
REMARK    2  A    between atoms: C5_6  and  O4_26
REMARK    3  A    between atoms: C6_7  and  O3_24
REMARK    4  A    between atoms: O3_24  and  C20_25
REMARK    5  A    between atoms: O4_26  and  C21_27
REMARK                            x       y       z     vdW  Elec       q    Type
REMARK                         _______ _______ _______ _____ _____    ______ ____
ROOT
ATOM      1  C   UNL     1      -0.018   1.461   0.010  0.00  0.00    +0.291 C 
ATOM      2  N   UNL     1       0.002  -0.004   0.002  0.00  0.00    -0.591 N 
ATOM      3  C   UNL     1      -0.097  -0.703  -1.180  0.00  0.00    +0.353 C 
ATOM      4  C   UNL     1       0.584  -1.899  -1.299  0.00  0.00    -0.181 A 
ATOM      5  C   UNL     1       0.561  -2.659  -2.491  0.00  0.00    +0.002 A 
ATOM      6  C   UNL     1       1.335  -3.772  -2.587  0.00  0.00    +0.080 A 
ATOM      9  C   UNL     1       2.163  -4.190  -1.529  0.00  0.00    +0.175 A 
ATOM     12  C   UNL     1       2.190  -3.530  -0.336  0.00  0.00    -0.094 A 
ATOM     13  C   UNL     1       1.373  -2.399  -0.154  0.00  0.00    +0.065 A 
ATOM     14  C   UNL     1       1.246  -1.762   1.072  0.00  0.00    -0.207 C 
ATOM     15  C   UNL     1       2.057  -2.044   2.169  0.00  0.00    +0.073 C 
ATOM     16  C   UNL     1       2.022  -1.292   3.287  0.00  0.00    -0.047 C 
ATOM     17  C   UNL     1       1.153  -0.117   3.422  0.00  0.00    -0.005 A 
ATOM     18  C   UNL     1       1.280   0.708   4.555  0.00  0.00    +0.047 A 
ATOM     19  C   UNL     1       0.451   1.814   4.630  0.00  0.00    +0.044 A 
ATOM     20  O   UNL     1       0.359   2.765   5.588  0.00  0.00    -0.305 OA
ATOM     21  C   UNL     1      -0.356   3.860   4.978  0.00  0.00    +0.431 C 
ATOM     22  O   UNL     1      -1.148   3.232   3.949  0.00  0.00    -0.304 OA
ATOM     23  C   UNL     1      -0.481   2.102   3.618  0.00  0.00    +0.018 A 
ATOM     24  C   UNL     1      -0.610   1.285   2.499  0.00  0.00    +0.065 A 
ATOM     25  C   UNL     1       0.215   0.180   2.421  0.00  0.00    -0.098 A 
ATOM     26  C   UNL     1       0.133  -0.754   1.244  0.00  0.00    +0.319 C 
ENDROOT
BRANCH   6   7
ATOM      7  O   UNL     1       1.309  -4.501  -3.736  0.00  0.00    -0.309 OA
ATOM      8  C   UNL     1       0.452  -4.035  -4.780  0.00  0.00    +0.236 C 
ENDBRANCH   6   7
BRANCH   9  10
ATOM     10  O   UNL     1       2.955  -5.279  -1.700  0.00  0.00    -0.302 OA
ATOM     11  C   UNL     1       3.777  -5.664  -0.596  0.00  0.00    +0.245 C 
ENDBRANCH   9  10
TORSDOF 2
