REMARK  Name = ZINC95486351
REMARK  11 active torsions:
REMARK  status: ('A' for Active; 'I' for Inactive)
REMARK    1  A    between atoms: C2_2  and  C7_10
REMARK    2  A    between atoms: C4_4  and  O3_9
REMARK    3  A    between atoms: C5_5  and  O2_8
REMARK    4  A    between atoms: C6_6  and  O1_7
REMARK    5  A    between atoms: C7_10  and  O5_12
REMARK    6  A    between atoms: O5_12  and  C8_13
REMARK    7  A    between atoms: C9_15  and  O10_28
REMARK    8  A    between atoms: C10_17  and  O9_27
REMARK    9  A    between atoms: C11_19  and  O8_26
REMARK   10  A    between atoms: C12_21  and  C13_24
REMARK   11  A    between atoms: C13_24  and  O7_25
REMARK                            x       y       z     vdW  Elec       q    Type
REMARK                         _______ _______ _______ _____ _____    ______ ____
ROOT
ATOM      4  O   UNL     1       2.327   4.253   0.002  0.00  0.00    -0.339 OA
ENDROOT
BRANCH   4   5
ATOM      5  C   UNL     1       2.236   5.680   0.010  0.00  0.00    +0.326 C 
ATOM      6  C   UNL     1       3.640   6.280   0.125  0.00  0.00    +0.147 C 
ATOM      9  C   UNL     1       3.539   7.808   0.073  0.00  0.00    +0.168 C 
ATOM     12  C   UNL     1       2.836   8.218  -1.225  0.00  0.00    +0.174 C 
ATOM     15  C   UNL     1       1.463   7.542  -1.288  0.00  0.00    +0.203 C 
ATOM     19  O   UNL     1       1.627   6.125  -1.203  0.00  0.00    -0.369 OA
BRANCH   6   7
ATOM      7  O   UNL     1       4.229   5.882   1.365  0.00  0.00    -0.552 OA
ATOM      8  H   UNL     1       4.320   4.925   1.467  0.00  0.00    +0.394 HD
ENDBRANCH   6   7
BRANCH   9  10
ATOM     10  O   UNL     1       2.787   8.276   1.194  0.00  0.00    -0.546 OA
ATOM     11  H   UNL     1       3.173   8.046   2.050  0.00  0.00    +0.390 HD
ENDBRANCH   9  10
BRANCH  12  13
ATOM     13  O   UNL     1       2.672   9.637  -1.252  0.00  0.00    -0.540 OA
ATOM     14  H   UNL     1       3.504  10.129  -1.210  0.00  0.00    +0.387 HD
ENDBRANCH  12  13
BRANCH  15  16
ATOM     16  C   UNL     1       0.779   7.899  -2.609  0.00  0.00    +0.219 C 
BRANCH  16  17
ATOM     17  O   UNL     1      -0.546   7.365  -2.619  0.00  0.00    -0.562 OA
ATOM     18  H   UNL     1      -1.041   7.554  -3.428  0.00  0.00    +0.382 HD
ENDBRANCH  16  17
ENDBRANCH  15  16
ENDBRANCH   4   5
BRANCH   4   3
ATOM      3  C   UNL     1       1.168   3.566   0.010  0.00  0.00    +0.514 C 
ATOM     20  O   UNL     1       0.109   4.162   0.022  0.00  0.00    -0.468 OA
BRANCH   3   2
ATOM      1  C   UNL     1      -0.017   1.378   0.010  0.00  0.00    +0.082 A 
ATOM      2  C   UNL     1       1.185   2.092   0.002  0.00  0.00    -0.101 A 
ATOM     21  C   UNL     1       2.402   1.406  -0.013  0.00  0.00    +0.070 A 
ATOM     22  C   UNL     1       2.415   0.024  -0.021  0.00  0.00    +0.085 A 
ATOM     25  C   UNL     1       1.216  -0.685  -0.013  0.00  0.00    +0.095 A 
ATOM     28  C   UNL     1       0.002  -0.004   0.002  0.00  0.00    +0.090 A 
BRANCH  22  23
ATOM     23  O   UNL     1       3.599  -0.645  -0.036  0.00  0.00    -0.479 OA
ATOM     24  H   UNL     1       3.951  -0.843   0.843  0.00  0.00    +0.393 HD
ENDBRANCH  22  23
BRANCH  25  26
ATOM     26  O   UNL     1       1.232  -2.044  -0.021  0.00  0.00    -0.478 OA
ATOM     27  H   UNL     1       1.245  -2.442   0.860  0.00  0.00    +0.397 HD
ENDBRANCH  25  26
BRANCH  28  29
ATOM     29  O   UNL     1      -1.167  -0.699   0.009  0.00  0.00    -0.484 OA
ATOM     30  H   UNL     1      -1.513  -0.896  -0.872  0.00  0.00    +0.400 HD
ENDBRANCH  28  29
ENDBRANCH   3   2
ENDBRANCH   4   3
TORSDOF 11
