REMARK  Name = ZINC95486158
REMARK  14 active torsions:
REMARK  status: ('A' for Active; 'I' for Inactive)
REMARK    1  A    between atoms: C1_1  and  C2_2
REMARK    2  A    between atoms: C2_2  and  C3_4
REMARK    3  A    between atoms: C3_4  and  C4_5
REMARK    4  A    between atoms: C9_11  and  O3_15
REMARK    5  A    between atoms: C10_12  and  O2_13
REMARK    6  A    between atoms: O2_13  and  C11_14
REMARK    7  A    between atoms: O3_15  and  C12_16
REMARK    8  A    between atoms: C18_22  and  O5_35
REMARK    9  A    between atoms: C19_23  and  O4_34
REMARK   10  A    between atoms: C20_24  and  C24_29
REMARK   11  A    between atoms: N1_27  and  C23_28
REMARK   12  A    between atoms: C24_29  and  C25_30
REMARK   13  A    between atoms: C24_29  and  C26_31
REMARK   14  A    between atoms: C24_29  and  C27_32
REMARK                            x       y       z     vdW  Elec       q    Type
REMARK                         _______ _______ _______ _____ _____    ______ ____
ROOT
ATOM      4  C   UNL     1      -0.535  -6.580   0.779  0.00  0.00    +0.324 C 
ATOM      5  C   UNL     1      -1.167  -7.617  -0.115  0.00  0.00    -0.084 A 
ATOM      6  C   UNL     1      -1.797  -7.223  -1.297  0.00  0.00    +0.007 A 
ATOM      7  C   UNL     1      -1.813  -5.791  -1.681  0.00  0.00    -0.013 A 
ATOM      8  C   UNL     1      -2.545  -5.364  -2.796  0.00  0.00    +0.040 A 
ATOM      9  C   UNL     1      -2.462  -4.077  -3.225  0.00  0.00    -0.005 A 
ATOM     10  C   UNL     1      -1.698  -3.151  -2.499  0.00  0.00    -0.033 A 
ATOM     11  C   UNL     1      -1.397  -1.882  -3.021  0.00  0.00    +0.010 A 
ATOM     12  C   UNL     1      -0.839  -0.939  -2.207  0.00  0.00    +0.085 A 
ATOM     15  C   UNL     1      -0.619  -1.218  -0.852  0.00  0.00    +0.076 A 
ATOM     18  C   UNL     1      -0.839  -2.473  -0.350  0.00  0.00    -0.057 A 
ATOM     24  C   UNL     1      -1.177  -3.514  -1.222  0.00  0.00    -0.057 A 
ATOM     25  C   UNL     1      -1.047  -4.884  -0.945  0.00  0.00    +0.213 A 
ATOM     26  C   UNL     1      -2.391  -8.180  -2.116  0.00  0.00    +0.041 A 
ATOM     27  C   UNL     1      -2.352  -9.515  -1.763  0.00  0.00    -0.054 A 
ATOM     28  C   UNL     1      -1.719  -9.906  -0.594  0.00  0.00    +0.099 A 
ATOM     31  C   UNL     1      -1.124  -8.954   0.231  0.00  0.00    +0.075 A 
ATOM     34  N   UNL     1      -0.152  -5.416  -0.028  0.00  0.00    -0.627 N 
ATOM     35  C   UNL     1       1.216  -4.893   0.087  0.00  0.00    +0.300 C 
ENDROOT
BRANCH  18  19
ATOM     19  C   UNL     1      -0.800  -2.656   1.146  0.00  0.00    +0.024 C 
ATOM     22  C   UNL     1      -1.714  -3.817   1.542  0.00  0.00    +0.048 C 
ATOM     23  C   UNL     1      -1.279  -1.374   1.830  0.00  0.00    +0.034 C 
BRANCH  19  20
ATOM     20  C   UNL     1       0.612  -2.959   1.578  0.00  0.00    -0.046 C 
ATOM     21  C   UNL     1       1.333  -2.031   2.157  0.00  0.00    +0.012 C 
ENDBRANCH  19  20
ENDBRANCH  18  19
BRANCH  12  13
ATOM     13  O   UNL     1      -0.495   0.273  -2.714  0.00  0.00    -0.487 OA
ATOM     14  H   UNL     1      -1.200   0.933  -2.668  0.00  0.00    +0.385 HD
ENDBRANCH  12  13
BRANCH  15  16
ATOM     16  O   UNL     1      -0.183  -0.234  -0.021  0.00  0.00    -0.480 OA
ATOM     17  H   UNL     1      -0.892   0.301   0.360  0.00  0.00    +0.379 HD
ENDBRANCH  15  16
BRANCH  28  29
ATOM     29  O   UNL     1      -1.679 -11.222  -0.251  0.00  0.00    -0.308 OA
ATOM     30  C   UNL     1      -2.309 -12.144  -1.142  0.00  0.00    +0.238 C 
ENDBRANCH  28  29
BRANCH  31  32
ATOM     32  O   UNL     1      -0.499  -9.348   1.374  0.00  0.00    -0.322 OA
ATOM     33  C   UNL     1      -1.310  -9.483   2.543  0.00  0.00    +0.219 C 
ENDBRANCH  31  32
BRANCH   4   3
ATOM      3  C   UNL     1      -1.538  -6.158   1.854  0.00  0.00    +0.005 C 
BRANCH   3   2
ATOM      1  C   UNL     1      -4.015  -5.359   2.055  0.00  0.00    +0.049 C 
ATOM      2  C   UNL     1      -2.851  -5.804   1.206  0.00  0.00    +0.342 C 
ATOM     36  O   UNL     1      -2.972  -5.877   0.007  0.00  0.00    -0.431 OA
ENDBRANCH   3   2
ENDBRANCH   4   3
TORSDOF 8
