REMARK  Name = ZINC01530775
REMARK  10 active torsions:
REMARK  status: ('A' for Active; 'I' for Inactive)
REMARK    1  A    between atoms: C3_3  and  O1_10
REMARK    2  A    between atoms: C6_6  and  C7_7
REMARK    3  A    between atoms: O1_10  and  C8_11
REMARK    4  A    between atoms: C8_11  and  C9_12
REMARK    5  A    between atoms: C9_12  and  C10_13
REMARK    6  A    between atoms: C10_13  and  C11_14
REMARK    7  A    between atoms: C11_14  and  C12_15
REMARK    8  A    between atoms: C12_15  and  O2_16
REMARK    9  A    between atoms: O2_16  and  C13_17
REMARK   10  A    between atoms: C16_20  and  C19_23
REMARK                            x       y       z     vdW  Elec       q    Type
REMARK                         _______ _______ _______ _____ _____    ______ ____
ROOT
ATOM      7  C   UNL     1       7.250   1.489  -0.061  0.00  0.00    +0.032 C 
ENDROOT
BRANCH   7   6
ATOM      6  C   UNL     1       5.955   2.303  -0.044  0.00  0.00    +0.044 C 
BRANCH   6   5
ATOM      5  C   UNL     1       4.755   1.353  -0.037  0.00  0.00    +0.199 C 
BRANCH   5   4
ATOM      4  O   UNL     1       3.545   2.113  -0.021  0.00  0.00    -0.296 OA
BRANCH   4   3
ATOM      1  C   UNL     1      -0.017   1.392   0.010  0.00  0.00    +0.131 A 
ATOM      2  C   UNL     1       1.168   2.095   0.002  0.00  0.00    +0.008 A 
ATOM      3  C   UNL     1       2.380   1.417  -0.014  0.00  0.00    +0.205 A 
ATOM     24  C   UNL     1       2.403   0.028  -0.022  0.00  0.00    -0.061 A 
ATOM     25  C   UNL     1       1.223  -0.682  -0.014  0.00  0.00    +0.129 A 
ATOM     26  C   UNL     1       0.002  -0.004   0.002  0.00  0.00    -0.202 A 
BRANCH  26  27
ATOM     27  C   UNL     1      -1.266  -0.762   0.011  0.00  0.00    +0.604 C 
ATOM     28  N   UNL     1      -2.430  -0.113   0.026  0.00  0.00    -0.764 N 
ATOM     29  H   UNL     1      -3.263  -0.611   0.031  0.00  0.00    +0.434 HD
ATOM     30  H   UNL     1      -2.445   0.857   0.031  0.00  0.00    +0.444 HD
ATOM     31  N   UNL     1      -1.246  -2.094   0.003  0.00  0.00    -0.766 N 
ATOM     32  H   UNL     1      -2.079  -2.592   0.009  0.00  0.00    +0.434 HD
ATOM     33  H   UNL     1      -0.399  -2.567  -0.008  0.00  0.00    +0.442 HD
ENDBRANCH  26  27
ENDBRANCH   4   3
ENDBRANCH   5   4
ENDBRANCH   6   5
ENDBRANCH   7   6
BRANCH   7   8
ATOM      8  C   UNL     1       8.449   2.440  -0.068  0.00  0.00    +0.044 C 
BRANCH   8   9
ATOM      9  C   UNL     1       9.745   1.626  -0.086  0.00  0.00    +0.199 C 
BRANCH   9  10
ATOM     10  O   UNL     1      10.865   2.513  -0.092  0.00  0.00    -0.296 OA
BRANCH  10  11
ATOM     11  C   UNL     1      12.099   1.948  -0.107  0.00  0.00    +0.205 A 
ATOM     12  C   UNL     1      12.227   0.564  -0.122  0.00  0.00    -0.061 A 
ATOM     13  C   UNL     1      13.477  -0.013  -0.137  0.00  0.00    +0.129 A 
ATOM     14  C   UNL     1      14.617   0.794  -0.138  0.00  0.00    -0.202 A 
ATOM     22  C   UNL     1      14.484   2.184  -0.124  0.00  0.00    +0.131 A 
ATOM     23  C   UNL     1      13.230   2.754  -0.114  0.00  0.00    +0.008 A 
BRANCH  14  15
ATOM     15  C   UNL     1      15.960   0.179  -0.154  0.00  0.00    +0.604 C 
ATOM     16  N   UNL     1      16.085  -1.148  -0.167  0.00  0.00    -0.766 N 
ATOM     17  H   UNL     1      16.967  -1.552  -0.177  0.00  0.00    +0.434 HD
ATOM     18  H   UNL     1      15.295  -1.709  -0.166  0.00  0.00    +0.442 HD
ATOM     19  N   UNL     1      17.047   0.951  -0.155  0.00  0.00    -0.764 N 
ATOM     20  H   UNL     1      17.929   0.547  -0.165  0.00  0.00    +0.434 HD
ATOM     21  H   UNL     1      16.956   1.916  -0.145  0.00  0.00    +0.444 HD
ENDBRANCH  14  15
ENDBRANCH  10  11
ENDBRANCH   9  10
ENDBRANCH   8   9
ENDBRANCH   7   8
TORSDOF 10
