REMARK  Name = ZINC43069427
REMARK  7 active torsions:
REMARK  status: ('A' for Active; 'I' for Inactive)
REMARK    1  A    between atoms: C1_1  and  C2_2
REMARK    2  A    between atoms: C2_2  and  C20_24
REMARK    3  A    between atoms: C7_7  and  C11_12
REMARK    4  A    between atoms: C12_13  and  C13_14
REMARK    5  A    between atoms: C13_14  and  C14_16
REMARK    6  A    between atoms: C17_19  and  O4_23
REMARK    7  A    between atoms: C19_21  and  O3_22
REMARK                            x       y       z     vdW  Elec       q    Type
REMARK                         _______ _______ _______ _____ _____    ______ ____
ROOT
ATOM      9  C   UNL     1       0.241  -5.946   2.283  0.00  0.00    +0.133 C 
ATOM     10  C   UNL     1       1.277  -6.608   2.844  0.00  0.00    -0.110 C 
ENDROOT
BRANCH   9   8
ATOM      1  C   UNL     1      -0.019   1.526   0.010  0.00  0.00    +0.083 C 
ATOM      2  C   UNL     1       0.002  -0.004   0.002  0.00  0.00    +0.146 C 
ATOM      3  C   UNL     1       0.731  -0.492  -1.252  0.00  0.00    +0.035 C 
ATOM      4  C   UNL     1      -1.413  -0.520  -0.015  0.00  0.00    -0.048 C 
ATOM      5  C   UNL     1      -1.696  -1.704   0.522  0.00  0.00    +0.039 C 
ATOM      6  C   UNL     1      -0.590  -2.472   1.136  0.00  0.00    -0.136 A 
ATOM      7  C   UNL     1      -0.714  -3.825   1.407  0.00  0.00    +0.092 A 
ATOM      8  C   UNL     1       0.358  -4.511   1.989  0.00  0.00    -0.113 A 
ATOM     23  C   UNL     1       1.543  -3.828   2.291  0.00  0.00    +0.076 A 
ATOM     24  C   UNL     1       1.661  -2.482   2.018  0.00  0.00    -0.009 A 
ATOM     25  C   UNL     1       0.603  -1.796   1.442  0.00  0.00    +0.150 A 
ATOM     26  O   UNL     1       0.694  -0.472   1.161  0.00  0.00    -0.303 OA
ENDBRANCH   9   8
BRANCH  10  11
ATOM     11  C   UNL     1       1.160  -8.035   3.137  0.00  0.00    +0.423 C 
ATOM     22  O   UNL     1       0.129  -8.629   2.874  0.00  0.00    -0.445 OA
BRANCH  11  12
ATOM     12  C   UNL     1       2.290  -8.757   3.750  0.00  0.00    -0.200 A 
ATOM     13  C   UNL     1       3.473  -8.077   4.058  0.00  0.00    +0.100 A 
ATOM     14  C   UNL     1       4.525  -8.754   4.630  0.00  0.00    -0.029 A 
ATOM     15  C   UNL     1       4.418 -10.114   4.904  0.00  0.00    +0.156 A 
ATOM     18  C   UNL     1       3.249 -10.798   4.602  0.00  0.00    -0.048 A 
ATOM     19  C   UNL     1       2.181 -10.127   4.032  0.00  0.00    +0.185 A 
BRANCH  15  16
ATOM     16  O   UNL     1       5.461 -10.775   5.468  0.00  0.00    -0.496 OA
ATOM     17  H   UNL     1       5.447 -10.779   6.434  0.00  0.00    +0.400 HD
ENDBRANCH  15  16
BRANCH  19  20
ATOM     20  O   UNL     1       1.036 -10.793   3.741  0.00  0.00    -0.479 OA
ATOM     21  H   UNL     1       1.018 -11.177   2.853  0.00  0.00    +0.399 HD
ENDBRANCH  19  20
ENDBRANCH  11  12
ENDBRANCH  10  11
TORSDOF 5
