REMARK  Name = ZINC85967818
REMARK  10 active torsions:
REMARK  status: ('A' for Active; 'I' for Inactive)
REMARK    1  A    between atoms: C1_1  and  C2_2
REMARK    2  A    between atoms: C2_2  and  C3_3
REMARK    3  A    between atoms: C2_2  and  C4_4
REMARK    4  A    between atoms: C10_10  and  C27_32
REMARK    5  A    between atoms: C12_12  and  O2_15
REMARK    6  A    between atoms: C16_18  and  O3_23
REMARK    7  A    between atoms: C17_20  and  C18_21
REMARK    8  A    between atoms: C17_20  and  C19_22
REMARK    9  A    between atoms: O3_23  and  C20_24
REMARK   10  A    between atoms: C20_24  and  C21_26
REMARK                            x       y       z     vdW  Elec       q    Type
REMARK                         _______ _______ _______ _____ _____    ______ ____
ROOT
ATOM      3  C   UNL     1       2.633   1.272   2.172  0.00  0.00    -0.195 C 
ATOM      4  C   UNL     1       1.671   0.357   2.449  0.00  0.00    +0.109 C 
ATOM      5  C   UNL     1       1.878  -0.603   3.468  0.00  0.00    -0.117 C 
ATOM      6  C   UNL     1       0.888  -1.538   3.768  0.00  0.00    +0.149 C 
ATOM      7  C   UNL     1       1.026  -2.489   4.787  0.00  0.00    -0.045 C 
ATOM      8  C   UNL     1       2.139  -2.589   5.522  0.00  0.00    -0.002 C 
ATOM      9  C   UNL     1       3.308  -1.668   5.236  0.00  0.00    +0.011 C 
ATOM     10  C   UNL     1       4.504  -2.530   4.825  0.00  0.00    +0.059 C 
ATOM     11  C   UNL     1       3.636  -0.965   6.554  0.00  0.00    +0.057 C 
ATOM     12  C   UNL     1       3.933  -2.014   7.628  0.00  0.00    +0.020 C 
ATOM     13  C   UNL     1       2.681  -2.846   7.912  0.00  0.00    +0.195 C 
ATOM     23  C   UNL     1       2.264  -3.594   6.639  0.00  0.00    -0.023 C 
ATOM     24  C   UNL     1       0.918  -4.285   6.864  0.00  0.00    +0.053 C 
ATOM     25  C   UNL     1       3.326  -4.635   6.280  0.00  0.00    +0.065 C 
ATOM     26  C   UNL     1       3.105  -0.611   4.178  0.00  0.00    -0.049 C 
ATOM     27  C   UNL     1       4.064   0.304   3.905  0.00  0.00    +0.014 C 
ATOM     30  C   UNL     1       3.846   1.268   2.890  0.00  0.00    +0.388 C 
ATOM     31  O   UNL     1       4.708   2.099   2.640  0.00  0.00    -0.474 OA
ENDROOT
BRANCH   3   2
ATOM      1  C   UNL     1       2.488   3.699   1.687  0.00  0.00    +0.027 C 
ATOM      2  C   UNL     1       2.406   2.293   1.088  0.00  0.00    +0.037 C 
ATOM     32  C   UNL     1       3.477   2.136   0.007  0.00  0.00    +0.027 C 
ENDBRANCH   3   2
BRANCH  27  28
ATOM     28  O   UNL     1       5.234   0.295   4.598  0.00  0.00    -0.460 OA
ATOM     29  H   UNL     1       5.855   0.986   4.331  0.00  0.00    +0.399 HD
ENDBRANCH  27  28
BRANCH  13  14
ATOM     14  O   UNL     1       1.620  -1.983   8.326  0.00  0.00    -0.334 OA
BRANCH  14  15
ATOM     15  C   UNL     1       1.510  -1.741   9.647  0.00  0.00    +0.509 C 
ATOM     22  O   UNL     1       2.292  -2.248  10.425  0.00  0.00    -0.502 OA
BRANCH  15  16
ATOM     16  C   UNL     1       0.436  -0.859  10.149  0.00  0.00    -0.128 A 
ATOM     17  C   UNL     1      -0.469  -0.279   9.258  0.00  0.00    +0.076 A 
ATOM     18  C   UNL     1      -1.468   0.544   9.733  0.00  0.00    -0.001 A 
ATOM     19  C   UNL     1      -1.576   0.795  11.090  0.00  0.00    +0.049 A 
ATOM     20  C   UNL     1      -0.682   0.224  11.978  0.00  0.00    +0.003 A 
ATOM     21  C   UNL     1       0.319  -0.606  11.517  0.00  0.00    +0.083 A 
ENDBRANCH  15  16
ENDBRANCH  14  15
ENDBRANCH  13  14
TORSDOF 5
