REMARK  Name = ZINC14645878
REMARK  9 active torsions:
REMARK  status: ('A' for Active; 'I' for Inactive)
REMARK    1  A    between atoms: C1_1  and  O1_2
REMARK    2  A    between atoms: O1_2  and  C2_3
REMARK    3  A    between atoms: C3_4  and  C8_10
REMARK    4  A    between atoms: C7_8  and  O2_9
REMARK    5  A    between atoms: C12_15  and  O7_25
REMARK    6  A    between atoms: C13_16  and  O6_23
REMARK    7  A    between atoms: C14_17  and  O5_21
REMARK    8  A    between atoms: O5_21  and  C17_22
REMARK    9  A    between atoms: O6_23  and  C18_24
REMARK                            x       y       z     vdW  Elec       q    Type
REMARK                         _______ _______ _______ _____ _____    ______ ____
ROOT
ATOM      5  C   UNL     1      -5.398  -1.945   3.014  0.00  0.00    -0.233 A 
ATOM      6  C   UNL     1      -6.298  -1.087   2.469  0.00  0.00    +0.332 A 
ATOM      7  O   UNL     1      -5.932   0.028   1.831  0.00  0.00    -0.215 OA
ATOM      8  C   UNL     1      -4.645   0.401   1.671  0.00  0.00    +0.171 A 
ATOM      9  C   UNL     1      -4.331   1.573   0.998  0.00  0.00    -0.006 A 
ATOM     10  C   UNL     1      -3.008   1.953   0.843  0.00  0.00    +0.169 A 
ATOM     13  C   UNL     1      -1.977   1.162   1.349  0.00  0.00    +0.020 A 
ATOM     16  C   UNL     1      -2.271  -0.011   2.023  0.00  0.00    +0.188 A 
ATOM     19  C   UNL     1      -3.608  -0.396   2.187  0.00  0.00    -0.241 A 
ATOM     20  C   UNL     1      -3.963  -1.635   2.898  0.00  0.00    +0.430 A 
ATOM     21  O   UNL     1      -3.110  -2.368   3.368  0.00  0.00    -0.418 OA
ENDROOT
BRANCH   5   4
ATOM      3  C   UNL     1      -5.624  -3.324   5.083  0.00  0.00    +0.097 A 
ATOM      4  C   UNL     1      -5.852  -3.172   3.713  0.00  0.00    -0.034 A 
ATOM     22  C   UNL     1      -6.512  -4.176   3.007  0.00  0.00    +0.031 A 
ATOM     23  C   UNL     1      -6.928  -5.320   3.659  0.00  0.00    +0.029 A 
ATOM     24  C   UNL     1      -6.704  -5.470   5.015  0.00  0.00    +0.010 A 
ATOM     25  C   UNL     1      -6.053  -4.476   5.730  0.00  0.00    +0.089 A 
BRANCH   3   2
ATOM      1  C   UNL     1      -5.800  -1.326   6.361  0.00  0.00    +0.219 C 
ATOM      2  O   UNL     1      -4.986  -2.346   5.781  0.00  0.00    -0.318 OA
ENDBRANCH   3   2
BRANCH  25  26
ATOM     26  O   UNL     1      -5.833  -4.629   7.063  0.00  0.00    -0.484 OA
ATOM     27  H   UNL     1      -6.546  -4.288   7.621  0.00  0.00    +0.387 HD
ENDBRANCH  25  26
ENDBRANCH   5   4
BRANCH  10  11
ATOM     11  O   UNL     1      -2.712   3.105   0.187  0.00  0.00    -0.475 OA
ATOM     12  H   UNL     1      -2.592   2.995  -0.766  0.00  0.00    +0.400 HD
ENDBRANCH  10  11
BRANCH  13  14
ATOM     14  O   UNL     1      -0.682   1.547   1.184  0.00  0.00    -0.315 OA
ATOM     15  C   UNL     1      -0.013   1.086   0.008  0.00  0.00    +0.230 C 
ENDBRANCH  13  14
BRANCH  16  17
ATOM     17  O   UNL     1      -1.270  -0.782   2.522  0.00  0.00    -0.315 OA
ATOM     18  C   UNL     1      -0.843  -0.507   3.858  0.00  0.00    +0.252 C 
ENDBRANCH  16  17
TORSDOF 6
