REMARK  Name = ZINC14444870
REMARK  5 active torsions:
REMARK  status: ('A' for Active; 'I' for Inactive)
REMARK    1  A    between atoms: C1_1  and  C2_2
REMARK    2  A    between atoms: C3_3  and  C16_18
REMARK    3  A    between atoms: C16_18  and  C17_19
REMARK    4  A    between atoms: C17_19  and  C18_20
REMARK    5  A    between atoms: C18_20  and  C19_22
REMARK                            x       y       z     vdW  Elec       q    Type
REMARK                         _______ _______ _______ _____ _____    ______ ____
ROOT
ATOM      1  C   UNL     1      -0.108   5.368   0.028  0.00  0.00    +0.114 C 
ATOM      2  C   UNL     1      -0.068   3.862   0.021  0.00  0.00    -0.026 A 
ATOM      3  C   UNL     1      -1.248   3.136   0.029  0.00  0.00    -0.067 A 
ATOM      9  C   UNL     1      -1.220   1.754   0.017  0.00  0.00    +0.048 A 
ATOM     10  C   UNL     1      -0.013   1.076   0.008  0.00  0.00    +0.074 A 
ATOM     11  C   UNL     1       1.181   1.789   0.000  0.00  0.00    -0.119 A 
ATOM     12  C   UNL     1       2.481   1.083  -0.013  0.00  0.00    +0.436 C 
ATOM     13  O   UNL     1       2.532  -0.104  -0.266  0.00  0.00    -0.427 OA
ATOM     14  C   UNL     1       3.716   1.839   0.286  0.00  0.00    -0.121 A 
ATOM     15  C   UNL     1       4.905   1.172   0.562  0.00  0.00    +0.075 A 
ATOM     16  C   UNL     1       6.052   1.896   0.839  0.00  0.00    +0.040 A 
ATOM     17  C   UNL     1       6.025   3.278   0.843  0.00  0.00    +0.041 A 
ATOM     18  C   UNL     1       4.850   3.958   0.571  0.00  0.00    +0.074 A 
ATOM     19  C   UNL     1       3.688   3.246   0.291  0.00  0.00    -0.119 A 
ATOM     20  C   UNL     1       2.423   3.955  -0.002  0.00  0.00    +0.434 C 
ATOM     21  O   UNL     1       2.427   5.145  -0.246  0.00  0.00    -0.422 OA
ATOM     22  C   UNL     1       1.153   3.197   0.007  0.00  0.00    -0.122 A 
ENDROOT
BRANCH   3   4
ATOM      4  C   UNL     1      -2.570   3.858   0.046  0.00  0.00    +0.094 C 
BRANCH   4   5
ATOM      5  C   UNL     1      -2.972   4.220  -1.386  0.00  0.00    +0.035 C 
BRANCH   5   6
ATOM      6  C   UNL     1      -4.295   4.942  -1.369  0.00  0.00    +0.353 C 
ATOM      7  C   UNL     1      -4.914   5.410  -2.660  0.00  0.00    +0.062 C 
ATOM      8  O   UNL     1      -4.858   5.146  -0.320  0.00  0.00    -0.456 OA
ENDBRANCH   5   6
ENDBRANCH   4   5
ENDBRANCH   3   4
TORSDOF 3
