REMARK  Name = ZINC33831303
REMARK  5 active torsions:
REMARK  status: ('A' for Active; 'I' for Inactive)
REMARK    1  A    between atoms: C1_1  and  C2_2
REMARK    2  A    between atoms: C6_6  and  C19_24
REMARK    3  A    between atoms: C6_6  and  C20_25
REMARK    4  A    between atoms: C11_12  and  C12_14
REMARK    5  A    between atoms: C12_14  and  C13_15
REMARK                            x       y       z     vdW  Elec       q    Type
REMARK                         _______ _______ _______ _____ _____    ______ ____
ROOT
ATOM      1  C   UNL     1       0.841   1.323   0.220  0.00  0.00    +0.028 C 
ATOM      2  C   UNL     1       0.529  -0.171   0.120  0.00  0.00    -0.034 C 
ATOM      3  C   UNL     1      -0.964  -0.397   0.368  0.00  0.00    +0.011 C 
ATOM      4  C   UNL     1      -1.307  -0.094   1.826  0.00  0.00    +0.003 C 
ATOM      5  C   UNL     1      -0.540  -1.049   2.734  0.00  0.00    +0.012 C 
ATOM      6  C   UNL     1       0.969  -0.905   2.537  0.00  0.00    -0.049 C 
ATOM      7  C   UNL     1       1.457   0.387   3.190  0.00  0.00    +0.022 C 
ATOM      8  C   UNL     1       1.623  -2.081   3.300  0.00  0.00    +0.012 C 
ATOM      9  C   UNL     1       0.850  -0.622  -1.321  0.00  0.00    +0.042 C 
ATOM     18  C   UNL     1       2.352  -0.477  -1.569  0.00  0.00    +0.031 C 
ATOM     19  C   UNL     1       2.839  -0.495  -3.023  0.00  0.00    +0.170 C 
ATOM     20  O   UNL     1       2.814   0.696  -2.235  0.00  0.00    -0.338 OA
ATOM     21  C   UNL     1       3.269  -1.137  -0.539  0.00  0.00    +0.057 C 
ATOM     22  C   UNL     1       2.853  -0.733   0.878  0.00  0.00    +0.024 C 
ATOM     23  C   UNL     1       1.364  -1.009   1.076  0.00  0.00    +0.007 C 
ENDROOT
BRANCH   9  10
ATOM     10  C   UNL     1       0.086   0.265  -2.306  0.00  0.00    +0.075 C 
BRANCH  10  11
ATOM     11  C   UNL     1      -1.386  -0.053  -2.231  0.00  0.00    +0.121 C 
ATOM     12  C   UNL     1      -2.270   0.926  -2.056  0.00  0.00    -0.247 C 
ATOM     13  C   UNL     1      -1.997   2.422  -2.007  0.00  0.00    +0.073 C 
ATOM     14  C   UNL     1      -3.402   3.029  -1.805  0.00  0.00    +0.251 C 
ATOM     15  O   UNL     1      -4.308   1.977  -2.176  0.00  0.00    -0.341 OA
ATOM     16  C   UNL     1      -3.729   0.796  -1.873  0.00  0.00    +0.515 C 
ATOM     17  O   UNL     1      -4.313  -0.206  -1.509  0.00  0.00    -0.446 OA
ENDBRANCH  10  11
ENDBRANCH   9  10
TORSDOF 2
