REMARK  Name = ZINC95486096
REMARK  14 active torsions:
REMARK  status: ('A' for Active; 'I' for Inactive)
REMARK    1  A    between atoms: C1_1  and  C2_2
REMARK    2  A    between atoms: C6_7  and  C38_50
REMARK    3  A    between atoms: C6_7  and  C39_51
REMARK    4  A    between atoms: C12_16  and  C37_49
REMARK    5  A    between atoms: C13_17  and  O5_48
REMARK    6  A    between atoms: C14_19  and  C36_46
REMARK    7  A    between atoms: C14_19  and  O4_47
REMARK    8  A    between atoms: C16_22  and  C35_45
REMARK    9  A    between atoms: C21_28  and  C34_44
REMARK   10  A    between atoms: C26_33  and  C27_34
REMARK   11  A    between atoms: C26_33  and  O2_35
REMARK   12  A    between atoms: C30_38  and  O3_43
REMARK   13  A    between atoms: C31_40  and  C32_41
REMARK   14  A    between atoms: C31_40  and  C33_42
REMARK                            x       y       z     vdW  Elec       q    Type
REMARK                         _______ _______ _______ _____ _____    ______ ____
ROOT
ATOM      1  C   UNL     1      -0.214   2.098   1.373  0.00  0.00    +0.024 C 
ATOM      2  C   UNL     1      -0.001   0.613   1.635  0.00  0.00    -0.016 C 
ATOM      3  C   UNL     1      -1.344  -0.127   1.742  0.00  0.00    +0.029 C 
ATOM      4  C   UNL     1      -2.269   0.597   2.724  0.00  0.00    +0.018 C 
ATOM      5  C   UNL     1      -1.606   0.646   4.076  0.00  0.00    +0.370 C 
ATOM      6  C   UNL     1      -0.125   0.899   4.201  0.00  0.00    -0.093 C 
ATOM      7  C   UNL     1       0.126   2.383   4.484  0.00  0.00    +0.054 C 
ATOM      8  C   UNL     1       0.352   0.119   5.452  0.00  0.00    +0.040 C 
ATOM      9  O   UNL     1      -2.270   0.474   5.081  0.00  0.00    -0.462 OA
ATOM     10  C   UNL     1       0.859  -0.023   0.560  0.00  0.00    +0.007 C 
ATOM     11  C   UNL     1       0.554   0.165  -0.936  0.00  0.00    +0.004 C 
ATOM     12  C   UNL     1      -0.925   0.498  -1.192  0.00  0.00    +0.048 C 
ATOM     13  C   UNL     1       1.401   1.326  -1.502  0.00  0.00    +0.148 C 
ATOM     16  C   UNL     1       2.902   1.064  -1.455  0.00  0.00    +0.099 C 
ATOM     19  C   UNL     1       3.581   0.998  -2.806  0.00  0.00    +0.035 C 
ATOM     20  C   UNL     1       3.099  -0.147  -0.520  0.00  0.00    +0.068 C 
ATOM     21  C   UNL     1       2.451  -1.414  -1.107  0.00  0.00    -0.008 C 
ATOM     22  C   UNL     1       3.333  -1.938  -2.283  0.00  0.00    +0.023 C 
ATOM     23  C   UNL     1       2.615  -2.527  -0.058  0.00  0.00    +0.179 C 
ATOM     26  C   UNL     1       3.106  -3.786  -0.822  0.00  0.00    +0.005 C 
ATOM     27  C   UNL     1       1.364  -2.907   0.671  0.00  0.00    -0.093 C 
ATOM     28  C   UNL     1       1.358  -3.232   1.957  0.00  0.00    +0.014 C 
ATOM     29  C   UNL     1       0.148  -3.000  -0.156  0.00  0.00    -0.026 C 
ATOM     30  C   UNL     1       0.073  -2.283  -1.264  0.00  0.00    -0.060 C 
ATOM     31  C   UNL     1      -0.914  -2.816  -2.297  0.00  0.00    -0.001 C 
ATOM     32  C   UNL     1      -0.203  -3.940  -3.065  0.00  0.00    +0.033 C 
ATOM     33  C   UNL     1      -2.115  -3.429  -1.554  0.00  0.00    +0.025 C 
ATOM     34  C   UNL     1      -3.123  -3.969  -2.566  0.00  0.00    -0.018 C 
ATOM     35  C   UNL     1      -3.631  -2.877  -3.497  0.00  0.00    +0.164 C 
ATOM     38  C   UNL     1      -2.494  -2.129  -4.196  0.00  0.00    -0.040 C 
ATOM     39  C   UNL     1      -3.113  -0.839  -4.785  0.00  0.00    +0.025 C 
ATOM     40  C   UNL     1      -1.955  -2.945  -5.362  0.00  0.00    +0.029 C 
ATOM     41  C   UNL     1      -1.442  -1.709  -3.181  0.00  0.00    +0.011 C 
ATOM     42  C   UNL     1      -0.360  -0.832  -3.760  0.00  0.00    +0.022 C 
ATOM     43  C   UNL     1       1.007  -1.037  -3.120  0.00  0.00    +0.022 C 
ATOM     44  C   UNL     1       1.022  -1.163  -1.597  0.00  0.00    +0.032 C 
ATOM     45  C   UNL     1       2.333   0.341   0.716  0.00  0.00    -0.006 C 
ATOM     46  C   UNL     1       2.902  -0.016   2.064  0.00  0.00    +0.041 C 
ATOM     47  C   UNL     1       2.108   0.877   3.053  0.00  0.00    +0.005 C 
ATOM     48  C   UNL     1       0.662   0.396   3.007  0.00  0.00    +0.001 C 
ENDROOT
BRANCH  13  14
ATOM     14  O   UNL     1       0.982   1.668  -2.826  0.00  0.00    -0.555 OA
ATOM     15  H   UNL     1       1.485   2.393  -3.223  0.00  0.00    +0.370 HD
ENDBRANCH  13  14
BRANCH  16  17
ATOM     17  O   UNL     1       3.516   2.214  -0.793  0.00  0.00    -0.572 OA
ATOM     18  H   UNL     1       3.365   3.056  -1.245  0.00  0.00    +0.367 HD
ENDBRANCH  16  17
BRANCH  23  24
ATOM     24  O   UNL     1       3.662  -2.193   0.858  0.00  0.00    -0.542 OA
ATOM     25  H   UNL     1       3.812  -2.859   1.543  0.00  0.00    +0.370 HD
ENDBRANCH  23  24
BRANCH  35  36
ATOM     36  O   UNL     1      -4.416  -1.936  -2.754  0.00  0.00    -0.562 OA
ATOM     37  H   UNL     1      -5.190  -2.324  -2.323  0.00  0.00    +0.373 HD
ENDBRANCH  35  36
TORSDOF 4
