REMARK  Name = ZINC06920379
REMARK  22 active torsions:
REMARK  status: ('A' for Active; 'I' for Inactive)
REMARK    1  A    between atoms: C1_1  and  C2_2
REMARK    2  A    between atoms: C2_2  and  C3_3
REMARK    3  A    between atoms: C3_3  and  C4_4
REMARK    4  A    between atoms: C4_4  and  C5_5
REMARK    5  A    between atoms: C5_5  and  C6_6
REMARK    6  A    between atoms: C6_6  and  C7_7
REMARK    7  A    between atoms: C7_7  and  C8_8
REMARK    8  A    between atoms: C8_8  and  C9_9
REMARK    9  A    between atoms: C9_9  and  C10_10
REMARK   10  A    between atoms: C10_10  and  C11_11
REMARK   11  A    between atoms: C11_11  and  C12_12
REMARK   12  A    between atoms: C12_12  and  C13_13
REMARK   13  A    between atoms: C13_13  and  C14_14
REMARK   14  A    between atoms: C14_14  and  C15_15
REMARK   15  A    between atoms: C15_15  and  C16_16
REMARK   16  A    between atoms: C16_16  and  C17_17
REMARK   17  A    between atoms: C17_17  and  C18_18
REMARK   18  A    between atoms: C18_18  and  C19_19
REMARK   19  A    between atoms: C19_19  and  C20_20
REMARK   20  A    between atoms: C20_20  and  C21_21
REMARK   21  A    between atoms: C21_21  and  C22_22
REMARK   22  A    between atoms: C22_22  and  C23_23
REMARK                            x       y       z     vdW  Elec       q    Type
REMARK                         _______ _______ _______ _____ _____    ______ ____
ROOT
ATOM     13  C   UNL     1       4.403 -10.614  -7.593  0.00  0.00    -0.000 C 
ENDROOT
BRANCH  13  12
ATOM     12  C   UNL     1       3.687 -10.120  -6.334  0.00  0.00    -0.000 C 
BRANCH  12  11
ATOM     11  C   UNL     1       3.666  -8.591  -6.326  0.00  0.00    -0.000 C 
BRANCH  11  10
ATOM     10  C   UNL     1       2.950  -8.097  -5.067  0.00  0.00    -0.000 C 
BRANCH  10   9
ATOM      9  C   UNL     1       2.929  -6.567  -5.058  0.00  0.00    -0.000 C 
BRANCH   9   8
ATOM      8  C   UNL     1       2.213  -6.074  -3.800  0.00  0.00    -0.000 C 
BRANCH   8   7
ATOM      7  C   UNL     1       2.192  -4.544  -3.791  0.00  0.00    +0.000 C 
BRANCH   7   6
ATOM      6  C   UNL     1       1.476  -4.051  -2.532  0.00  0.00    +0.000 C 
BRANCH   6   5
ATOM      5  C   UNL     1       1.455  -2.521  -2.524  0.00  0.00    +0.000 C 
BRANCH   5   4
ATOM      4  C   UNL     1       0.739  -2.027  -1.265  0.00  0.00    -0.000 C 
BRANCH   4   3
ATOM      3  C   UNL     1       0.718  -0.498  -1.257  0.00  0.00    -0.000 C 
BRANCH   3   2
ATOM      1  C   UNL     1      -0.019   1.526   0.010  0.00  0.00    +0.005 C 
ATOM      2  C   UNL     1       0.002  -0.004   0.002  0.00  0.00    -0.006 C 
ENDBRANCH   3   2
ENDBRANCH   4   3
ENDBRANCH   5   4
ENDBRANCH   6   5
ENDBRANCH   7   6
ENDBRANCH   8   7
ENDBRANCH   9   8
ENDBRANCH  10   9
ENDBRANCH  11  10
ENDBRANCH  12  11
ENDBRANCH  13  12
BRANCH  13  14
ATOM     14  C   UNL     1       4.423 -12.144  -7.601  0.00  0.00    -0.001 C 
BRANCH  14  15
ATOM     15  C   UNL     1       5.140 -12.637  -8.860  0.00  0.00    -0.000 C 
BRANCH  15  16
ATOM     16  C   UNL     1       5.160 -14.167  -8.868  0.00  0.00    -0.001 C 
BRANCH  16  17
ATOM     17  C   UNL     1       5.876 -14.660 -10.127  0.00  0.00    -0.001 C 
BRANCH  17  18
ATOM     18  C   UNL     1       5.897 -16.190 -10.136  0.00  0.00    -0.003 C 
BRANCH  18  19
ATOM     19  C   UNL     1       6.613 -16.683 -11.395  0.00  0.00    -0.001 C 
BRANCH  19  20
ATOM     20  C   UNL     1       6.634 -18.213 -11.403  0.00  0.00    -0.013 C 
BRANCH  20  21
ATOM     21  C   UNL     1       7.350 -18.707 -12.662  0.00  0.00    +0.021 C 
BRANCH  21  22
ATOM     22  C   UNL     1       7.371 -20.237 -12.670  0.00  0.00    -0.076 C 
BRANCH  22  23
ATOM     23  C   UNL     1       8.076 -20.723 -13.910  0.00  0.00    +0.487 C 
ATOM     24  O   UNL     1       8.202 -21.919 -14.111  0.00  0.00    -0.710 OA
ATOM     25  O   UNL     1       8.521 -19.920 -14.713  0.00  0.00    -0.700 OA
ENDBRANCH  22  23
ENDBRANCH  21  22
ENDBRANCH  20  21
ENDBRANCH  19  20
ENDBRANCH  18  19
ENDBRANCH  17  18
ENDBRANCH  16  17
ENDBRANCH  15  16
ENDBRANCH  14  15
ENDBRANCH  13  14
TORSDOF 21
