REMARK  Name = ZINC95485898
REMARK  8 active torsions:
REMARK  status: ('A' for Active; 'I' for Inactive)
REMARK    1  A    between atoms: C1_1  and  N1_2
REMARK    2  A    between atoms: C6_7  and  O6_45
REMARK    3  A    between atoms: C7_8  and  O5_43
REMARK    4  A    between atoms: C15_17  and  O4_42
REMARK    5  A    between atoms: C29_33  and  O3_37
REMARK    6  A    between atoms: O3_37  and  C32_38
REMARK    7  A    between atoms: O5_43  and  C35_44
REMARK    8  A    between atoms: O6_45  and  C36_46
REMARK                            x       y       z     vdW  Elec       q    Type
REMARK                         _______ _______ _______ _____ _____    ______ ____
ROOT
ATOM      1  C   UNL     1      -0.018   1.486   0.010  0.00  0.00    +0.178 C 
ATOM      2  N   UNL     1       0.002  -0.004   0.002  0.00  0.00    -0.478 NA
ATOM      3  C   UNL     1       0.798  -0.432  -1.172  0.00  0.00    +0.160 C 
ATOM      4  C   UNL     1       1.032  -1.926  -1.196  0.00  0.00    +0.091 C 
ATOM      5  C   UNL     1       0.847  -2.647   0.102  0.00  0.00    -0.008 A 
ATOM      6  C   UNL     1       1.011  -4.022   0.150  0.00  0.00    -0.069 A 
ATOM      7  C   UNL     1       0.869  -4.693   1.354  0.00  0.00    +0.125 A 
ATOM     10  C   UNL     1       0.508  -4.011   2.506  0.00  0.00    +0.018 A 
ATOM     13  C   UNL     1       0.242  -2.628   2.444  0.00  0.00    +0.141 A 
ATOM     14  O   UNL     1      -0.306  -2.018   3.531  0.00  0.00    -0.248 OA
ATOM     15  C   UNL     1      -1.462  -2.462   4.103  0.00  0.00    +0.184 A 
ATOM     16  C   UNL     1      -1.949  -3.727   3.772  0.00  0.00    -0.118 A 
ATOM     17  C   UNL     1      -3.000  -4.288   4.476  0.00  0.00    +0.165 A 
ATOM     20  C   UNL     1      -3.593  -3.583   5.505  0.00  0.00    -0.050 A 
ATOM     21  C   UNL     1      -3.174  -2.296   5.795  0.00  0.00    +0.003 A 
ATOM     22  C   UNL     1      -3.865  -1.562   6.912  0.00  0.00    +0.091 C 
ATOM     23  C   UNL     1      -3.311  -0.173   7.164  0.00  0.00    +0.143 C 
ATOM     24  N   UNL     1      -2.921   0.464   5.876  0.00  0.00    -0.595 NA
ATOM     25  H   UNL     1      -2.441   1.358   6.226  0.00  0.00    +0.318 HD
ATOM     26  C   UNL     1      -1.753  -0.310   5.344  0.00  0.00    +0.195 C 
ATOM     27  C   UNL     1      -0.603  -0.183   6.339  0.00  0.00    +0.070 C 
ATOM     28  C   UNL     1       0.335   0.880   5.815  0.00  0.00    -0.073 A 
ATOM     29  C   UNL     1      -0.177   1.906   5.037  0.00  0.00    +0.025 A 
ATOM     30  C   UNL     1       0.674   2.814   4.437  0.00  0.00    +0.011 A 
ATOM     31  C   UNL     1       2.045   2.690   4.619  0.00  0.00    +0.062 A 
ATOM     32  C   UNL     1       2.549   1.723   5.474  0.00  0.00    +0.012 A 
ATOM     33  O   UNL     1       2.888   3.537   3.940  0.00  0.00    -0.233 OA
ATOM     34  C   UNL     1       3.037   3.029   2.668  0.00  0.00    +0.085 A 
ATOM     35  C   UNL     1       2.585   1.732   2.467  0.00  0.00    -0.034 A 
ATOM     36  C   UNL     1       2.705   1.138   1.221  0.00  0.00    -0.048 A 
ATOM     37  C   UNL     1       3.281   1.843   0.181  0.00  0.00    -0.002 A 
ATOM     38  C   UNL     1       3.724   3.136   0.379  0.00  0.00    +0.032 A 
ATOM     39  C   UNL     1       2.228  -0.274   1.053  0.00  0.00    +0.049 C 
ATOM     40  C   UNL     1       3.606   3.736   1.627  0.00  0.00    +0.086 A 
ATOM     43  C   UNL     1       1.692   0.811   6.066  0.00  0.00    +0.029 A 
ATOM     44  C   UNL     1      -2.143  -1.722   5.072  0.00  0.00    -0.126 A 
ATOM     45  C   UNL     1       0.547  -1.972   1.274  0.00  0.00    -0.100 A 
ATOM     46  C   UNL     1       0.729  -0.471   1.220  0.00  0.00    +0.228 C 
ENDROOT
BRANCH   7   8
ATOM      8  O   UNL     1       1.086  -6.035   1.400  0.00  0.00    -0.303 OA
ATOM      9  C   UNL     1       1.454  -6.675   0.176  0.00  0.00    +0.242 C 
ENDBRANCH   7   8
BRANCH  10  11
ATOM     11  O   UNL     1       0.477  -4.676   3.693  0.00  0.00    -0.312 OA
ATOM     12  C   UNL     1       1.683  -4.689   4.461  0.00  0.00    +0.222 C 
ENDBRANCH  10  11
BRANCH  17  18
ATOM     18  O   UNL     1      -3.446  -5.532   4.157  0.00  0.00    -0.313 OA
ATOM     19  C   UNL     1      -2.786  -6.202   3.081  0.00  0.00    +0.241 C 
ENDBRANCH  17  18
BRANCH  40  41
ATOM     41  O   UNL     1       4.050   5.006   1.825  0.00  0.00    -0.486 OA
ATOM     42  H   UNL     1       3.384   5.686   1.657  0.00  0.00    +0.389 HD
ENDBRANCH  40  41
TORSDOF 4
