REMARK  Name = ZINC95486095
REMARK  3 active torsions:
REMARK  status: ('A' for Active; 'I' for Inactive)
REMARK    1  A    between atoms: C1_1  and  C2_2
REMARK    2  A    between atoms: C7_7  and  O1_8
REMARK    3  A    between atoms: C8_9  and  C16_19
REMARK                            x       y       z     vdW  Elec       q    Type
REMARK                         _______ _______ _______ _____ _____    ______ ____
ROOT
ATOM      1  C   UNL     1      -0.018   1.503   0.010  0.00  0.00    +0.095 C 
ATOM      2  C   UNL     1       0.002  -0.004   0.002  0.00  0.00    -0.109 A 
ATOM      3  C   UNL     1       0.006  -0.688  -1.194  0.00  0.00    +0.017 A 
ATOM      4  C   UNL     1       0.022  -2.079  -1.216  0.00  0.00    -0.076 A 
ATOM      5  C   UNL     1       0.028  -2.775  -0.028  0.00  0.00    -0.058 A 
ATOM      6  C   UNL     1       0.019  -4.286   0.020  0.00  0.00    -0.015 C 
ATOM      7  C   UNL     1       0.917  -4.771   1.159  0.00  0.00    +0.043 C 
ATOM      8  C   UNL     1      -1.426  -4.743   0.251  0.00  0.00    +0.049 C 
ATOM      9  C   UNL     1      -1.486  -6.270   0.322  0.00  0.00    +0.020 C 
ATOM     10  C   UNL     1      -0.883  -6.827  -0.950  0.00  0.00    +0.363 C 
ATOM     11  C   UNL     1       0.498  -6.351  -1.341  0.00  0.00    +0.029 C 
ATOM     12  O   UNL     1      -1.484  -7.625  -1.629  0.00  0.00    -0.455 OA
ATOM     13  C   UNL     1       0.536  -4.829  -1.310  0.00  0.00    +0.013 C 
ATOM     14  C   UNL     1      -0.309  -4.236  -2.438  0.00  0.00    +0.020 C 
ATOM     15  C   UNL     1       0.030  -2.091   1.178  0.00  0.00    -0.006 A 
ATOM     16  C   UNL     1       0.039  -2.753  -2.563  0.00  0.00    +0.077 C 
ATOM     17  C   UNL     1       0.023  -0.706   1.198  0.00  0.00    +0.100 A 
ENDROOT
BRANCH  17  18
ATOM     18  O   UNL     1       0.031  -0.039   2.383  0.00  0.00    -0.495 OA
ATOM     19  H   UNL     1      -0.850   0.146   2.736  0.00  0.00    +0.388 HD
ENDBRANCH  17  18
TORSDOF 1
