REMARK  Name = ZINC06018566
REMARK  6 active torsions:
REMARK  status: ('A' for Active; 'I' for Inactive)
REMARK    1  A    between atoms: C1_1  and  O1_2
REMARK    2  A    between atoms: O1_2  and  C2_3
REMARK    3  A    between atoms: C5_6  and  C9_11
REMARK    4  A    between atoms: C7_8  and  O2_9
REMARK    5  A    between atoms: O2_9  and  C8_10
REMARK    6  A    between atoms: C10_12  and  C11_13
REMARK                            x       y       z     vdW  Elec       q    Type
REMARK                         _______ _______ _______ _____ _____    ______ ____
ROOT
ATOM      3  C   UNL     1      -4.967   5.319   0.055  0.00  0.00    +0.121 A 
ATOM      4  C   UNL     1      -4.947   3.930   0.047  0.00  0.00    -0.038 A 
ATOM      5  C   UNL     1      -3.747   3.255   0.037  0.00  0.00    +0.050 A 
ATOM      6  C   UNL     1      -2.542   3.970   0.036  0.00  0.00    -0.091 A 
ATOM     11  C   UNL     1      -2.564   5.370   0.049  0.00  0.00    -0.003 A 
ATOM     12  C   UNL     1      -3.772   6.038   0.053  0.00  0.00    +0.095 A 
ENDROOT
BRANCH   3   2
ATOM      1  C   UNL     1      -7.340   5.181   0.067  0.00  0.00    +0.243 C 
ATOM      2  O   UNL     1      -6.154   5.979   0.065  0.00  0.00    -0.302 OA
ENDBRANCH   3   2
BRANCH   6   7
ATOM      7  C   UNL     1      -1.261   3.253   0.026  0.00  0.00    +0.131 C 
ATOM      8  C   UNL     1      -1.243   1.898   0.018  0.00  0.00    -0.130 C 
BRANCH   8   9
ATOM      9  C   UNL     1      -0.014   1.210   0.009  0.00  0.00    +0.456 C 
ATOM     10  O   UNL     1       0.002  -0.004   0.002  0.00  0.00    -0.468 OA
ENDBRANCH   8   9
ENDBRANCH   6   7
BRANCH  12  13
ATOM     13  O   UNL     1      -3.797   7.398   0.061  0.00  0.00    -0.305 OA
ATOM     14  C   UNL     1      -2.536   8.070   0.059  0.00  0.00    +0.240 C 
ENDBRANCH  12  13
TORSDOF 4
