REMARK  Name = ZINC14490613
REMARK  4 active torsions:
REMARK  status: ('A' for Active; 'I' for Inactive)
REMARK    1  A    between atoms: C1_1  and  C2_2
REMARK    2  A    between atoms: C8_10  and  O5_18
REMARK    3  A    between atoms: C11_13  and  O4_17
REMARK    4  A    between atoms: O5_18  and  C14_19
REMARK                            x       y       z     vdW  Elec       q    Type
REMARK                         _______ _______ _______ _____ _____    ______ ____
ROOT
ATOM      1  C   UNL     1       6.658   3.301   0.536  0.00  0.00    +0.202 C 
ATOM      2  C   UNL     1       6.172   1.878   0.437  0.00  0.00    +0.102 A 
ATOM      3  C   UNL     1       4.907   1.496   0.203  0.00  0.00    -0.254 A 
ATOM      4  C   UNL     1       4.927   0.006   0.196  0.00  0.00    -0.243 A 
ATOM      5  C   UNL     1       3.689  -0.752  -0.035  0.00  0.00    +0.469 C 
ATOM      6  C   UNL     1       2.419   0.014  -0.020  0.00  0.00    -0.138 A 
ATOM      7  C   UNL     1       1.210  -0.691  -0.013  0.00  0.00    +0.165 A 
ATOM     10  C   UNL     1       0.002  -0.004   0.002  0.00  0.00    -0.027 A 
ATOM     11  C   UNL     1      -0.017   1.374   0.010  0.00  0.00    +0.064 A 
ATOM     12  C   UNL     1       1.173   2.094   0.002  0.00  0.00    +0.117 A 
ATOM     15  C   UNL     1       2.400   1.422  -0.013  0.00  0.00    -0.104 A 
ATOM     16  O   UNL     1       3.706  -1.953  -0.230  0.00  0.00    -0.417 OA
ATOM     17  C   UNL     1       6.202  -0.344   0.426  0.00  0.00    +0.297 A 
ATOM     18  C   UNL     1       3.649   2.222  -0.021  0.00  0.00    +0.469 C 
ATOM     19  O   UNL     1       3.633   3.425  -0.204  0.00  0.00    -0.415 OA
ATOM     20  O   UNL     1       6.934   0.776   0.568  0.00  0.00    -0.174 OA
ENDROOT
BRANCH   7   8
ATOM      8  O   UNL     1       1.218  -2.048  -0.021  0.00  0.00    -0.284 OA
ATOM      9  C   UNL     1      -0.052  -2.704  -0.013  0.00  0.00    +0.247 C 
ENDBRANCH   7   8
BRANCH  12  13
ATOM     13  O   UNL     1       1.143   3.451   0.009  0.00  0.00    -0.473 OA
ATOM     14  H   UNL     1       1.143   3.840   0.895  0.00  0.00    +0.394 HD
ENDBRANCH  12  13
TORSDOF 2
