REMARK  Name = ZINC14725153
REMARK  8 active torsions:
REMARK  status: ('A' for Active; 'I' for Inactive)
REMARK    1  A    between atoms: C1_1  and  N1_2
REMARK    2  A    between atoms: C11_13  and  O5_22
REMARK    3  A    between atoms: C12_14  and  O4_20
REMARK    4  A    between atoms: C13_15  and  O3_18
REMARK    5  A    between atoms: C14_16  and  O2_17
REMARK    6  A    between atoms: O3_18  and  C15_19
REMARK    7  A    between atoms: O4_20  and  C16_21
REMARK    8  A    between atoms: O5_22  and  C17_23
REMARK                            x       y       z     vdW  Elec       q    Type
REMARK                         _______ _______ _______ _____ _____    ______ ____
ROOT
ATOM      1  C   UNL     1       1.933  -0.748   6.190  0.00  0.00    +0.317 C 
ATOM      2  N   UNL     1       1.927   0.497   5.418  0.00  0.00    -0.511 N 
ATOM      3  C   UNL     1       3.068   1.270   5.397  0.00  0.00    +0.217 A 
ATOM      4  C   UNL     1       4.199   0.864   6.103  0.00  0.00    -0.048 A 
ATOM      5  C   UNL     1       5.338   1.637   6.085  0.00  0.00    +0.087 A 
ATOM      6  C   UNL     1       5.377   2.823   5.366  0.00  0.00    -0.033 A 
ATOM      7  C   UNL     1       4.272   3.244   4.660  0.00  0.00    +0.119 A 
ATOM      8  C   UNL     1       3.110   2.471   4.670  0.00  0.00    -0.211 A 
ATOM      9  C   UNL     1       1.914   2.902   3.922  0.00  0.00    +0.439 A 
ATOM     10  C   UNL     1       0.726   2.038   3.981  0.00  0.00    -0.229 A 
ATOM     11  C   UNL     1      -0.446   2.388   3.294  0.00  0.00    +0.199 A 
ATOM     14  C   UNL     1      -1.553   1.560   3.362  0.00  0.00    +0.013 A 
ATOM     17  C   UNL     1      -1.504   0.388   4.115  0.00  0.00    +0.143 A 
ATOM     20  C   UNL     1      -0.346   0.031   4.792  0.00  0.00    +0.012 A 
ATOM     23  O   UNL     1       1.910   3.937   3.280  0.00  0.00    -0.448 OA
ATOM     24  C   UNL     1       0.777   0.852   4.736  0.00  0.00    +0.239 A 
ENDROOT
BRANCH  11  12
ATOM     12  O   UNL     1      -0.494   3.533   2.564  0.00  0.00    -0.460 OA
ATOM     13  H   UNL     1      -0.793   4.305   3.064  0.00  0.00    +0.397 HD
ENDBRANCH  11  12
BRANCH  14  15
ATOM     15  O   UNL     1      -2.694   1.894   2.698  0.00  0.00    -0.311 OA
ATOM     16  C   UNL     1      -3.616   2.745   3.381  0.00  0.00    +0.225 C 
ENDBRANCH  14  15
BRANCH  17  18
ATOM     18  O   UNL     1      -2.597  -0.417   4.181  0.00  0.00    -0.326 OA
ATOM     19  C   UNL     1      -2.673  -1.488   3.238  0.00  0.00    +0.250 C 
ENDBRANCH  17  18
BRANCH  20  21
ATOM     21  O   UNL     1      -0.312  -1.120   5.519  0.00  0.00    -0.315 OA
ATOM     22  C   UNL     1      -1.037  -1.132   6.750  0.00  0.00    +0.233 C 
ENDBRANCH  20  21
TORSDOF 4
