REMARK  Name = ZINC95485939
REMARK  9 active torsions:
REMARK  status: ('A' for Active; 'I' for Inactive)
REMARK    1  A    between atoms: C1_1  and  C2_2
REMARK    2  A    between atoms: C5_6  and  C30_36
REMARK    3  A    between atoms: C8_9  and  C29_35
REMARK    4  A    between atoms: C13_14  and  C25_29
REMARK    5  A    between atoms: C21_23  and  O1_28
REMARK    6  A    between atoms: C22_25  and  C23_26
REMARK    7  A    between atoms: C22_25  and  C24_27
REMARK    8  A    between atoms: C27_32  and  C28_34
REMARK    9  A    between atoms: C30_36  and  C32_38
REMARK                            x       y       z     vdW  Elec       q    Type
REMARK                         _______ _______ _______ _____ _____    ______ ____
ROOT
ATOM      1  C   UNL     1       0.146   1.250   0.515  0.00  0.00    +0.008 C 
ATOM      2  C   UNL     1       0.216  -0.281   0.417  0.00  0.00    -0.012 C 
ATOM      3  C   UNL     1      -1.202  -0.841   0.342  0.00  0.00    +0.007 C 
ATOM      4  C   UNL     1      -1.166  -2.367   0.318  0.00  0.00    +0.020 C 
ATOM      5  C   UNL     1      -0.508  -2.897   1.592  0.00  0.00    +0.000 C 
ATOM      9  C   UNL     1      -0.487  -4.431   1.544  0.00  0.00    +0.012 C 
ATOM     10  C   UNL     1       0.365  -4.938   0.386  0.00  0.00    +0.023 C 
ATOM     11  C   UNL     1       1.809  -4.457   0.539  0.00  0.00    +0.006 C 
ATOM     12  C   UNL     1       2.314  -4.960   1.897  0.00  0.00    +0.023 C 
ATOM     13  C   UNL     1       1.798  -2.957   0.652  0.00  0.00    -0.080 C 
ATOM     14  C   UNL     1       2.519  -2.175  -0.088  0.00  0.00    -0.060 C 
ATOM     15  C   UNL     1       3.480  -2.652  -1.136  0.00  0.00    +0.088 C 
ATOM     16  C   UNL     1       3.874  -4.109  -0.856  0.00  0.00    -0.084 C 
ATOM     17  C   UNL     1       4.971  -4.627  -1.802  0.00  0.00    -0.016 C 
ATOM     18  C   UNL     1       5.259  -4.424  -0.297  0.00  0.00    -0.053 C 
ATOM     19  C   UNL     1       6.086  -3.195   0.077  0.00  0.00    +0.054 C 
ATOM     20  C   UNL     1       7.394  -3.511   0.753  0.00  0.00    -0.017 C 
ATOM     21  C   UNL     1       7.266  -4.558   1.835  0.00  0.00    +0.174 C 
ATOM     24  C   UNL     1       6.681  -5.857   1.321  0.00  0.00    -0.022 C 
ATOM     25  C   UNL     1       6.354  -6.730   2.533  0.00  0.00    +0.032 C 
ATOM     26  C   UNL     1       7.764  -6.578   0.508  0.00  0.00    +0.026 C 
ATOM     27  C   UNL     1       5.484  -5.708   0.455  0.00  0.00    -0.011 C 
ATOM     28  C   UNL     1       4.355  -6.659   0.595  0.00  0.00    +0.021 C 
ATOM     29  C   UNL     1       3.131  -6.443  -0.254  0.00  0.00    +0.014 C 
ATOM     30  C   UNL     1       2.700  -5.025  -0.550  0.00  0.00    +0.010 C 
ATOM     31  C   UNL     1       1.884  -5.094  -1.862  0.00  0.00    +0.014 C 
ATOM     32  C   UNL     1       0.902  -2.341   1.724  0.00  0.00    +0.056 C 
ATOM     33  C   UNL     1       0.976  -0.827   1.616  0.00  0.00    -0.014 C 
ATOM     34  C   UNL     1       0.546  -0.123   2.902  0.00  0.00    +0.015 C 
ENDROOT
BRANCH   5   6
ATOM      6  C   UNL     1      -1.364  -2.529   2.786  0.00  0.00    -0.103 C 
ATOM      7  C   UNL     1      -0.872  -2.813   4.182  0.00  0.00    +0.067 C 
ATOM      8  C   UNL     1      -2.532  -1.964   2.605  0.00  0.00    -0.013 C 
ENDBRANCH   5   6
BRANCH  21  22
ATOM     22  O   UNL     1       6.425  -4.053   2.875  0.00  0.00    -0.557 OA
ATOM     23  H   UNL     1       6.756  -3.245   3.291  0.00  0.00    +0.371 HD
ENDBRANCH  21  22
TORSDOF 2
