REMARK  Name = ZINC05962585
REMARK  20 active torsions:
REMARK  status: ('A' for Active; 'I' for Inactive)
REMARK    1  A    between atoms: C1_1  and  C2_2
REMARK    2  A    between atoms: C2_2  and  C3_4
REMARK    3  A    between atoms: C2_2  and  C14_16
REMARK    4  A    between atoms: C3_4  and  C4_5
REMARK    5  A    between atoms: C4_5  and  C5_6
REMARK    6  A    between atoms: C5_6  and  C6_7
REMARK    7  A    between atoms: C6_7  and  C7_9
REMARK    8  A    between atoms: C6_7  and  C8_10
REMARK    9  A    between atoms: C8_10  and  C9_11
REMARK   10  A    between atoms: C9_11  and  C10_12
REMARK   11  A    between atoms: C10_12  and  C11_13
REMARK   12  A    between atoms: C11_13  and  C12_14
REMARK   13  A    between atoms: C11_13  and  C13_15
REMARK   14  A    between atoms: C14_16  and  C15_17
REMARK   15  A    between atoms: C15_17  and  C16_18
REMARK   16  A    between atoms: C16_18  and  C17_19
REMARK   17  A    between atoms: C17_19  and  C18_21
REMARK   18  A    between atoms: C17_19  and  C19_22
REMARK   19  A    between atoms: C19_22  and  C20_23
REMARK   20  A    between atoms: C20_23  and  O1_24
REMARK                            x       y       z     vdW  Elec       q    Type
REMARK                         _______ _______ _______ _____ _____    ______ ____
ROOT
ATOM      1  C   UNL     1      -0.019   1.526   0.010  0.00  0.00    +0.012 C 
ATOM      2  C   UNL     1       0.002  -0.004   0.002  0.00  0.00    -0.024 C 
ENDROOT
BRANCH   2   3
ATOM      3  C   UNL     1       0.742  -0.511   1.242  0.00  0.00    +0.005 C 
BRANCH   3   4
ATOM      4  C   UNL     1       2.210  -0.086   1.169  0.00  0.00    +0.005 C 
BRANCH   4   5
ATOM      5  C   UNL     1       2.950  -0.593   2.408  0.00  0.00    +0.010 C 
BRANCH   5   6
ATOM      6  C   UNL     1       4.418  -0.168   2.335  0.00  0.00    -0.019 C 
ATOM     11  C   UNL     1       5.091  -0.862   1.150  0.00  0.00    +0.015 C 
BRANCH   6   7
ATOM      7  C   UNL     1       5.129  -0.565   3.630  0.00  0.00    +0.022 C 
BRANCH   7   8
ATOM      8  C   UNL     1       6.563  -0.031   3.609  0.00  0.00    +0.164 C 
BRANCH   8   9
ATOM      9  O   UNL     1       7.227  -0.402   4.819  0.00  0.00    -0.577 OA
ATOM     10  H   UNL     1       8.142  -0.096   4.875  0.00  0.00    +0.380 HD
ENDBRANCH   8   9
ENDBRANCH   7   8
ENDBRANCH   6   7
ENDBRANCH   5   6
ENDBRANCH   4   5
ENDBRANCH   3   4
ENDBRANCH   2   3
BRANCH   2  12
ATOM     12  C   UNL     1      -1.433  -0.534   0.013  0.00  0.00    +0.005 C 
BRANCH  12  13
ATOM     13  C   UNL     1      -2.135  -0.131  -1.286  0.00  0.00    +0.003 C 
BRANCH  13  14
ATOM     14  C   UNL     1      -3.571  -0.661  -1.275  0.00  0.00    +0.005 C 
BRANCH  14  15
ATOM     15  C   UNL     1      -4.273  -0.258  -2.573  0.00  0.00    -0.024 C 
ATOM     22  C   UNL     1      -4.404   1.265  -2.631  0.00  0.00    +0.012 C 
BRANCH  15  16
ATOM     16  C   UNL     1      -5.664  -0.892  -2.618  0.00  0.00    +0.005 C 
BRANCH  16  17
ATOM     17  C   UNL     1      -6.317  -0.593  -3.969  0.00  0.00    +0.003 C 
BRANCH  17  18
ATOM     18  C   UNL     1      -7.709  -1.227  -4.014  0.00  0.00    +0.005 C 
BRANCH  18  19
ATOM     19  C   UNL     1      -8.363  -0.928  -5.365  0.00  0.00    -0.031 C 
ATOM     20  C   UNL     1      -9.800  -1.453  -5.364  0.00  0.00    +0.012 C 
ATOM     21  C   UNL     1      -7.569  -1.615  -6.478  0.00  0.00    +0.012 C 
ENDBRANCH  18  19
ENDBRANCH  17  18
ENDBRANCH  16  17
ENDBRANCH  15  16
ENDBRANCH  14  15
ENDBRANCH  13  14
ENDBRANCH  12  13
ENDBRANCH   2  12
TORSDOF 15
