REMARK  Name = ZINC95486042
REMARK  16 active torsions:
REMARK  status: ('A' for Active; 'I' for Inactive)
REMARK    1  A    between atoms: C1_1  and  C2_2
REMARK    2  A    between atoms: C3_4  and  C4_6
REMARK    3  A    between atoms: C3_4  and  C33_57
REMARK    4  A    between atoms: C6_9  and  C8_14
REMARK    5  A    between atoms: C9_16  and  O10_56
REMARK    6  A    between atoms: C12_21  and  C32_55
REMARK    7  A    between atoms: C20_31  and  C31_54
REMARK    8  A    between atoms: C23_34  and  O4_37
REMARK    9  A    between atoms: O4_37  and  C25_38
REMARK   10  A    between atoms: C26_40  and  O9_53
REMARK   11  A    between atoms: C27_42  and  O8_52
REMARK   12  A    between atoms: C28_44  and  O7_51
REMARK   13  A    between atoms: C29_46  and  C30_49
REMARK   14  A    between atoms: C30_49  and  O6_50
REMARK   15  A    between atoms: C33_57  and  C34_58
REMARK   16  A    between atoms: C33_57  and  C35_59
REMARK                            x       y       z     vdW  Elec       q    Type
REMARK                         _______ _______ _______ _____ _____    ______ ____
ROOT
ATOM     10  C   UNL     1      -5.971   0.010  -1.434  0.00  0.00    +0.039 C 
ATOM     11  C   UNL     1      -6.919  -1.104  -0.920  0.00  0.00    +0.170 C 
ATOM     14  C   UNL     1      -8.367  -0.579  -1.131  0.00  0.00    +0.005 C 
ATOM     15  C   UNL     1      -8.195   0.440  -2.261  0.00  0.00    +0.031 C 
ATOM     16  C   UNL     1      -9.243   1.515  -2.355  0.00  0.00    -0.086 C 
ATOM     17  C   UNL     1     -10.335   1.430  -1.663  0.00  0.00    -0.062 C 
ATOM     18  C   UNL     1     -11.412   2.475  -1.701  0.00  0.00    +0.060 C 
ATOM     19  C   UNL     1     -11.357   3.209  -3.046  0.00  0.00    +0.005 C 
ATOM     20  C   UNL     1      -9.921   3.789  -3.229  0.00  0.00    -0.043 C 
ATOM     21  C   UNL     1      -9.569   4.724  -2.070  0.00  0.00    +0.026 C 
ATOM     22  C   UNL     1      -9.859   4.592  -4.532  0.00  0.00    +0.020 C 
ATOM     23  C   UNL     1     -10.856   5.749  -4.474  0.00  0.00    +0.021 C 
ATOM     24  C   UNL     1     -12.269   5.188  -4.295  0.00  0.00    +0.144 C 
ATOM     41  C   UNL     1     -12.371   4.356  -3.015  0.00  0.00    +0.025 C 
ATOM     42  C   UNL     1      -8.905   2.660  -3.287  0.00  0.00    +0.027 C 
ATOM     43  C   UNL     1      -7.497   3.201  -3.051  0.00  0.00    +0.028 C 
ATOM     44  C   UNL     1      -6.461   2.068  -2.953  0.00  0.00    +0.030 C 
ATOM     45  C   UNL     1      -6.886   1.160  -1.823  0.00  0.00    -0.051 C 
ATOM     46  C   UNL     1      -7.174   2.015  -0.588  0.00  0.00    +0.029 C 
ENDROOT
BRANCH  10   9
ATOM      7  C   UNL     1      -2.736  -0.007   0.243  0.00  0.00    +0.213 C 
ATOM      8  C   UNL     1      -4.101  -0.733   0.102  0.00  0.00    +0.058 C 
ATOM      9  C   UNL     1      -5.012   0.447  -0.324  0.00  0.00    -0.025 C 
ATOM     47  C   UNL     1      -4.040   1.492  -0.837  0.00  0.00    +0.484 C 
ATOM     48  O   UNL     1      -4.337   2.601  -1.214  0.00  0.00    -0.426 OA
ATOM     49  O   UNL     1      -2.790   0.987  -0.802  0.00  0.00    -0.333 OA
BRANCH   7   3
ATOM      1  C   UNL     1      -2.179  -2.019   2.336  0.00  0.00    +0.071 C 
ATOM      2  C   UNL     1      -1.290  -2.020   1.091  0.00  0.00    +0.134 C 
ATOM      3  C   UNL     1      -1.578  -0.979   0.008  0.00  0.00    +0.025 C 
ATOM     50  O   UNL     1      -1.893  -2.365  -0.158  0.00  0.00    -0.329 OA
BRANCH   3   4
ATOM      4  C   UNL     1      -0.390  -0.419  -0.777  0.00  0.00    +0.023 C 
ATOM      5  C   UNL     1       0.379  -1.571  -1.429  0.00  0.00    +0.030 C 
ATOM      6  C   UNL     1       0.538   0.340   0.174  0.00  0.00    +0.036 C 
ENDBRANCH   3   4
ENDBRANCH   7   3
ENDBRANCH  10   9
BRANCH  11  12
ATOM     12  O   UNL     1      -6.717  -2.305  -1.669  0.00  0.00    -0.561 OA
ATOM     13  H   UNL     1      -7.282  -3.039  -1.394  0.00  0.00    +0.379 HD
ENDBRANCH  11  12
BRANCH  24  25
ATOM     25  O   UNL     1     -13.208   6.263  -4.255  0.00  0.00    -0.360 OA
BRANCH  25  26
ATOM     26  C   UNL     1     -13.727   6.630  -5.535  0.00  0.00    +0.316 C 
ATOM     27  C   UNL     1     -14.809   7.699  -5.361  0.00  0.00    +0.140 C 
ATOM     30  C   UNL     1     -14.183   8.950  -4.737  0.00  0.00    +0.153 C 
ATOM     33  C   UNL     1     -13.030   9.429  -5.626  0.00  0.00    +0.166 C 
ATOM     36  C   UNL     1     -12.017   8.293  -5.790  0.00  0.00    +0.200 C 
ATOM     40  O   UNL     1     -12.671   7.150  -6.346  0.00  0.00    -0.372 OA
BRANCH  27  28
ATOM     28  O   UNL     1     -15.839   7.202  -4.505  0.00  0.00    -0.548 OA
ATOM     29  H   UNL     1     -16.276   6.406  -4.837  0.00  0.00    +0.386 HD
ENDBRANCH  27  28
BRANCH  30  31
ATOM     31  O   UNL     1     -13.686   8.638  -3.434  0.00  0.00    -0.529 OA
ATOM     32  H   UNL     1     -14.363   8.322  -2.821  0.00  0.00    +0.384 HD
ENDBRANCH  30  31
BRANCH  33  34
ATOM     34  O   UNL     1     -12.393  10.554  -5.018  0.00  0.00    -0.543 OA
ATOM     35  H   UNL     1     -12.979  11.310  -4.879  0.00  0.00    +0.384 HD
ENDBRANCH  33  34
BRANCH  36  37
ATOM     37  C   UNL     1     -10.893   8.742  -6.725  0.00  0.00    +0.207 C 
BRANCH  37  38
ATOM     38  O   UNL     1      -9.890   7.727  -6.787  0.00  0.00    -0.562 OA
ATOM     39  H   UNL     1      -9.144   7.945  -7.363  0.00  0.00    +0.380 HD
ENDBRANCH  37  38
ENDBRANCH  36  37
ENDBRANCH  25  26
ENDBRANCH  24  25
TORSDOF 11
