REMARK  Name = ZINC95486364
REMARK  4 active torsions:
REMARK  status: ('A' for Active; 'I' for Inactive)
REMARK    1  A    between atoms: C1_1  and  C2_2
REMARK    2  A    between atoms: C8_11  and  O4_29
REMARK    3  A    between atoms: C15_22  and  C16_23
REMARK    4  A    between atoms: C15_22  and  C17_24
REMARK                            x       y       z     vdW  Elec       q    Type
REMARK                         _______ _______ _______ _____ _____    ______ ____
ROOT
ATOM      1  C   UNL     1      -0.042   1.375  -0.091  0.00  0.00    +0.087 C 
ATOM      2  C   UNL     1       0.047  -0.149  -0.149  0.00  0.00    +0.022 C 
ATOM      3  C   UNL     1      -0.069  -0.810  -1.523  0.00  0.00    +0.054 C 
ATOM      4  C   UNL     1       0.389   0.050  -2.678  0.00  0.00    +0.065 C 
ATOM      5  C   UNL     1       1.891   0.015  -2.926  0.00  0.00    +0.129 C 
ATOM      6  C   UNL     1       2.746  -1.188  -2.564  0.00  0.00    +0.124 C 
ATOM      7  C   UNL     1       4.228  -0.969  -2.228  0.00  0.00    +0.030 C 
ATOM      8  C   UNL     1       4.543  -1.581  -0.864  0.00  0.00    +0.181 C 
ATOM     11  C   UNL     1       5.130  -0.564   0.106  0.00  0.00    +0.072 C 
ATOM     12  C   UNL     1       5.901  -1.281   1.187  0.00  0.00    -0.196 C 
ATOM     13  C   UNL     1       5.283  -1.673   2.447  0.00  0.00    +0.396 C 
ATOM     14  C   UNL     1       3.880  -1.258   2.815  0.00  0.00    +0.043 C 
ATOM     15  C   UNL     1       3.153  -0.751   1.572  0.00  0.00    -0.003 C 
ATOM     16  C   UNL     1       1.749  -0.234   1.879  0.00  0.00    +0.068 C 
ATOM     17  O   UNL     1       5.923  -2.341   3.233  0.00  0.00    -0.466 OA
ATOM     18  C   UNL     1       7.192  -1.545   0.993  0.00  0.00    +0.154 C 
ATOM     19  C   UNL     1       4.024   0.237   0.811  0.00  0.00    -0.046 C 
ATOM     20  C   UNL     1       3.233   1.053  -0.203  0.00  0.00    +0.038 C 
ATOM     21  C   UNL     1       4.686   1.224   1.787  0.00  0.00    +0.032 C 
ATOM     22  O   UNL     1       2.359  -0.915  -3.916  0.00  0.00    -0.362 OA
ATOM     23  O   UNL     1      -0.599  -0.799   0.965  0.00  0.00    -0.353 OA
ATOM     24  C   UNL     1       0.812  -0.942   0.904  0.00  0.00    +0.117 C 
ENDROOT
BRANCH   8   9
ATOM      9  O   UNL     1       5.481  -2.652  -1.062  0.00  0.00    -0.565 OA
ATOM     10  H   UNL     1       5.157  -3.357  -1.638  0.00  0.00    +0.379 HD
ENDBRANCH   8   9
TORSDOF 1
