REMARK  Name = ZINC95486021
REMARK  11 active torsions:
REMARK  status: ('A' for Active; 'I' for Inactive)
REMARK    1  A    between atoms: C1_1  and  C2_2
REMARK    2  A    between atoms: C8_8  and  O4_32
REMARK    3  A    between atoms: C10_10  and  O3_31
REMARK    4  A    between atoms: C11_11  and  C12_12
REMARK    5  A    between atoms: C13_14  and  O2_29
REMARK    6  A    between atoms: C17_19  and  C20_24
REMARK    7  A    between atoms: C18_22  and  C19_23
REMARK    8  A    between atoms: C22_26  and  O1_27
REMARK    9  A    between atoms: O1_27  and  C23_28
REMARK   10  A    between atoms: O2_29  and  C24_30
REMARK   11  A    between atoms: O4_32  and  C25_33
REMARK                            x       y       z     vdW  Elec       q    Type
REMARK                         _______ _______ _______ _____ _____    ______ ____
ROOT
ATOM     16  C   UNL     1      -0.095   0.360   2.309  0.00  0.00    +0.117 C 
ATOM     17  C   UNL     1       1.265   0.377   3.007  0.00  0.00    +0.241 C 
ATOM     20  C   UNL     1       1.487  -0.931   3.719  0.00  0.00    -0.241 C 
ATOM     21  C   UNL     1       0.443  -1.569   4.307  0.00  0.00    +0.038 C 
ATOM     22  C   UNL     1      -0.864  -1.054   4.190  0.00  0.00    -0.194 C 
ATOM     23  C   UNL     1       0.692  -2.845   5.072  0.00  0.00    +0.054 C 
ATOM     24  C   UNL     1       1.826  -3.622   4.404  0.00  0.00    +0.147 C 
ATOM     25  C   UNL     1       2.287  -4.746   5.335  0.00  0.00    +0.050 C 
ATOM     26  N   UNL     1       2.954  -2.733   4.128  0.00  0.00    -0.529 NA
ATOM     27  C   UNL     1       2.778  -1.494   3.795  0.00  0.00    +0.221 C 
ATOM     28  C   UNL     1       3.977  -0.636   3.482  0.00  0.00    +0.114 C 
ATOM     29  C   UNL     1      -1.153  -0.129   3.263  0.00  0.00    +0.228 C 
ENDROOT
BRANCH  16  15
ATOM      1  C   UNL     1       1.664   0.991   0.118  0.00  0.00    +0.098 C 
ATOM      2  C   UNL     1       0.817  -0.255   0.056  0.00  0.00    -0.044 A 
ATOM      3  C   UNL     1       0.899  -1.067  -1.034  0.00  0.00    +0.011 A 
ATOM      4  C   UNL     1       0.114  -2.231  -1.101  0.00  0.00    +0.004 A 
ATOM      5  C   UNL     1       0.180  -3.087  -2.214  0.00  0.00    -0.021 A 
ATOM      6  C   UNL     1      -0.591  -4.208  -2.254  0.00  0.00    +0.061 A 
ATOM      7  C   UNL     1      -1.451  -4.527  -1.207  0.00  0.00    -0.101 A 
ATOM      8  C   UNL     1      -1.544  -3.712  -0.100  0.00  0.00    +0.156 A 
ATOM     11  C   UNL     1      -0.757  -2.546  -0.030  0.00  0.00    -0.102 A 
ATOM     12  C   UNL     1      -0.822  -1.687   1.084  0.00  0.00    +0.162 A 
ATOM     15  C   UNL     1      -0.033  -0.559   1.116  0.00  0.00    -0.112 A 
BRANCH   8   9
ATOM      9  O   UNL     1      -2.387  -4.031   0.916  0.00  0.00    -0.298 OA
ATOM     10  C   UNL     1      -3.152  -5.230   0.772  0.00  0.00    +0.240 C 
ENDBRANCH   8   9
BRANCH  12  13
ATOM     13  O   UNL     1      -1.651  -1.972   2.121  0.00  0.00    -0.468 OA
ATOM     14  H   UNL     1      -1.277  -2.587   2.766  0.00  0.00    +0.390 HD
ENDBRANCH  12  13
ENDBRANCH  16  15
BRANCH  17  18
ATOM     18  O   UNL     1       1.299   1.445   3.957  0.00  0.00    -0.374 OA
ATOM     19  C   UNL     1       2.600   1.996   4.166  0.00  0.00    +0.200 C 
ENDBRANCH  17  18
BRANCH  29  30
ATOM     30  O   UNL     1      -2.406   0.369   3.184  0.00  0.00    -0.299 OA
ATOM     31  C   UNL     1      -3.363  -0.136   4.117  0.00  0.00    +0.250 C 
ENDBRANCH  29  30
TORSDOF 5
