REMARK  Name = ZINC95486362
REMARK  4 active torsions:
REMARK  status: ('A' for Active; 'I' for Inactive)
REMARK    1  A    between atoms: C1_1  and  C2_2
REMARK    2  A    between atoms: C6_7  and  C18_26
REMARK    3  A    between atoms: C6_7  and  C19_27
REMARK    4  A    between atoms: C19_27  and  O4_28
REMARK                            x       y       z     vdW  Elec       q    Type
REMARK                         _______ _______ _______ _____ _____    ______ ____
ROOT
ATOM      1  C   UNL     1      -0.083   1.510   0.129  0.00  0.00    +0.040 C 
ATOM      2  C   UNL     1      -0.041  -0.025   0.099  0.00  0.00    -0.040 C 
ATOM      3  C   UNL     1       0.464  -0.478  -1.273  0.00  0.00    +0.049 C 
ATOM      4  C   UNL     1       1.886   0.040  -1.511  0.00  0.00    +0.019 C 
ATOM      5  C   UNL     1       2.760  -0.512  -0.409  0.00  0.00    +0.362 C 
ATOM      6  C   UNL     1       2.334  -0.336   1.029  0.00  0.00    -0.088 C 
ATOM     10  C   UNL     1       2.775   1.042   1.520  0.00  0.00    +0.067 C 
ATOM     11  O   UNL     1       3.790  -1.094  -0.673  0.00  0.00    -0.429 OA
ATOM     12  C   UNL     1      -1.486  -0.522   0.278  0.00  0.00    +0.050 C 
ATOM     13  C   UNL     1      -1.794  -1.556  -0.812  0.00  0.00    +0.075 C 
ATOM     14  C   UNL     1      -2.984  -2.431  -0.388  0.00  0.00    +0.072 C 
ATOM     15  C   UNL     1      -2.580  -3.262   0.868  0.00  0.00    -0.084 C 
ATOM     16  C   UNL     1      -1.416  -2.636   1.650  0.00  0.00    +0.409 C 
ATOM     17  O   UNL     1      -0.478  -3.205   2.156  0.00  0.00    -0.405 OA
ATOM     18  C   UNL     1      -3.713  -2.230   0.928  0.00  0.00    -0.043 C 
ATOM     19  C   UNL     1      -3.245  -1.127   1.859  0.00  0.00    +0.402 C 
ATOM     20  O   UNL     1      -3.892  -0.415   2.586  0.00  0.00    -0.401 OA
ATOM     21  C   UNL     1      -1.720  -1.153   1.643  0.00  0.00    -0.159 C 
ATOM     22  C   UNL     1      -1.088  -0.418   2.800  0.00  0.00    +0.047 C 
ATOM     23  C   UNL     1       0.375  -0.063   2.567  0.00  0.00    +0.038 C 
ATOM     24  C   UNL     1       0.841  -0.573   1.207  0.00  0.00    +0.014 C 
ENDROOT
BRANCH   6   7
ATOM      7  C   UNL     1       3.096  -1.392   1.861  0.00  0.00    +0.184 C 
BRANCH   7   8
ATOM      8  O   UNL     1       4.503  -1.182   1.723  0.00  0.00    -0.556 OA
ATOM      9  H   UNL     1       5.045  -1.811   2.219  0.00  0.00    +0.378 HD
ENDBRANCH   7   8
ENDBRANCH   6   7
TORSDOF 2
