REMARK  Name = ZINC95485888
REMARK  18 active torsions:
REMARK  status: ('A' for Active; 'I' for Inactive)
REMARK    1  A    between atoms: C1_1  and  N1_2
REMARK    2  A    between atoms: C6_7  and  O6_51
REMARK    3  A    between atoms: C7_8  and  C19_22
REMARK    4  A    between atoms: C10_11  and  C11_13
REMARK    5  A    between atoms: C11_13  and  C12_14
REMARK    6  A    between atoms: C17_19  and  O1_20
REMARK    7  A    between atoms: O1_20  and  C18_21
REMARK    8  A    between atoms: C19_22  and  C20_23
REMARK    9  A    between atoms: C24_27  and  O3_31
REMARK   10  A    between atoms: C25_28  and  O2_29
REMARK   11  A    between atoms: O2_29  and  C26_30
REMARK   12  A    between atoms: O3_31  and  C27_32
REMARK   13  A    between atoms: C31_37  and  O5_49
REMARK   14  A    between atoms: C32_38  and  O4_47
REMARK   15  A    between atoms: N2_45  and  C38_46
REMARK   16  A    between atoms: O4_47  and  C39_48
REMARK   17  A    between atoms: O5_49  and  C40_50
REMARK   18  A    between atoms: O6_51  and  C41_52
REMARK                            x       y       z     vdW  Elec       q    Type
REMARK                         _______ _______ _______ _____ _____    ______ ____
ROOT
ATOM     13  C   UNL     1       0.359  -5.263   4.516  0.00  0.00    -0.069 A 
ATOM     14  C   UNL     1      -0.746  -4.577   5.020  0.00  0.00    -0.057 A 
ATOM     15  C   UNL     1      -1.953  -5.206   5.135  0.00  0.00    -0.102 A 
ATOM     16  C   UNL     1      -3.223  -4.588   5.625  0.00  0.00    +0.299 C 
ATOM     17  C   UNL     1      -3.579  -3.280   5.007  0.00  0.00    -0.137 A 
ATOM     18  C   UNL     1      -4.639  -3.112   4.143  0.00  0.00    +0.015 A 
ATOM     19  C   UNL     1      -4.914  -1.850   3.634  0.00  0.00    +0.111 A 
ATOM     22  C   UNL     1      -4.127  -0.760   3.996  0.00  0.00    +0.141 A 
ATOM     25  C   UNL     1      -3.054  -0.939   4.860  0.00  0.00    -0.011 A 
ATOM     26  C   UNL     1      -2.784  -2.192   5.347  0.00  0.00    -0.074 A 
ATOM     27  C   UNL     1      -1.618  -2.517   6.233  0.00  0.00    +0.070 C 
ATOM     28  C   UNL     1      -2.089  -3.355   7.411  0.00  0.00    +0.261 C 
ATOM     29  N   UNL     1      -3.061  -4.365   7.075  0.00  0.00    -0.377 N 
ATOM     30  H   UNL     1      -3.953  -4.098   7.464  0.00  0.00    +0.427 HD
ATOM     31  C   UNL     1      -2.635  -5.623   7.702  0.00  0.00    +0.322 C 
ATOM     32  C   UNL     1      -2.054  -6.550   4.753  0.00  0.00    -0.052 A 
ATOM     33  C   UNL     1      -0.966  -7.236   4.257  0.00  0.00    +0.120 A 
ATOM     36  C   UNL     1      -0.520  -3.156   5.422  0.00  0.00    +0.106 C 
ATOM     37  C   UNL     1       0.257  -6.584   4.126  0.00  0.00    +0.123 A 
ENDROOT
BRANCH  19  20
ATOM     20  O   UNL     1      -5.957  -1.678   2.779  0.00  0.00    -0.297 OA
ATOM     21  C   UNL     1      -6.725  -2.838   2.450  0.00  0.00    +0.251 C 
ENDBRANCH  19  20
BRANCH  22  23
ATOM     23  O   UNL     1      -4.408   0.476   3.504  0.00  0.00    -0.288 OA
ATOM     24  C   UNL     1      -3.558   1.547   3.918  0.00  0.00    +0.243 C 
ENDBRANCH  22  23
BRANCH  33  34
ATOM     34  O   UNL     1      -1.089  -8.540   3.891  0.00  0.00    -0.296 OA
ATOM     35  C   UNL     1      -2.377  -9.140   4.048  0.00  0.00    +0.250 C 
ENDBRANCH  33  34
BRANCH  37  38
ATOM     38  O   UNL     1       1.338  -7.240   3.627  0.00  0.00    -0.297 OA
ATOM     39  C   UNL     1       2.171  -7.925   4.565  0.00  0.00    +0.232 C 
ENDBRANCH  37  38
BRANCH  13  12
ATOM     12  C   UNL     1       1.681  -4.552   4.388  0.00  0.00    +0.153 C 
BRANCH  12  11
ATOM      1  C   UNL     1       0.900   1.370   0.070  0.00  0.00    +0.317 C 
ATOM      2  N   UNL     1       1.021  -0.091   0.167  0.00  0.00    -0.376 N 
ATOM      3  H   UNL     1       0.155  -0.522  -0.120  0.00  0.00    +0.424 HD
ATOM      4  C   UNL     1       2.114  -0.553  -0.702  0.00  0.00    +0.268 C 
ATOM      5  C   UNL     1       2.028  -2.074  -0.828  0.00  0.00    +0.121 C 
ATOM      6  C   UNL     1       1.934  -2.695   0.542  0.00  0.00    -0.037 A 
ATOM      7  C   UNL     1       2.192  -4.050   0.676  0.00  0.00    -0.060 A 
ATOM      8  C   UNL     1       2.112  -4.656   1.920  0.00  0.00    +0.173 A 
ATOM     11  C   UNL     1       1.772  -3.900   3.033  0.00  0.00    -0.104 A 
ATOM     40  C   UNL     1       1.518  -2.552   2.895  0.00  0.00    +0.082 A 
ATOM     41  C   UNL     1       1.599  -1.945   1.650  0.00  0.00    -0.169 A 
ATOM     42  C   UNL     1       1.321  -0.468   1.551  0.00  0.00    +0.235 C 
BRANCH   8   9
ATOM      9  O   UNL     1       2.365  -5.985   2.048  0.00  0.00    -0.270 OA
ATOM     10  C   UNL     1       2.708  -6.698   0.858  0.00  0.00    +0.247 C 
ENDBRANCH   8   9
BRANCH  42  43
ATOM     43  C   UNL     1       0.125  -0.120   2.439  0.00  0.00    +0.128 C 
BRANCH  43  44
ATOM     44  C   UNL     1      -0.016   1.378   2.529  0.00  0.00    -0.159 A 
ATOM     45  C   UNL     1       0.989   2.133   3.103  0.00  0.00    +0.051 A 
ATOM     46  C   UNL     1       0.861   3.507   3.186  0.00  0.00    -0.006 A 
ATOM     47  C   UNL     1      -0.272   4.130   2.694  0.00  0.00    +0.076 A 
ATOM     48  C   UNL     1      -1.279   3.379   2.119  0.00  0.00    -0.063 A 
ATOM     49  C   UNL     1      -1.151   2.000   2.030  0.00  0.00    +0.120 A 
BRANCH  49  50
ATOM     50  O   UNL     1      -2.137   1.260   1.460  0.00  0.00    -0.320 OA
ATOM     51  C   UNL     1      -3.277   1.968   0.968  0.00  0.00    +0.256 C 
ENDBRANCH  49  50
ENDBRANCH  43  44
ENDBRANCH  42  43
ENDBRANCH  12  11
ENDBRANCH  13  12
TORSDOF 10
