REMARK  Name = ZINC95486209
REMARK  8 active torsions:
REMARK  status: ('A' for Active; 'I' for Inactive)
REMARK    1  A    between atoms: C1_1  and  O1_2
REMARK    2  A    between atoms: O1_2  and  C2_3
REMARK    3  A    between atoms: C3_4  and  O8_23
REMARK    4  A    between atoms: C5_6  and  O7_22
REMARK    5  A    between atoms: C10_12  and  O6_21
REMARK    6  A    between atoms: C11_13  and  O5_19
REMARK    7  A    between atoms: C12_14  and  O4_18
REMARK    8  A    between atoms: O5_19  and  C15_20
REMARK                            x       y       z     vdW  Elec       q    Type
REMARK                         _______ _______ _______ _____ _____    ______ ____
ROOT
ATOM      3  C   UNL     1      -1.203  -0.639   0.010  0.00  0.00    +0.034 A 
ATOM      4  C   UNL     1      -1.807  -0.963   1.218  0.00  0.00    +0.176 A 
ATOM      7  C   UNL     1      -3.035  -1.612   1.245  0.00  0.00    -0.034 A 
ATOM      8  C   UNL     1      -3.672  -1.939   0.061  0.00  0.00    +0.217 A 
ATOM     11  C   UNL     1      -3.073  -1.608  -1.160  0.00  0.00    -0.254 A 
ATOM     12  C   UNL     1      -3.733  -1.924  -2.440  0.00  0.00    +0.444 A 
ATOM     13  O   UNL     1      -4.690  -2.675  -2.505  0.00  0.00    -0.412 OA
ATOM     14  C   UNL     1      -3.171  -1.262  -3.635  0.00  0.00    -0.254 A 
ATOM     15  C   UNL     1      -3.864  -1.259  -4.851  0.00  0.00    +0.201 A 
ATOM     18  C   UNL     1      -3.312  -0.618  -5.949  0.00  0.00    +0.013 A 
ATOM     21  C   UNL     1      -2.075   0.013  -5.836  0.00  0.00    +0.175 A 
ATOM     24  C   UNL     1      -1.384   0.004  -4.636  0.00  0.00    -0.010 A 
ATOM     25  C   UNL     1      -1.918  -0.635  -3.525  0.00  0.00    +0.183 A 
ATOM     26  O   UNL     1      -1.233  -0.647  -2.362  0.00  0.00    -0.208 OA
ATOM     27  C   UNL     1      -1.828  -0.956  -1.191  0.00  0.00    +0.171 A 
ENDROOT
BRANCH   3   2
ATOM      1  C   UNL     1      -0.017   1.425   0.010  0.00  0.00    +0.227 C 
ATOM      2  O   UNL     1       0.002  -0.004   0.002  0.00  0.00    -0.309 OA
ENDBRANCH   3   2
BRANCH   4   5
ATOM      5  O   UNL     1      -1.191  -0.642   2.385  0.00  0.00    -0.474 OA
ATOM      6  H   UNL     1      -1.425   0.232   2.727  0.00  0.00    +0.400 HD
ENDBRANCH   4   5
BRANCH   8   9
ATOM      9  O   UNL     1      -4.870  -2.577   0.084  0.00  0.00    -0.470 OA
ATOM     10  H   UNL     1      -5.632  -1.982   0.098  0.00  0.00    +0.403 HD
ENDBRANCH   8   9
BRANCH  15  16
ATOM     16  O   UNL     1      -5.067  -1.880  -4.955  0.00  0.00    -0.463 OA
ATOM     17  H   UNL     1      -5.009  -2.809  -5.218  0.00  0.00    +0.402 HD
ENDBRANCH  15  16
BRANCH  18  19
ATOM     19  O   UNL     1      -3.979  -0.604  -7.137  0.00  0.00    -0.309 OA
ATOM     20  C   UNL     1      -3.714  -1.678  -8.041  0.00  0.00    +0.224 C 
ENDBRANCH  18  19
BRANCH  21  22
ATOM     22  O   UNL     1      -1.542   0.645  -6.914  0.00  0.00    -0.475 OA
ATOM     23  H   UNL     1      -0.984   0.079  -7.465  0.00  0.00    +0.400 HD
ENDBRANCH  21  22
TORSDOF 6
