REMARK  Name = ZINC05230095
REMARK  8 active torsions:
REMARK  status: ('A' for Active; 'I' for Inactive)
REMARK    1  A    between atoms: C1_1  and  C2_2
REMARK    2  A    between atoms: C2_2  and  C3_3
REMARK    3  A    between atoms: C2_2  and  C4_4
REMARK    4  A    between atoms: C2_2  and  C6_6
REMARK    5  A    between atoms: C7_7  and  O3_21
REMARK    6  A    between atoms: C9_9  and  C11_13
REMARK    7  A    between atoms: C12_14  and  C13_15
REMARK    8  A    between atoms: O3_21  and  C19_22
REMARK                            x       y       z     vdW  Elec       q    Type
REMARK                         _______ _______ _______ _____ _____    ______ ____
ROOT
ATOM      3  C   UNL     1       0.708  -0.610  -1.224  0.00  0.00    -0.250 A 
ATOM      4  C   UNL     1       1.851  -1.379  -1.065  0.00  0.00    +0.215 A 
ATOM      7  C   UNL     1       2.579  -1.756  -2.207  0.00  0.00    -0.112 A 
ATOM      8  C   UNL     1       2.144  -1.356  -3.451  0.00  0.00    +0.197 A 
ATOM     17  O   UNL     1       1.030  -0.609  -3.583  0.00  0.00    -0.267 OA
ATOM     18  C   UNL     1       0.309  -0.236  -2.511  0.00  0.00    +0.510 A 
ATOM     19  O   UNL     1      -0.698   0.436  -2.662  0.00  0.00    -0.458 OA
ENDROOT
BRANCH   3   2
ATOM      1  C   UNL     1      -0.269   1.334  -0.034  0.00  0.00    +0.041 C 
ATOM      2  C   UNL     1      -0.098  -0.187  -0.023  0.00  0.00    +0.036 C 
ATOM     22  C   UNL     1       0.629  -0.610   1.255  0.00  0.00    +0.057 C 
BRANCH   2  20
ATOM     20  C   UNL     1      -1.453  -0.844  -0.071  0.00  0.00    -0.047 C 
ATOM     21  C   UNL     1      -2.537  -0.109  -0.113  0.00  0.00    +0.025 C 
ENDBRANCH   2  20
ENDBRANCH   3   2
BRANCH   4   5
ATOM      5  O   UNL     1       2.259  -1.760   0.169  0.00  0.00    -0.312 OA
ATOM      6  C   UNL     1       2.262  -3.161   0.448  0.00  0.00    +0.241 C 
ENDBRANCH   4   5
BRANCH   8   9
ATOM      9  C   UNL     1       2.899  -1.746  -4.641  0.00  0.00    +0.004 C 
ATOM     10  C   UNL     1       2.479  -1.359  -5.863  0.00  0.00    +0.106 C 
BRANCH  10  11
ATOM     11  C   UNL     1       3.239  -1.751  -7.061  0.00  0.00    -0.082 A 
ATOM     12  C   UNL     1       4.393  -2.531  -6.937  0.00  0.00    +0.027 A 
ATOM     13  C   UNL     1       5.099  -2.896  -8.064  0.00  0.00    +0.005 A 
ATOM     14  C   UNL     1       4.668  -2.491  -9.316  0.00  0.00    +0.021 A 
ATOM     15  C   UNL     1       3.527  -1.719  -9.447  0.00  0.00    +0.006 A 
ATOM     16  C   UNL     1       2.807  -1.351  -8.329  0.00  0.00    +0.037 A 
ENDBRANCH  10  11
ENDBRANCH   8   9
TORSDOF 5
