REMARK  Name = ZINC95485944
REMARK  17 active torsions:
REMARK  status: ('A' for Active; 'I' for Inactive)
REMARK    1  A    between atoms: C1_1  and  C2_2
REMARK    2  A    between atoms: C2_2  and  C3_3
REMARK    3  A    between atoms: C3_3  and  C4_5
REMARK    4  A    between atoms: C3_3  and  C32_48
REMARK    5  A    between atoms: C4_5  and  C5_6
REMARK    6  A    between atoms: C5_6  and  C6_7
REMARK    7  A    between atoms: C6_7  and  C7_9
REMARK    8  A    between atoms: C6_7  and  C8_10
REMARK    9  A    between atoms: C12_16  and  C31_47
REMARK   10  A    between atoms: C20_26  and  C30_46
REMARK   11  A    between atoms: C24_30  and  O1_32
REMARK   12  A    between atoms: O1_32  and  C25_33
REMARK   13  A    between atoms: C26_35  and  O5_45
REMARK   14  A    between atoms: C27_37  and  O4_44
REMARK   15  A    between atoms: C28_39  and  O3_43
REMARK   16  A    between atoms: C32_48  and  C33_49
REMARK   17  A    between atoms: C32_48  and  C34_50
REMARK                            x       y       z     vdW  Elec       q    Type
REMARK                         _______ _______ _______ _____ _____    ______ ____
ROOT
ATOM     10  C   UNL     1       3.540   3.408  -0.304  0.00  0.00    -0.001 C 
ATOM     11  C   UNL     1       3.107   4.107  -1.609  0.00  0.00    +0.004 C 
ATOM     12  C   UNL     1       4.253   5.068  -1.993  0.00  0.00    +0.002 C 
ATOM     13  C   UNL     1       5.505   4.450  -1.300  0.00  0.00    +0.003 C 
ATOM     14  C   UNL     1       5.945   3.270  -2.173  0.00  0.00    +0.008 C 
ATOM     15  C   UNL     1       6.715   3.840  -3.374  0.00  0.00    +0.059 C 
ATOM     16  C   UNL     1       7.313   2.724  -4.176  0.00  0.00    -0.026 C 
ATOM     17  C   UNL     1       7.543   1.542  -3.700  0.00  0.00    -0.108 C 
ATOM     18  C   UNL     1       7.232   1.123  -2.258  0.00  0.00    -0.006 C 
ATOM     19  C   UNL     1       8.487   0.473  -1.672  0.00  0.00    +0.025 C 
ATOM     20  C   UNL     1       6.120   0.078  -2.244  0.00  0.00    +0.025 C 
ATOM     21  C   UNL     1       6.139  -0.724  -3.545  0.00  0.00    +0.013 C 
ATOM     22  C   UNL     1       7.566  -0.910  -4.056  0.00  0.00    -0.003 C 
ATOM     23  C   UNL     1       8.129   0.468  -4.602  0.00  0.00    +0.202 C 
ATOM     37  C   UNL     1       6.866   2.322  -1.391  0.00  0.00    +0.000 C 
ATOM     38  C   UNL     1       6.130   1.807  -0.146  0.00  0.00    +0.013 C 
ATOM     39  C   UNL     1       5.804   2.991   0.760  0.00  0.00    +0.021 C 
ATOM     40  C   UNL     1       4.918   3.986   0.045  0.00  0.00    -0.048 C 
ATOM     41  C   UNL     1       4.732   5.203   0.953  0.00  0.00    +0.016 C 
ENDROOT
BRANCH  10   9
ATOM      9  C   UNL     1       3.641   1.897  -0.522  0.00  0.00    +0.000 C 
ATOM     42  C   UNL     1       4.004   1.214   0.798  0.00  0.00    +0.003 C 
BRANCH   9   8
ATOM      8  C   UNL     1       2.297   1.363  -1.021  0.00  0.00    +0.006 C 
BRANCH   8   7
ATOM      7  C   UNL     1       2.432  -0.123  -1.358  0.00  0.00    +0.008 C 
BRANCH   7   3
ATOM      3  C   UNL     1       1.064  -0.684  -1.750  0.00  0.00    -0.015 C 
BRANCH   3   4
ATOM      4  C   UNL     1       0.059  -0.408  -0.630  0.00  0.00    -0.021 C 
ATOM      5  C   UNL     1       0.536  -1.081   0.659  0.00  0.00    +0.011 C 
ATOM      6  C   UNL     1      -1.309  -0.969  -1.022  0.00  0.00    +0.008 C 
ENDBRANCH   3   4
BRANCH   3   2
ATOM      1  C   UNL     1       1.546  -0.358  -4.180  0.00  0.00    +0.004 C 
ATOM      2  C   UNL     1       0.588  -0.011  -3.039  0.00  0.00    +0.001 C 
ENDBRANCH   3   2
ENDBRANCH   7   3
ENDBRANCH   8   7
ENDBRANCH   9   8
ENDBRANCH  10   9
BRANCH  23  24
ATOM     24  O   UNL     1       9.556   0.488  -4.522  0.00  0.00    -0.344 OA
BRANCH  24  25
ATOM     25  C   UNL     1      10.211   0.067  -5.720  0.00  0.00    +0.286 C 
ATOM     26  C   UNL     1      11.707  -0.111  -5.449  0.00  0.00    +0.185 C 
ATOM     29  C   UNL     1      12.411  -0.504  -6.751  0.00  0.00    +0.200 C 
ATOM     32  C   UNL     1      12.136   0.567  -7.811  0.00  0.00    +0.125 C 
ATOM     35  C   UNL     1      10.624   0.718  -7.991  0.00  0.00    +0.210 C 
ATOM     36  O   UNL     1      10.027   1.054  -6.737  0.00  0.00    -0.386 OA
BRANCH  26  27
ATOM     27  O   UNL     1      12.253   1.116  -4.961  0.00  0.00    -0.538 OA
ATOM     28  H   UNL     1      11.849   1.427  -4.139  0.00  0.00    +0.387 HD
ENDBRANCH  26  27
BRANCH  29  30
ATOM     30  O   UNL     1      13.819  -0.603  -6.522  0.00  0.00    -0.545 OA
ATOM     31  H   UNL     1      14.328  -0.849  -7.306  0.00  0.00    +0.388 HD
ENDBRANCH  29  30
BRANCH  32  33
ATOM     33  O   UNL     1      12.729   0.175  -9.050  0.00  0.00    -0.563 OA
ATOM     34  H   UNL     1      12.594   0.809  -9.768  0.00  0.00    +0.387 HD
ENDBRANCH  32  33
ENDBRANCH  24  25
ENDBRANCH  23  24
TORSDOF 11
