REMARK  Name = ZINC14727623
REMARK  13 active torsions:
REMARK  status: ('A' for Active; 'I' for Inactive)
REMARK    1  A    between atoms: C1_1  and  C2_2
REMARK    2  A    between atoms: C2_2  and  C24_30
REMARK    3  A    between atoms: C3_3  and  C4_4
REMARK    4  A    between atoms: C4_4  and  C5_5
REMARK    5  A    between atoms: C6_6  and  O6_29
REMARK    6  A    between atoms: C10_11  and  O5_28
REMARK    7  A    between atoms: C13_14  and  O4_27
REMARK    8  A    between atoms: C16_18  and  C19_22
REMARK    9  A    between atoms: C17_19  and  O3_20
REMARK   10  A    between atoms: O3_20  and  C18_21
REMARK   11  A    between atoms: C19_22  and  C20_23
REMARK   12  A    between atoms: C21_24  and  C22_25
REMARK   13  A    between atoms: C21_24  and  C23_26
REMARK                            x       y       z     vdW  Elec       q    Type
REMARK                         _______ _______ _______ _____ _____    ______ ____
ROOT
ATOM      6  C   UNL     1       1.228  -4.270  -1.864  0.00  0.00    -0.153 A 
ATOM      7  C   UNL     1       0.953  -3.654  -3.071  0.00  0.00    +0.216 A 
ATOM     10  C   UNL     1       0.245  -2.444  -3.084  0.00  0.00    -0.261 A 
ATOM     11  C   UNL     1      -0.063  -1.765  -4.353  0.00  0.00    +0.439 A 
ATOM     12  C   UNL     1      -0.826  -0.505  -4.266  0.00  0.00    -0.248 A 
ATOM     13  C   UNL     1      -1.167   0.208  -5.422  0.00  0.00    +0.196 A 
ATOM     16  C   UNL     1      -1.875   1.393  -5.310  0.00  0.00    -0.017 A 
ATOM     17  C   UNL     1      -2.242   1.867  -4.062  0.00  0.00    +0.092 A 
ATOM     18  C   UNL     1      -1.910   1.170  -2.914  0.00  0.00    +0.072 A 
ATOM     21  C   UNL     1      -1.198  -0.025  -3.002  0.00  0.00    +0.155 A 
ATOM     22  O   UNL     1      -0.875  -0.701  -1.879  0.00  0.00    -0.209 OA
ATOM     23  O   UNL     1       0.285  -2.227  -5.425  0.00  0.00    -0.418 OA
ATOM     24  C   UNL     1      -0.189  -1.862  -1.880  0.00  0.00    +0.190 A 
ATOM     25  C   UNL     1       0.102  -2.495  -0.680  0.00  0.00    -0.126 A 
ATOM     31  C   UNL     1       0.803  -3.691  -0.674  0.00  0.00    +0.182 A 
ENDROOT
BRANCH   7   8
ATOM      8  O   UNL     1       1.367  -4.215  -4.234  0.00  0.00    -0.468 OA
ATOM      9  H   UNL     1       0.726  -4.824  -4.627  0.00  0.00    +0.399 HD
ENDBRANCH   7   8
BRANCH  13  14
ATOM     14  O   UNL     1      -0.806  -0.259  -6.644  0.00  0.00    -0.475 OA
ATOM     15  H   UNL     1      -1.461  -0.843  -7.051  0.00  0.00    +0.401 HD
ENDBRANCH  13  14
BRANCH  18  19
ATOM     19  O   UNL     1      -2.280   1.653  -1.697  0.00  0.00    -0.476 OA
ATOM     20  H   UNL     1      -1.627   2.241  -1.292  0.00  0.00    +0.389 HD
ENDBRANCH  18  19
BRANCH  31  32
ATOM     32  O   UNL     1       1.077  -4.303   0.506  0.00  0.00    -0.324 OA
ATOM     33  C   UNL     1       2.344  -4.020   1.105  0.00  0.00    +0.239 C 
ENDBRANCH  31  32
BRANCH   6   5
ATOM      5  C   UNL     1       1.989  -5.571  -1.839  0.00  0.00    +0.128 C 
BRANCH   5   4
ATOM      1  C   UNL     1       2.225  -7.252  -4.087  0.00  0.00    +0.076 C 
ATOM      2  C   UNL     1       1.137  -7.497  -3.074  0.00  0.00    -0.127 C 
ATOM      3  C   UNL     1       0.171  -8.638  -3.266  0.00  0.00    +0.073 C 
ATOM      4  C   UNL     1       1.030  -6.718  -2.026  0.00  0.00    -0.051 C 
ENDBRANCH   5   4
ENDBRANCH   6   5
BRANCH  25  26
ATOM     26  C   UNL     1      -0.350  -1.883   0.621  0.00  0.00    +0.136 C 
BRANCH  26  27
ATOM     27  C   UNL     1       0.675  -0.882   1.088  0.00  0.00    -0.060 C 
ATOM     28  C   UNL     1       0.318   0.354   1.338  0.00  0.00    -0.121 C 
ATOM     29  C   UNL     1      -1.140   0.737   1.309  0.00  0.00    +0.079 C 
ATOM     30  C   UNL     1       1.364   1.393   1.649  0.00  0.00    +0.072 C 
ENDBRANCH  26  27
ENDBRANCH  25  26
TORSDOF 8
