REMARK  Name = ZINC15203856
REMARK  2 active torsions:
REMARK  status: ('A' for Active; 'I' for Inactive)
REMARK    1  A    between atoms: C1_1  and  O1_2
REMARK    2  A    between atoms: O1_2  and  C2_3
REMARK                            x       y       z     vdW  Elec       q    Type
REMARK                         _______ _______ _______ _____ _____    ______ ____
ROOT
ATOM      3  C   UNL     1      -3.739  -0.536   2.229  0.00  0.00    +0.199 C 
ATOM      4  C   UNL     1      -2.265  -0.289   1.902  0.00  0.00    +0.076 C 
ATOM      5  C   UNL     1      -2.109   1.164   1.456  0.00  0.00    +0.215 C 
ATOM      6  C   UNL     1      -2.910   1.409   0.205  0.00  0.00    -0.078 A 
ATOM      7  C   UNL     1      -4.298   1.431   0.326  0.00  0.00    +0.052 A 
ATOM      8  C   UNL     1      -5.047   1.619  -0.822  0.00  0.00    +0.032 A 
ATOM      9  C   UNL     1      -4.418   1.785  -2.066  0.00  0.00    +0.042 A 
ATOM     10  O   UNL     1      -5.369   1.941  -3.016  0.00  0.00    -0.304 OA
ATOM     11  C   UNL     1      -6.578   2.270  -2.301  0.00  0.00    +0.435 C 
ATOM     12  C   UNL     1      -3.039   1.773  -2.173  0.00  0.00    +0.042 A 
ATOM     13  O   UNL     1      -6.386   1.680  -0.998  0.00  0.00    -0.303 OA
ATOM     14  C   UNL     1      -2.280   1.589  -1.010  0.00  0.00    -0.049 A 
ATOM     15  C   UNL     1      -0.786   1.609  -1.205  0.00  0.00    +0.082 C 
ATOM     16  C   UNL     1      -0.013   1.086   0.008  0.00  0.00    +0.326 C 
ATOM     17  C   UNL     1      -2.560   1.998   2.631  0.00  0.00    -0.053 C 
ATOM     18  C   UNL     1      -3.842   1.737   3.291  0.00  0.00    +0.060 C 
ATOM     19  C   UNL     1      -1.541   2.804   2.953  0.00  0.00    -0.010 C 
ATOM     20  C   UNL     1      -0.387   2.483   2.106  0.00  0.00    +0.548 C 
ATOM     21  O   UNL     1       0.723   2.970   2.221  0.00  0.00    -0.522 OA
ATOM     22  N   UNL     1      -0.732   1.575   1.190  0.00  0.00    -0.601 N 
ATOM     23  C   UNL     1      -4.361   0.519   3.086  0.00  0.00    -0.021 C 
ENDROOT
BRANCH   3   2
ATOM      1  C   UNL     1      -5.048  -2.511   2.595  0.00  0.00    +0.207 C 
ATOM      2  O   UNL     1      -3.851  -1.792   2.902  0.00  0.00    -0.375 OA
ENDBRANCH   3   2
TORSDOF 1
