REMARK  Name = ZINC13282986
REMARK  2 active torsions:
REMARK  status: ('A' for Active; 'I' for Inactive)
REMARK    1  A    between atoms: C1_1  and  O1_2
REMARK    2  A    between atoms: O1_2  and  C2_3
REMARK                            x       y       z     vdW  Elec       q    Type
REMARK                         _______ _______ _______ _____ _____    ______ ____
ROOT
ATOM      3  C   UNL     1       4.371   5.228  -0.010  0.00  0.00    +0.069 A 
ATOM      4  C   UNL     1       3.807   6.468   0.003  0.00  0.00    +0.024 A 
ATOM      5  C   UNL     1       2.342   6.544   0.015  0.00  0.00    +0.148 A 
ATOM      6  C   UNL     1       1.645   5.342   0.014  0.00  0.00    +0.040 A 
ATOM      7  C   UNL     1       0.253   5.285   0.025  0.00  0.00    -0.025 A 
ATOM      8  C   UNL     1      -0.064   3.848   0.021  0.00  0.00    -0.084 A 
ATOM      9  C   UNL     1      -1.254   3.126   0.029  0.00  0.00    +0.078 A 
ATOM     10  C   UNL     1      -1.224   1.747   0.017  0.00  0.00    +0.013 A 
ATOM     11  C   UNL     1      -0.013   1.076   0.008  0.00  0.00    +0.061 A 
ATOM     12  C   UNL     1       1.175   1.777   0.000  0.00  0.00    +0.029 A 
ATOM     13  C   UNL     1       1.169   3.165   0.007  0.00  0.00    +0.134 A 
ATOM     14  C   UNL     1      -0.418   6.502   0.037  0.00  0.00    +0.049 A 
ATOM     15  C   UNL     1       0.331   7.672   0.037  0.00  0.00    +0.262 A 
ATOM     16  N   UNL     1       2.200   4.102   0.002  0.00  0.00    -0.436 N 
ATOM     17  N   UNL     1       1.652   7.681   0.026  0.00  0.00    -0.433 NA
ATOM     18  C   UNL     1       3.548   4.015  -0.011  0.00  0.00    +0.562 A 
ATOM     19  O   UNL     1       4.083   2.921  -0.024  0.00  0.00    -0.469 OA
ENDROOT
BRANCH   3   2
ATOM      1  C   UNL     1       6.479   6.327  -0.020  0.00  0.00    +0.263 C 
ATOM      2  O   UNL     1       5.725   5.113  -0.021  0.00  0.00    -0.285 OA
ENDBRANCH   3   2
TORSDOF 1
