REMARK  Name = ZINC95486368
REMARK  12 active torsions:
REMARK  status: ('A' for Active; 'I' for Inactive)
REMARK    1  A    between atoms: C1_1  and  C2_2
REMARK    2  A    between atoms: C2_2  and  C3_3
REMARK    3  A    between atoms: C3_3  and  C4_5
REMARK    4  A    between atoms: C3_3  and  C28_34
REMARK    5  A    between atoms: C4_5  and  C5_6
REMARK    6  A    between atoms: C5_6  and  C6_7
REMARK    7  A    between atoms: C6_7  and  C7_9
REMARK    8  A    between atoms: C6_7  and  C8_10
REMARK    9  A    between atoms: C12_16  and  C27_33
REMARK   10  A    between atoms: C21_27  and  C26_32
REMARK   11  A    between atoms: C28_34  and  C29_35
REMARK   12  A    between atoms: C28_34  and  C30_36
REMARK                            x       y       z     vdW  Elec       q    Type
REMARK                         _______ _______ _______ _____ _____    ______ ____
ROOT
ATOM     10  C   UNL     1      -3.077   3.312  -1.679  0.00  0.00    -0.011 C 
ATOM     11  C   UNL     1      -3.902   3.343  -0.376  0.00  0.00    +0.006 C 
ATOM     12  C   UNL     1      -4.984   4.432  -0.624  0.00  0.00    +0.010 C 
ATOM     13  C   UNL     1      -5.299   4.201  -2.110  0.00  0.00    -0.018 C 
ATOM     14  C   UNL     1      -6.253   5.155  -2.726  0.00  0.00    +0.060 C 
ATOM     15  C   UNL     1      -5.637   6.377  -3.364  0.00  0.00    -0.093 C 
ATOM     16  C   UNL     1      -6.555   7.089  -4.380  0.00  0.00    +0.089 C 
ATOM     17  C   UNL     1      -5.726   8.101  -5.129  0.00  0.00    -0.068 C 
ATOM     18  C   UNL     1      -4.906   8.912  -4.479  0.00  0.00    -0.101 C 
ATOM     19  C   UNL     1      -4.796   8.793  -2.955  0.00  0.00    +0.019 C 
ATOM     20  C   UNL     1      -6.071   9.382  -2.347  0.00  0.00    +0.025 C 
ATOM     21  C   UNL     1      -3.611   9.487  -2.310  0.00  0.00    +0.021 C 
ATOM     22  C   UNL     1      -3.195  10.746  -3.060  0.00  0.00    +0.010 C 
ATOM     23  C   UNL     1      -2.807  10.348  -4.489  0.00  0.00    +0.009 C 
ATOM     24  C   UNL     1      -4.152   9.915  -5.308  0.00  0.00    +0.056 C 
ATOM     25  C   UNL     1      -4.727   7.295  -2.596  0.00  0.00    -0.029 C 
ATOM     26  C   UNL     1      -4.149   6.361  -3.675  0.00  0.00    -0.029 C 
ATOM     27  C   UNL     1      -3.243   5.259  -3.172  0.00  0.00    +0.047 C 
ATOM     28  C   UNL     1      -3.954   3.975  -2.779  0.00  0.00    -0.039 C 
ATOM     29  C   UNL     1      -4.105   3.040  -3.981  0.00  0.00    +0.028 C 
ENDROOT
BRANCH  10   9
ATOM      9  C   UNL     1      -2.760   1.865  -2.064  0.00  0.00    -0.013 C 
ATOM     30  C   UNL     1      -1.615   1.345  -1.192  0.00  0.00    +0.007 C 
BRANCH   9   8
ATOM      8  C   UNL     1      -4.001   0.996  -1.847  0.00  0.00    +0.016 C 
BRANCH   8   7
ATOM      7  C   UNL     1      -3.745  -0.405  -2.405  0.00  0.00    +0.007 C 
BRANCH   7   3
ATOM      3  C   UNL     1      -4.949  -1.301  -2.105  0.00  0.00    -0.015 C 
BRANCH   3   4
ATOM      4  C   UNL     1      -4.754  -2.660  -2.779  0.00  0.00    -0.023 C 
ATOM      5  C   UNL     1      -4.626  -2.467  -4.291  0.00  0.00    +0.011 C 
ATOM      6  C   UNL     1      -5.958  -3.555  -2.480  0.00  0.00    +0.011 C 
ENDBRANCH   3   4
BRANCH   3   2
ATOM      1  C   UNL     1      -3.779  -2.087  -0.043  0.00  0.00    +0.006 C 
ATOM      2  C   UNL     1      -5.077  -1.494  -0.593  0.00  0.00    +0.001 C 
ENDBRANCH   3   2
ENDBRANCH   7   3
ENDBRANCH   8   7
ENDBRANCH   9   8
ENDBRANCH  10   9
TORSDOF 6
