REMARK  Name = ZINC00013245
REMARK  3 active torsions:
REMARK  status: ('A' for Active; 'I' for Inactive)
REMARK    1  A    between atoms: C3_3  and  O3_10
REMARK    2  A    between atoms: C4_4  and  O2_9
REMARK    3  A    between atoms: C6_6  and  C7_7
REMARK                            x       y       z     vdW  Elec       q    Type
REMARK                         _______ _______ _______ _____ _____    ______ ____
ROOT
ATOM      1  C   UNL     1      -0.017   1.396   0.010  0.00  0.00    +0.091 A 
ATOM      2  C   UNL     1       1.167   2.100   0.002  0.00  0.00    -0.004 A 
ATOM      3  C   UNL     1       2.380   1.425  -0.013  0.00  0.00    +0.117 A 
ATOM      6  C   UNL     1       2.408   0.030  -0.021  0.00  0.00    +0.066 A 
ATOM      9  C   UNL     1       1.227  -0.684  -0.013  0.00  0.00    +0.066 A 
ATOM     10  C   UNL     1       0.002  -0.004   0.002  0.00  0.00    -0.188 A 
ENDROOT
BRANCH   3   4
ATOM      4  O   UNL     1       3.543   2.125  -0.021  0.00  0.00    -0.486 OA
ATOM      5  H   UNL     1       3.889   2.323   0.860  0.00  0.00    +0.395 HD
ENDBRANCH   3   4
BRANCH   6   7
ATOM      7  O   UNL     1       3.599  -0.626  -0.036  0.00  0.00    -0.485 OA
ATOM      8  H   UNL     1       3.952  -0.821   0.843  0.00  0.00    +0.390 HD
ENDBRANCH   6   7
BRANCH  10  11
ATOM     11  C   UNL     1      -1.258  -0.758   0.010  0.00  0.00    +0.494 C 
ATOM     12  O   UNL     1      -2.318  -0.167   0.023  0.00  0.00    -0.455 OA
ENDBRANCH  10  11
TORSDOF 3
