REMARK  Name = ZINC95486240
REMARK  16 active torsions:
REMARK  status: ('A' for Active; 'I' for Inactive)
REMARK    1  A    between atoms: C1_1  and  C2_2
REMARK    2  A    between atoms: C1_1  and  C13_15
REMARK    3  A    between atoms: C2_2  and  C3_3
REMARK    4  A    between atoms: C3_3  and  C4_4
REMARK    5  A    between atoms: C4_4  and  C5_5
REMARK    6  A    between atoms: C5_5  and  C6_7
REMARK    7  A    between atoms: C6_7  and  C7_8
REMARK    8  A    between atoms: C7_8  and  C8_9
REMARK    9  A    between atoms: C8_9  and  C9_10
REMARK   10  A    between atoms: C9_10  and  C10_11
REMARK   11  A    between atoms: C10_11  and  C11_12
REMARK   12  A    between atoms: C11_12  and  C12_13
REMARK   13  A    between atoms: C12_13  and  O2_14
REMARK   14  A    between atoms: C13_15  and  C14_16
REMARK   15  A    between atoms: C14_16  and  C15_17
REMARK   16  A    between atoms: C15_17  and  C16_18
REMARK                            x       y       z     vdW  Elec       q    Type
REMARK                         _______ _______ _______ _____ _____    ______ ____
ROOT
ATOM     11  C   UNL     1      -2.826  -2.585   0.015  0.00  0.00    +0.351 C 
ATOM     21  O   UNL     1      -3.755  -1.813   0.028  0.00  0.00    -0.450 OA
ENDROOT
BRANCH  11  10
ATOM     10  C   UNL     1      -1.413  -2.063   0.004  0.00  0.00    +0.021 C 
BRANCH  10   9
ATOM      9  C   UNL     1      -1.433  -0.534   0.013  0.00  0.00    +0.020 C 
BRANCH   9   8
ATOM      8  C   UNL     1       0.002  -0.004   0.002  0.00  0.00    +0.001 C 
BRANCH   8   1
ATOM      1  C   UNL     1      -0.019   1.526   0.010  0.00  0.00    +0.001 C 
BRANCH   1   2
ATOM      2  C   UNL     1       1.417   2.055  -0.000  0.00  0.00    -0.012 C 
BRANCH   2   3
ATOM      3  C   UNL     1       1.396   3.585   0.008  0.00  0.00    +0.021 C 
BRANCH   3   4
ATOM      4  C   UNL     1       2.831   4.115  -0.003  0.00  0.00    -0.076 C 
BRANCH   4   5
ATOM      5  C   UNL     1       2.811   5.622   0.005  0.00  0.00    +0.487 C 
ATOM      6  O   UNL     1       3.858   6.245  -0.001  0.00  0.00    -0.710 OA
ATOM      7  O   UNL     1       1.747   6.217   0.019  0.00  0.00    -0.700 OA
ENDBRANCH   4   5
ENDBRANCH   3   4
ENDBRANCH   2   3
ENDBRANCH   1   2
ENDBRANCH   8   1
ENDBRANCH   9   8
ENDBRANCH  10   9
ENDBRANCH  11  10
BRANCH  11  12
ATOM     12  C   UNL     1      -3.082  -4.070   0.010  0.00  0.00    +0.020 C 
BRANCH  12  13
ATOM     13  C   UNL     1      -4.590  -4.329   0.023  0.00  0.00    +0.022 C 
BRANCH  13  14
ATOM     14  C   UNL     1      -4.849  -5.837   0.017  0.00  0.00    +0.005 C 
BRANCH  14  15
ATOM     15  C   UNL     1      -6.357  -6.095   0.030  0.00  0.00    +0.007 C 
BRANCH  15  16
ATOM     16  C   UNL     1      -6.616  -7.603   0.024  0.00  0.00    +0.010 C 
BRANCH  16  17
ATOM     17  C   UNL     1      -8.124  -7.861   0.037  0.00  0.00    +0.016 C 
BRANCH  17  18
ATOM     18  C   UNL     1      -8.383  -9.369   0.032  0.00  0.00    +0.163 C 
BRANCH  18  19
ATOM     19  O   UNL     1      -9.791  -9.610   0.044  0.00  0.00    -0.577 OA
ATOM     20  H   UNL     1     -10.030 -10.547   0.041  0.00  0.00    +0.380 HD
ENDBRANCH  18  19
ENDBRANCH  17  18
ENDBRANCH  16  17
ENDBRANCH  15  16
ENDBRANCH  14  15
ENDBRANCH  13  14
ENDBRANCH  12  13
ENDBRANCH  11  12
TORSDOF 16
