REMARK  Name = ZINC06050191
REMARK  3 active torsions:
REMARK  status: ('A' for Active; 'I' for Inactive)
REMARK    1  A    between atoms: C1_1  and  C2_2
REMARK    2  A    between atoms: C2_2  and  C20_26
REMARK    3  A    between atoms: C18_22  and  O3_24
REMARK                            x       y       z     vdW  Elec       q    Type
REMARK                         _______ _______ _______ _____ _____    ______ ____
ROOT
ATOM      1  C   UNL     1      10.712   5.845  -1.194  0.00  0.00    +0.035 C 
ATOM      2  C   UNL     1       9.788   6.901  -1.804  0.00  0.00    +0.147 C 
ATOM      3  C   UNL     1      10.634   7.964  -2.506  0.00  0.00    +0.083 C 
ATOM      4  C   UNL     1       8.882   6.243  -2.811  0.00  0.00    -0.051 C 
ATOM      5  C   UNL     1       7.711   5.740  -2.424  0.00  0.00    +0.049 C 
ATOM      6  C   UNL     1       7.327   5.880  -1.008  0.00  0.00    -0.142 A 
ATOM      7  C   UNL     1       8.031   6.788  -0.198  0.00  0.00    +0.169 A 
ATOM      8  C   UNL     1       7.710   6.944   1.137  0.00  0.00    -0.032 A 
ATOM      9  C   UNL     1       6.672   6.225   1.721  0.00  0.00    +0.120 A 
ATOM     10  C   UNL     1       5.964   5.348   0.927  0.00  0.00    -0.184 A 
ATOM     11  C   UNL     1       4.813   4.452   1.188  0.00  0.00    -0.013 C 
ATOM     12  C   UNL     1       4.716   3.706   2.495  0.00  0.00    +0.278 C 
ATOM     13  O   UNL     1       3.759   2.648   2.364  0.00  0.00    -0.322 OA
ATOM     14  C   UNL     1       3.117   2.396   1.198  0.00  0.00    +0.161 A 
ATOM     15  C   UNL     1       3.716   2.703  -0.033  0.00  0.00    -0.169 A 
ATOM     16  C   UNL     1       3.091   2.417  -1.217  0.00  0.00    +0.092 A 
ATOM     17  C   UNL     1       1.837   1.828  -1.210  0.00  0.00    -0.036 A 
ATOM     18  C   UNL     1       1.223   1.532  -0.001  0.00  0.00    +0.148 A 
ATOM     21  C   UNL     1       1.857   1.820   1.197  0.00  0.00    -0.033 A 
ATOM     22  C   UNL     1       5.045   3.376   0.072  0.00  0.00    +0.226 C 
ATOM     23  O   UNL     1       5.481   4.208  -0.996  0.00  0.00    -0.274 OA
ATOM     24  C   UNL     1       6.284   5.155  -0.435  0.00  0.00    +0.146 A 
ATOM     25  O   UNL     1       9.029   7.517  -0.764  0.00  0.00    -0.301 OA
ENDROOT
BRANCH  18  19
ATOM     19  O   UNL     1      -0.011   0.963   0.007  0.00  0.00    -0.495 OA
ATOM     20  H   UNL     1       0.002  -0.004   0.002  0.00  0.00    +0.397 HD
ENDBRANCH  18  19
TORSDOF 1
