REMARK  Name = ZINC00035526
REMARK  12 active torsions:
REMARK  status: ('A' for Active; 'I' for Inactive)
REMARK    1  A    between atoms: C1_1  and  C2_2
REMARK    2  A    between atoms: C2_2  and  C3_3
REMARK    3  A    between atoms: C2_2  and  C4_4
REMARK    4  A    between atoms: C2_2  and  O6_26
REMARK    5  A    between atoms: C4_4  and  C5_6
REMARK    6  A    between atoms: C4_4  and  O5_25
REMARK    7  A    between atoms: C5_6  and  O1_7
REMARK    8  A    between atoms: O1_7  and  C6_8
REMARK    9  A    between atoms: C11_13  and  O2_14
REMARK   10  A    between atoms: O2_14  and  C12_15
REMARK   11  A    between atoms: C15_19  and  O3_20
REMARK   12  A    between atoms: O3_20  and  C16_21
REMARK                            x       y       z     vdW  Elec       q    Type
REMARK                         _______ _______ _______ _____ _____    ______ ____
ROOT
ATOM     10  C   UNL     1      -2.906  -3.910   0.108  0.00  0.00    +0.224 A 
ATOM     11  C   UNL     1      -1.788  -4.727   0.297  0.00  0.00    -0.018 A 
ATOM     12  C   UNL     1      -1.919  -6.078   0.385  0.00  0.00    +0.173 A 
ATOM     13  C   UNL     1      -3.191  -6.667   0.286  0.00  0.00    -0.158 A 
ATOM     14  C   UNL     1      -4.335  -5.851   0.094  0.00  0.00    +0.227 A 
ATOM     15  N   UNL     1      -5.551  -6.398  -0.002  0.00  0.00    -0.468 N 
ATOM     16  H   UNL     1      -6.318  -5.819  -0.133  0.00  0.00    +0.449 HD
ATOM     17  C   UNL     1      -5.738  -7.702   0.076  0.00  0.00    +0.352 A 
ATOM     18  C   UNL     1      -4.644  -8.575   0.266  0.00  0.00    -0.209 A 
ATOM     19  C   UNL     1      -5.218  -9.926   0.303  0.00  0.00    +0.041 A 
ATOM     20  C   UNL     1      -6.538  -9.774   0.142  0.00  0.00    +0.281 A 
ATOM     21  O   UNL     1      -6.846  -8.470   0.009  0.00  0.00    -0.167 OA
ATOM     22  C   UNL     1      -3.353  -8.065   0.373  0.00  0.00    +0.347 A 
ATOM     25  C   UNL     1      -4.170  -4.454   0.012  0.00  0.00    +0.009 A 
ENDROOT
BRANCH  22  23
ATOM     23  O   UNL     1      -2.289  -8.885   0.555  0.00  0.00    -0.318 OA
ATOM     24  C   UNL     1      -1.923  -9.181   1.904  0.00  0.00    +0.297 C 
ENDBRANCH  22  23
BRANCH  25  26
ATOM     26  O   UNL     1      -5.250  -3.647  -0.167  0.00  0.00    -0.306 OA
ATOM     27  C   UNL     1      -5.628  -3.358  -1.515  0.00  0.00    +0.243 C 
ENDBRANCH  25  26
BRANCH  10   9
ATOM      9  O   UNL     1      -2.746  -2.563   0.023  0.00  0.00    -0.267 OA
BRANCH   9   8
ATOM      8  C   UNL     1      -1.413  -2.059   0.130  0.00  0.00    +0.193 C 
BRANCH   8   5
ATOM      5  C   UNL     1      -1.433  -0.534   0.013  0.00  0.00    +0.250 C 
BRANCH   5   2
ATOM      1  C   UNL     1      -0.019   1.526   0.010  0.00  0.00    +0.036 C 
ATOM      2  C   UNL     1       0.002  -0.004   0.002  0.00  0.00    +0.101 C 
ATOM     28  C   UNL     1       0.742  -0.511   1.242  0.00  0.00    +0.017 C 
BRANCH   2   3
ATOM      3  O   UNL     1       0.671  -0.465  -1.174  0.00  0.00    -0.560 OA
ATOM      4  H   UNL     1       1.588  -0.167  -1.247  0.00  0.00    +0.390 HD
ENDBRANCH   2   3
ENDBRANCH   5   2
BRANCH   5   6
ATOM      6  O   UNL     1      -2.137   0.021   1.126  0.00  0.00    -0.535 OA
ATOM      7  H   UNL     1      -1.747  -0.195   1.985  0.00  0.00    +0.377 HD
ENDBRANCH   5   6
ENDBRANCH   8   5
ENDBRANCH   9   8
ENDBRANCH  10   9
TORSDOF 8
