REMARK  Name = ZINC95486053
REMARK  3 active torsions:
REMARK  status: ('A' for Active; 'I' for Inactive)
REMARK    1  A    between atoms: C1_1  and  C2_2
REMARK    2  A    between atoms: C2_2  and  C22_30
REMARK    3  A    between atoms: C19_22  and  O4_25
REMARK                            x       y       z     vdW  Elec       q    Type
REMARK                         _______ _______ _______ _____ _____    ______ ____
ROOT
ATOM      1  C   UNL     1      -0.019   1.526   0.010  0.00  0.00    +0.034 C 
ATOM      2  C   UNL     1       0.002  -0.004   0.002  0.00  0.00    +0.109 C 
ATOM      3  C   UNL     1      -1.432  -0.539   0.000  0.00  0.00    +0.080 C 
ATOM      4  C   UNL     1       0.742  -0.504  -1.245  0.00  0.00    +0.021 C 
ATOM      5  C   UNL     1       2.131   0.139  -1.267  0.00  0.00    +0.101 C 
ATOM      6  C   UNL     1       2.780  -0.009   0.086  0.00  0.00    -0.202 A 
ATOM      7  C   UNL     1       2.036  -0.300   1.217  0.00  0.00    +0.211 A 
ATOM      8  C   UNL     1       2.664  -0.424   2.459  0.00  0.00    -0.046 A 
ATOM      9  C   UNL     1       4.015  -0.270   2.573  0.00  0.00    +0.152 A 
ATOM     10  C   UNL     1       4.777   0.017   1.439  0.00  0.00    -0.279 A 
ATOM     11  C   UNL     1       6.241   0.174   1.539  0.00  0.00    +0.391 C 
ATOM     12  O   UNL     1       6.815   0.283   2.602  0.00  0.00    -0.421 OA
ATOM     13  C   UNL     1       6.973   0.186   0.212  0.00  0.00    +0.114 C 
ATOM     16  C   UNL     1       8.347   0.777   0.353  0.00  0.00    -0.203 A 
ATOM     17  C   UNL     1       9.096   0.452   1.481  0.00  0.00    +0.127 A 
ATOM     18  C   UNL     1      10.376   0.972   1.578  0.00  0.00    -0.004 A 
ATOM     19  O   UNL     1      11.310   0.820   2.545  0.00  0.00    -0.301 OA
ATOM     20  C   UNL     1      12.556   1.236   1.947  0.00  0.00    +0.437 C 
ATOM     21  O   UNL     1      12.156   2.160   0.913  0.00  0.00    -0.299 OA
ATOM     22  C   UNL     1      10.898   1.801   0.572  0.00  0.00    +0.086 A 
ATOM     23  C   UNL     1      10.147   2.127  -0.545  0.00  0.00    +0.022 A 
ATOM     24  C   UNL     1       8.853   1.603  -0.638  0.00  0.00    +0.165 A 
ATOM     25  O   UNL     1       8.127   1.942  -1.738  0.00  0.00    -0.295 OA
ATOM     26  C   UNL     1       6.928   1.220  -2.031  0.00  0.00    +0.306 C 
ATOM     27  C   UNL     1       6.142   1.071  -0.731  0.00  0.00    +0.174 C 
ATOM     28  O   UNL     1       4.872   0.460  -0.928  0.00  0.00    -0.277 OA
ATOM     29  C   UNL     1       4.154   0.158   0.186  0.00  0.00    +0.219 A 
ATOM     30  O   UNL     1       0.692  -0.482   1.157  0.00  0.00    -0.297 OA
ENDROOT
BRANCH  13  14
ATOM     14  O   UNL     1       7.061  -1.137  -0.322  0.00  0.00    -0.514 OA
ATOM     15  H   UNL     1       7.573  -1.748   0.225  0.00  0.00    +0.389 HD
ENDBRANCH  13  14
TORSDOF 1
