REMARK  Name = ZINC73195993
REMARK  4 active torsions:
REMARK  status: ('A' for Active; 'I' for Inactive)
REMARK    1  A    between atoms: C1_1  and  C2_2
REMARK    2  A    between atoms: C9_10  and  O3_13
REMARK    3  A    between atoms: C10_11  and  O2_12
REMARK    4  A    between atoms: O3_13  and  C11_14
REMARK                            x       y       z     vdW  Elec       q    Type
REMARK                         _______ _______ _______ _____ _____    ______ ____
ROOT
ATOM      1  C   UNL     1      -0.018   1.503   0.010  0.00  0.00    +0.075 C 
ATOM      2  C   UNL     1       0.002  -0.004   0.002  0.00  0.00    -0.444 C 
ATOM      3  C   UNL     1       0.006  -0.668  -1.174  0.00  0.00    +0.249 C 
ATOM      4  O   UNL     1      -0.009   0.022  -2.338  0.00  0.00    -0.644 OA
ATOM      5  C   UNL     1       0.025  -2.152  -1.194  0.00  0.00    +0.392 C 
ATOM      6  C   UNL     1      -0.265  -2.889   0.049  0.00  0.00    -0.118 A 
ATOM      7  C   UNL     1      -0.268  -2.189   1.274  0.00  0.00    -0.114 A 
ATOM      8  C   UNL     1      -0.538  -2.865   2.457  0.00  0.00    +0.086 A 
ATOM      9  C   UNL     1      -0.805  -4.225   2.433  0.00  0.00    -0.050 A 
ATOM     10  C   UNL     1      -0.805  -4.921   1.238  0.00  0.00    +0.099 A 
ATOM     13  C   UNL     1      -0.534  -4.256   0.032  0.00  0.00    +0.123 A 
ATOM     16  O   UNL     1       0.275  -2.751  -2.222  0.00  0.00    -0.420 OA
ATOM     17  C   UNL     1       0.024  -0.740   1.272  0.00  0.00    +0.431 C 
ATOM     18  O   UNL     1       0.276  -0.161   2.312  0.00  0.00    -0.516 OA
ENDROOT
BRANCH  10  11
ATOM     11  O   UNL     1      -1.068  -6.253   1.231  0.00  0.00    -0.306 OA
ATOM     12  C   UNL     1      -1.336  -6.868   2.493  0.00  0.00    +0.236 C 
ENDBRANCH  10  11
BRANCH  13  14
ATOM     14  O   UNL     1      -0.533  -4.937  -1.140  0.00  0.00    -0.469 OA
ATOM     15  H   UNL     1       0.328  -5.306  -1.381  0.00  0.00    +0.390 HD
ENDBRANCH  13  14
TORSDOF 2
