REMARK  Name = ZINC15118974
REMARK  2 active torsions:
REMARK  status: ('A' for Active; 'I' for Inactive)
REMARK    1  A    between atoms: C6_7  and  O4_17
REMARK    2  A    between atoms: C12_14  and  O3_16
REMARK                            x       y       z     vdW  Elec       q    Type
REMARK                         _______ _______ _______ _____ _____    ______ ____
ROOT
ATOM      1  C   UNL     1      -0.013   1.076   0.008  0.00  0.00    +0.009 A 
ATOM      2  C   UNL     1       1.173   1.779   0.000  0.00  0.00    +0.111 A 
ATOM      3  C   UNL     1       1.150   3.174   0.008  0.00  0.00    -0.215 A 
ATOM      4  C   UNL     1       2.406   3.952   0.000  0.00  0.00    +0.438 A 
ATOM      5  C   UNL     1       2.278   5.420   0.009  0.00  0.00    -0.265 A 
ATOM      6  C   UNL     1       3.413   6.241   0.003  0.00  0.00    +0.204 A 
ATOM      9  C   UNL     1       3.258   7.617   0.011  0.00  0.00    -0.039 A 
ATOM     10  C   UNL     1       1.990   8.173   0.026  0.00  0.00    +0.115 A 
ATOM     11  C   UNL     1       0.867   7.372   0.032  0.00  0.00    -0.010 A 
ATOM     12  C   UNL     1       0.994   5.988   0.024  0.00  0.00    +0.180 A 
ATOM     13  O   UNL     1      -0.109   5.211   0.030  0.00  0.00    -0.221 OA
ATOM     14  O   UNL     1       3.495   3.406  -0.012  0.00  0.00    -0.432 OA
ATOM     15  C   UNL     1      -0.071   3.863   0.023  0.00  0.00    +0.136 A 
ATOM     16  C   UNL     1      -1.261   3.132   0.029  0.00  0.00    +0.083 A 
ATOM     19  C   UNL     1      -1.224   1.750   0.017  0.00  0.00    +0.070 A 
ENDROOT
BRANCH   6   7
ATOM      7  O   UNL     1       4.653   5.692  -0.011  0.00  0.00    -0.477 OA
ATOM      8  H   UNL     1       5.005   5.537  -0.898  0.00  0.00    +0.401 HD
ENDBRANCH   6   7
BRANCH  16  17
ATOM     17  O   UNL     1      -2.456   3.780   0.044  0.00  0.00    -0.481 OA
ATOM     18  H   UNL     1      -2.810   3.973  -0.835  0.00  0.00    +0.393 HD
ENDBRANCH  16  17
TORSDOF 2
