REMARK  Name = ZINC95486280
REMARK  6 active torsions:
REMARK  status: ('A' for Active; 'I' for Inactive)
REMARK    1  A    between atoms: C1_1  and  O1_2
REMARK    2  A    between atoms: O1_2  and  C2_3
REMARK    3  A    between atoms: C7_8  and  O2_9
REMARK    4  A    between atoms: O2_9  and  C8_10
REMARK    5  A    between atoms: C13_17  and  O4_18
REMARK    6  A    between atoms: O4_18  and  C14_19
REMARK                            x       y       z     vdW  Elec       q    Type
REMARK                         _______ _______ _______ _____ _____    ______ ____
ROOT
ATOM      3  C   UNL     1       0.606  -0.608  -1.056  0.00  0.00    +0.130 A 
ATOM      4  C   UNL     1       1.175   0.175  -2.065  0.00  0.00    -0.027 A 
ATOM      5  C   UNL     1       1.785  -0.402  -3.136  0.00  0.00    +0.092 A 
ATOM      6  C   UNL     1       1.850  -1.802  -3.236  0.00  0.00    -0.119 A 
ATOM      7  C   UNL     1       1.278  -2.608  -2.220  0.00  0.00    +0.167 A 
ATOM      8  N   UNL     1       1.333  -3.940  -2.305  0.00  0.00    -0.436 NA
ATOM      9  C   UNL     1       1.916  -4.543  -3.329  0.00  0.00    +0.138 A 
ATOM     10  C   UNL     1       2.124  -5.953  -3.685  0.00  0.00    -0.038 A 
ATOM     11  C   UNL     1       2.785  -5.955  -4.851  0.00  0.00    +0.271 A 
ATOM     12  O   UNL     1       3.010  -4.696  -5.261  0.00  0.00    -0.190 OA
ATOM     13  C   UNL     1       2.506  -3.807  -4.378  0.00  0.00    -0.025 A 
ATOM     14  C   UNL     1       2.477  -2.422  -4.338  0.00  0.00    +0.179 A 
ATOM     17  C   UNL     1       0.656  -1.984  -1.119  0.00  0.00    +0.072 A 
ENDROOT
BRANCH   3   2
ATOM      1  C   UNL     1      -0.017   1.425   0.010  0.00  0.00    +0.245 C 
ATOM      2  O   UNL     1       0.002  -0.004   0.002  0.00  0.00    -0.299 OA
ENDBRANCH   3   2
BRANCH  14  15
ATOM     15  O   UNL     1       3.036  -1.683  -5.330  0.00  0.00    -0.322 OA
ATOM     16  C   UNL     1       4.410  -1.325  -5.176  0.00  0.00    +0.244 C 
ENDBRANCH  14  15
BRANCH  17  18
ATOM     18  O   UNL     1       0.104  -2.735  -0.128  0.00  0.00    -0.305 OA
ATOM     19  C   UNL     1      -1.267  -3.104  -0.281  0.00  0.00    +0.223 C 
ENDBRANCH  17  18
TORSDOF 3
