REMARK  Name = ZINC14435312
REMARK  12 active torsions:
REMARK  status: ('A' for Active; 'I' for Inactive)
REMARK    1  A    between atoms: C1_1  and  O1_2
REMARK    2  A    between atoms: O1_2  and  C2_3
REMARK    3  A    between atoms: C4_5  and  C8_10
REMARK    4  A    between atoms: C7_8  and  O2_9
REMARK    5  A    between atoms: C11_14  and  O6_29
REMARK    6  A    between atoms: C12_15  and  O5_27
REMARK    7  A    between atoms: C16_19  and  C19_25
REMARK    8  A    between atoms: C17_21  and  C18_23
REMARK    9  A    between atoms: C18_23  and  O3_24
REMARK   10  A    between atoms: C19_25  and  O4_26
REMARK   11  A    between atoms: O5_27  and  C20_28
REMARK   12  A    between atoms: O6_29  and  C21_30
REMARK                            x       y       z     vdW  Elec       q    Type
REMARK                         _______ _______ _______ _____ _____    ______ ____
ROOT
ATOM      6  C   UNL     1      -1.432   1.927   0.098  0.00  0.00    +0.099 C 
ATOM      7  C   UNL     1      -2.271   1.791   1.342  0.00  0.00    -0.071 A 
ATOM      8  C   UNL     1      -1.611   1.765   2.565  0.00  0.00    -0.028 A 
ATOM      9  C   UNL     1      -2.322   1.647   3.745  0.00  0.00    +0.098 A 
ATOM     12  C   UNL     1      -3.710   1.554   3.706  0.00  0.00    +0.107 A 
ATOM     15  C   UNL     1      -4.362   1.578   2.487  0.00  0.00    -0.040 A 
ATOM     16  C   UNL     1      -3.644   1.695   1.303  0.00  0.00    -0.064 A 
ATOM     17  C   UNL     1      -4.421   1.710   0.013  0.00  0.00    +0.091 C 
ATOM     18  C   UNL     1      -3.565   2.266  -1.124  0.00  0.00    +0.002 C 
ATOM     22  C   UNL     1      -2.230   1.512  -1.136  0.00  0.00    +0.019 C 
ENDROOT
BRANCH   6   5
ATOM      3  C   UNL     1       2.169   0.802   0.299  0.00  0.00    +0.106 A 
ATOM      4  C   UNL     1       1.048   1.609   0.191  0.00  0.00    -0.062 A 
ATOM      5  C   UNL     1      -0.215   1.048   0.221  0.00  0.00    -0.043 A 
ATOM     26  C   UNL     1      -0.363  -0.320   0.358  0.00  0.00    +0.003 A 
ATOM     27  C   UNL     1       0.751  -1.132   0.465  0.00  0.00    +0.035 A 
ATOM     28  C   UNL     1       2.019  -0.575   0.436  0.00  0.00    +0.073 A 
BRANCH   3   2
ATOM      1  C   UNL     1       3.488   2.773   0.126  0.00  0.00    +0.238 C 
ATOM      2  O   UNL     1       3.412   1.353   0.269  0.00  0.00    -0.307 OA
ENDBRANCH   3   2
BRANCH  28  29
ATOM     29  O   UNL     1       3.116  -1.372   0.542  0.00  0.00    -0.486 OA
ATOM     30  H   UNL     1       3.453  -1.693  -0.306  0.00  0.00    +0.387 HD
ENDBRANCH  28  29
ENDBRANCH   6   5
BRANCH   9  10
ATOM     10  O   UNL     1      -1.668   1.623   4.937  0.00  0.00    -0.306 OA
ATOM     11  C   UNL     1      -0.243   1.723   4.898  0.00  0.00    +0.236 C 
ENDBRANCH   9  10
BRANCH  12  13
ATOM     13  O   UNL     1      -4.421   1.440   4.859  0.00  0.00    -0.306 OA
ATOM     14  C   UNL     1      -5.842   1.349   4.740  0.00  0.00    +0.237 C 
ENDBRANCH  12  13
BRANCH  18  19
ATOM     19  C   UNL     1      -4.285   2.063  -2.459  0.00  0.00    +0.197 C 
BRANCH  19  20
ATOM     20  O   UNL     1      -5.532   2.760  -2.439  0.00  0.00    -0.582 OA
ATOM     21  H   UNL     1      -6.043   2.675  -3.256  0.00  0.00    +0.379 HD
ENDBRANCH  19  20
ENDBRANCH  18  19
BRANCH  22  23
ATOM     23  C   UNL     1      -1.447   1.871  -2.401  0.00  0.00    +0.178 C 
BRANCH  23  24
ATOM     24  O   UNL     1      -2.112   1.328  -3.543  0.00  0.00    -0.567 OA
ATOM     25  H   UNL     1      -1.671   1.518  -4.382  0.00  0.00    +0.379 HD
ENDBRANCH  23  24
ENDBRANCH  22  23
TORSDOF 9
