REMARK  Name = ZINC28462577
REMARK  9 active torsions:
REMARK  status: ('A' for Active; 'I' for Inactive)
REMARK    1  A    between atoms: C3_3  and  O5_20
REMARK    2  A    between atoms: C6_6  and  C7_7
REMARK    3  A    between atoms: C11_12  and  O4_19
REMARK    4  A    between atoms: C13_14  and  O3_18
REMARK    5  A    between atoms: O5_20  and  C16_21
REMARK    6  A    between atoms: C18_23  and  C22_28
REMARK    7  A    between atoms: C21_26  and  O6_27
REMARK    8  A    between atoms: C26_33  and  O10_40
REMARK    9  A    between atoms: C28_35  and  O9_39
REMARK                            x       y       z     vdW  Elec       q    Type
REMARK                         _______ _______ _______ _____ _____    ______ ____
ROOT
ATOM      5  C   UNL     1      -0.257   8.208   0.055  0.00  0.00    +0.029 A 
ATOM      6  C   UNL     1      -1.345   7.359   0.113  0.00  0.00    +0.110 A 
ATOM      7  C   UNL     1      -2.639   7.886   0.139  0.00  0.00    -0.102 A 
ATOM     23  C   UNL     1      -2.826   9.271   0.096  0.00  0.00    +0.116 A 
ATOM     24  C   UNL     1      -1.737  10.112   0.032  0.00  0.00    -0.057 A 
ATOM     25  C   UNL     1      -0.451   9.588   0.011  0.00  0.00    +0.184 A 
ENDROOT
BRANCH   7   8
ATOM      8  C   UNL     1      -3.804   6.984   0.207  0.00  0.00    +0.204 A 
ATOM      9  C   UNL     1      -5.051   7.527   0.226  0.00  0.00    -0.144 A 
ATOM     10  C   UNL     1      -6.181   6.677   0.291  0.00  0.00    +0.426 A 
ATOM     11  C   UNL     1      -5.935   5.225   0.334  0.00  0.00    -0.308 A 
ATOM     12  C   UNL     1      -6.994   4.311   0.398  0.00  0.00    +0.286 A 
ATOM     15  C   UNL     1      -6.721   2.956   0.437  0.00  0.00    -0.149 A 
ATOM     16  C   UNL     1      -5.405   2.507   0.413  0.00  0.00    +0.262 A 
ATOM     19  C   UNL     1      -4.353   3.407   0.349  0.00  0.00    -0.138 A 
ATOM     20  C   UNL     1      -4.606   4.769   0.309  0.00  0.00    +0.228 A 
ATOM     21  O   UNL     1      -7.314   7.129   0.310  0.00  0.00    -0.457 OA
ATOM     22  O   UNL     1      -3.593   5.659   0.242  0.00  0.00    -0.220 OA
BRANCH  12  13
ATOM     13  O   UNL     1      -8.277   4.751   0.422  0.00  0.00    -0.467 OA
ATOM     14  H   UNL     1      -9.105   4.028   0.473  0.00  0.00    +0.440 HD
ENDBRANCH  12  13
BRANCH  16  17
ATOM     17  O   UNL     1      -5.148   1.174   0.451  0.00  0.00    -0.495 OA
ATOM     18  H   UNL     1      -4.109   0.813   0.432  0.00  0.00    +0.445 HD
ENDBRANCH  16  17
ENDBRANCH   7   8
BRANCH  25  26
ATOM     26  O   UNL     1       0.619  10.422  -0.052  0.00  0.00    -0.489 OA
ATOM     27  H   UNL     1       0.467  11.511  -0.086  0.00  0.00    +0.444 HD
ENDBRANCH  25  26
BRANCH   5   4
ATOM      4  O   UNL     1       1.004   7.699   0.033  0.00  0.00    -0.236 OA
BRANCH   4   3
ATOM      1  C   UNL     1       1.675   7.753   3.605  0.00  0.00    +0.101 A 
ATOM      2  C   UNL     1       1.011   7.875   2.405  0.00  0.00    -0.061 A 
ATOM      3  C   UNL     1       1.664   7.582   1.214  0.00  0.00    +0.153 A 
ATOM     28  C   UNL     1       2.991   7.169   1.227  0.00  0.00    -0.005 A 
ATOM     29  C   UNL     1       3.665   7.050   2.422  0.00  0.00    +0.104 A 
ATOM     30  C   UNL     1       3.012   7.344   3.623  0.00  0.00    -0.107 A 
BRANCH  30  31
ATOM     31  C   UNL     1       3.729   7.217   4.906  0.00  0.00    +0.206 A 
ATOM     32  C   UNL     1       3.067   7.510   6.057  0.00  0.00    -0.152 A 
ATOM     33  C   UNL     1       3.739   7.394   7.297  0.00  0.00    +0.426 A 
ATOM     34  C   UNL     1       5.144   6.954   7.268  0.00  0.00    -0.308 A 
ATOM     35  C   UNL     1       5.886   6.811   8.447  0.00  0.00    +0.286 A 
ATOM     38  C   UNL     1       7.203   6.396   8.377  0.00  0.00    -0.150 A 
ATOM     39  C   UNL     1       7.784   6.121   7.143  0.00  0.00    +0.261 A 
ATOM     42  C   UNL     1       7.056   6.261   5.972  0.00  0.00    -0.139 A 
ATOM     43  C   UNL     1       5.734   6.677   6.023  0.00  0.00    +0.228 A 
ATOM     44  O   UNL     1       3.176   7.650   8.349  0.00  0.00    -0.459 OA
ATOM     45  O   UNL     1       5.010   6.816   4.892  0.00  0.00    -0.220 OA
BRANCH  35  36
ATOM     36  O   UNL     1       5.317   7.079   9.649  0.00  0.00    -0.467 OA
ATOM     37  H   UNL     1       5.904   6.965  10.573  0.00  0.00    +0.440 HD
ENDBRANCH  35  36
BRANCH  39  40
ATOM     40  O   UNL     1       9.077   5.713   7.086  0.00  0.00    -0.496 OA
ATOM     41  H   UNL     1       9.542   5.494   6.113  0.00  0.00    +0.445 HD
ENDBRANCH  39  40
ENDBRANCH  30  31
ENDBRANCH   4   3
ENDBRANCH   5   4
TORSDOF 9
