REMARK  Name = ZINC95485993
REMARK  12 active torsions:
REMARK  status: ('A' for Active; 'I' for Inactive)
REMARK    1  A    between atoms: C1_1  and  C2_2
REMARK    2  A    between atoms: C6_8  and  C25_33
REMARK    3  A    between atoms: C6_8  and  C26_34
REMARK    4  A    between atoms: C7_9  and  O3_32
REMARK    5  A    between atoms: C8_11  and  C21_28
REMARK    6  A    between atoms: C8_11  and  C22_29
REMARK    7  A    between atoms: C9_12  and  O1_17
REMARK    8  A    between atoms: O1_17  and  C12_18
REMARK    9  A    between atoms: C12_18  and  C13_20
REMARK   10  A    between atoms: C14_21  and  C15_22
REMARK   11  A    between atoms: C22_29  and  C23_30
REMARK   12  A    between atoms: C22_29  and  C24_31
REMARK                            x       y       z     vdW  Elec       q    Type
REMARK                         _______ _______ _______ _____ _____    ______ ____
ROOT
ATOM      1  C   UNL     1       1.665   2.883  -3.002  0.00  0.00    +0.018 C 
ATOM      2  C   UNL     1       1.499   1.366  -2.923  0.00  0.00    -0.024 C 
ATOM      3  C   UNL     1       2.757   0.656  -3.464  0.00  0.00    +0.017 C 
ATOM      4  C   UNL     1       2.692  -0.749  -2.801  0.00  0.00    +0.002 C 
ATOM      5  C   UNL     1       4.049  -1.349  -2.796  0.00  0.00    +0.029 C 
ATOM      6  C   UNL     1       4.281  -2.698  -2.188  0.00  0.00    -0.075 C 
ATOM      7  C   UNL     1       3.216  -3.684  -2.683  0.00  0.00    +0.027 C 
ATOM      8  C   UNL     1       5.631  -3.214  -2.756  0.00  0.00    +0.016 C 
ATOM      9  C   UNL     1       4.396  -2.749  -0.706  0.00  0.00    +0.193 C 
ATOM     12  C   UNL     1       3.329  -2.101   0.135  0.00  0.00    -0.032 C 
ATOM     16  C   UNL     1       2.116  -3.027   0.259  0.00  0.00    +0.048 C 
ATOM     17  C   UNL     1       2.880  -0.733  -0.223  0.00  0.00    +0.211 C 
ATOM     29  C   UNL     1       2.054  -0.516  -1.451  0.00  0.00    -0.022 C 
ATOM     30  C   UNL     1       1.418   0.891  -1.450  0.00  0.00    +0.015 C 
ENDROOT
BRANCH  12  13
ATOM     13  C   UNL     1       3.917  -1.987   1.564  0.00  0.00    -0.028 C 
ATOM     14  C   UNL     1       4.431  -3.356   2.014  0.00  0.00    +0.031 C 
ATOM     15  C   UNL     1       2.828  -1.510   2.527  0.00  0.00    +0.016 C 
ENDBRANCH  12  13
BRANCH   9  10
ATOM     10  O   UNL     1       4.511  -4.128  -0.308  0.00  0.00    -0.559 OA
ATOM     11  H   UNL     1       5.279  -4.582  -0.680  0.00  0.00    +0.369 HD
ENDBRANCH   9  10
BRANCH  17  18
ATOM     18  O   UNL     1       4.026   0.122  -0.293  0.00  0.00    -0.339 OA
BRANCH  18  19
ATOM     19  C   UNL     1       3.979   1.270   0.414  0.00  0.00    +0.486 C 
ATOM     28  O   UNL     1       3.010   1.517   1.107  0.00  0.00    -0.489 OA
BRANCH  19  20
ATOM     20  C   UNL     1       5.092   2.216   0.348  0.00  0.00    -0.055 C 
ATOM     21  C   UNL     1       5.106   3.297   1.155  0.00  0.00    +0.140 C 
BRANCH  21  22
ATOM     22  C   UNL     1       4.172   3.382   2.289  0.00  0.00    -0.082 A 
ATOM     23  C   UNL     1       3.957   2.269   3.107  0.00  0.00    +0.064 A 
ATOM     24  C   UNL     1       3.081   2.357   4.168  0.00  0.00    -0.008 A 
ATOM     25  C   UNL     1       2.414   3.543   4.423  0.00  0.00    +0.015 A 
ATOM     26  C   UNL     1       2.621   4.649   3.618  0.00  0.00    -0.009 A 
ATOM     27  C   UNL     1       3.499   4.579   2.557  0.00  0.00    +0.027 A 
ENDBRANCH  21  22
ENDBRANCH  19  20
ENDBRANCH  18  19
ENDBRANCH  17  18
TORSDOF 6
