REMARK  Name = ZINC95486285
REMARK  9 active torsions:
REMARK  status: ('A' for Active; 'I' for Inactive)
REMARK    1  A    between atoms: C1_1  and  C2_2
REMARK    2  A    between atoms: C3_3  and  O8_25
REMARK    3  A    between atoms: C7_7  and  O1_8
REMARK    4  A    between atoms: C9_11  and  O7_23
REMARK    5  A    between atoms: C10_12  and  O4_14
REMARK    6  A    between atoms: O4_14  and  C11_15
REMARK    7  A    between atoms: C14_18  and  O6_22
REMARK    8  A    between atoms: C15_19  and  O5_21
REMARK    9  A    between atoms: O7_23  and  C17_24
REMARK                            x       y       z     vdW  Elec       q    Type
REMARK                         _______ _______ _______ _____ _____    ______ ____
ROOT
ATOM      1  C   UNL     1      -0.279   1.498   0.034  0.00  0.00    +0.121 C 
ATOM      2  C   UNL     1      -0.212  -0.008   0.021  0.00  0.00    -0.167 A 
ATOM      3  C   UNL     1      -0.209  -0.692  -1.190  0.00  0.00    +0.193 A 
ATOM      6  C   UNL     1      -0.147  -2.076  -1.219  0.00  0.00    -0.020 A 
ATOM      7  C   UNL     1      -0.087  -2.793  -0.034  0.00  0.00    +0.187 A 
ATOM      8  C   UNL     1      -0.090  -2.104   1.191  0.00  0.00    -0.252 A 
ATOM      9  C   UNL     1      -0.026  -2.887   2.436  0.00  0.00    +0.442 A 
ATOM     10  C   UNL     1       0.035  -4.295   2.318  0.00  0.00    -0.076 A 
ATOM     13  C   UNL     1       0.031  -4.864   1.083  0.00  0.00    +0.225 A 
ATOM     25  O   UNL     1      -0.025  -2.342   3.529  0.00  0.00    -0.426 OA
ATOM     26  O   UNL     1      -0.028  -4.141  -0.044  0.00  0.00    -0.232 OA
ATOM     27  C   UNL     1      -0.147  -0.705   1.213  0.00  0.00    +0.221 A 
ENDROOT
BRANCH   3   4
ATOM      4  O   UNL     1      -0.267   0.003  -2.355  0.00  0.00    -0.483 OA
ATOM      5  H   UNL     1       0.598   0.245  -2.713  0.00  0.00    +0.404 HD
ENDBRANCH   3   4
BRANCH  10  11
ATOM     11  O   UNL     1       0.096  -5.076   3.433  0.00  0.00    -0.285 OA
ATOM     12  C   UNL     1       0.155  -6.489   3.233  0.00  0.00    +0.258 C 
ENDBRANCH  10  11
BRANCH  27  28
ATOM     28  O   UNL     1      -0.143  -0.039   2.395  0.00  0.00    -0.468 OA
ATOM     29  H   UNL     1      -1.024   0.114   2.763  0.00  0.00    +0.403 HD
ENDBRANCH  27  28
BRANCH  13  14
ATOM     14  O   UNL     1       0.089  -6.211   0.989  0.00  0.00    -0.205 OA
BRANCH  14  15
ATOM     15  C   UNL     1      -0.014  -6.770  -0.246  0.00  0.00    +0.059 A 
ATOM     16  C   UNL     1       1.074  -6.754  -1.107  0.00  0.00    +0.036 A 
ATOM     17  C   UNL     1       0.971  -7.321  -2.363  0.00  0.00    +0.029 A 
ATOM     18  C   UNL     1      -0.219  -7.906  -2.766  0.00  0.00    +0.098 A 
ATOM     21  C   UNL     1      -1.311  -7.923  -1.904  0.00  0.00    +0.096 A 
ATOM     24  C   UNL     1      -1.205  -7.360  -0.643  0.00  0.00    +0.023 A 
BRANCH  18  19
ATOM     19  O   UNL     1      -0.319  -8.463  -4.003  0.00  0.00    -0.484 OA
ATOM     20  H   UNL     1      -0.077  -9.399  -4.034  0.00  0.00    +0.394 HD
ENDBRANCH  18  19
BRANCH  21  22
ATOM     22  O   UNL     1      -2.479  -8.497  -2.297  0.00  0.00    -0.481 OA
ATOM     23  H   UNL     1      -2.547  -9.438  -2.084  0.00  0.00    +0.393 HD
ENDBRANCH  21  22
ENDBRANCH  14  15
ENDBRANCH  13  14
TORSDOF 7
