REMARK  Name = ZINC95485975
REMARK  24 active torsions:
REMARK  status: ('A' for Active; 'I' for Inactive)
REMARK    1  A    between atoms: C1_1  and  C2_2
REMARK    2  A    between atoms: C2_2  and  C3_3
REMARK    3  A    between atoms: C3_3  and  C4_4
REMARK    4  A    between atoms: C6_6  and  C34_41
REMARK    5  A    between atoms: C7_8  and  C26_33
REMARK    6  A    between atoms: C7_8  and  C27_34
REMARK    7  A    between atoms: C8_9  and  C20_27
REMARK    8  A    between atoms: C11_14  and  C13_17
REMARK    9  A    between atoms: C13_17  and  C14_19
REMARK   10  A    between atoms: C17_22  and  O6_26
REMARK   11  A    between atoms: C18_23  and  O5_25
REMARK   12  A    between atoms: C20_27  and  C21_28
REMARK   13  A    between atoms: C21_28  and  C22_29
REMARK   14  A    between atoms: C23_30  and  C24_31
REMARK   15  A    between atoms: C23_30  and  C25_32
REMARK   16  A    between atoms: C27_34  and  C28_35
REMARK   17  A    between atoms: C28_35  and  C29_36
REMARK   18  A    between atoms: C30_37  and  C31_38
REMARK   19  A    between atoms: C30_37  and  C32_39
REMARK   20  A    between atoms: C32_39  and  C33_40
REMARK   21  A    between atoms: C34_41  and  C35_42
REMARK   22  A    between atoms: C35_42  and  C36_43
REMARK   23  A    between atoms: C37_44  and  C38_45
REMARK   24  A    between atoms: C37_44  and  C39_46
REMARK                            x       y       z     vdW  Elec       q    Type
REMARK                         _______ _______ _______ _____ _____    ______ ____
ROOT
ATOM      4  C   UNL     1      -1.421  -3.866  -1.155  0.00  0.00    -0.140 C 
ATOM      5  C   UNL     1      -0.257  -3.603  -0.195  0.00  0.00    +0.086 C 
ATOM      6  C   UNL     1       0.231  -4.892   0.455  0.00  0.00    -0.022 C 
ATOM     13  C   UNL     1       0.606  -5.962  -0.564  0.00  0.00    -0.030 C 
ATOM     21  C   UNL     1       1.839  -5.509  -1.355  0.00  0.00    +0.052 C 
ATOM     22  C   UNL     1      -0.545  -6.240  -1.535  0.00  0.00    -0.129 C 
ATOM     29  C   UNL     1      -1.743  -6.766  -0.774  0.00  0.00    +0.393 C 
ATOM     30  C   UNL     1      -2.537  -5.864   0.136  0.00  0.00    -0.071 C 
ATOM     43  O   UNL     1      -2.073  -7.931  -0.902  0.00  0.00    -0.391 OA
ATOM     44  C   UNL     1      -2.586  -4.452  -0.390  0.00  0.00    +0.387 C 
ATOM     45  O   UNL     1      -3.579  -3.774  -0.197  0.00  0.00    -0.404 OA
ATOM     46  C   UNL     1      -0.960  -4.915  -2.155  0.00  0.00    +0.382 C 
ATOM     47  O   UNL     1      -0.929  -4.712  -3.344  0.00  0.00    -0.393 OA
ENDROOT
BRANCH  30  31
ATOM     31  C   UNL     1      -3.952  -6.397   0.238  0.00  0.00    +0.417 C 
ATOM     42  O   UNL     1      -4.410  -7.078  -0.655  0.00  0.00    -0.408 OA
BRANCH  31  32
ATOM     32  C   UNL     1      -4.770  -6.088   1.418  0.00  0.00    -0.152 A 
ATOM     33  C   UNL     1      -4.246  -5.297   2.447  0.00  0.00    +0.071 A 
ATOM     34  C   UNL     1      -5.015  -5.008   3.553  0.00  0.00    +0.005 A 
ATOM     35  C   UNL     1      -6.310  -5.501   3.650  0.00  0.00    +0.121 A 
ATOM     38  C   UNL     1      -6.839  -6.290   2.629  0.00  0.00    +0.073 A 
ATOM     41  C   UNL     1      -6.077  -6.580   1.515  0.00  0.00    +0.081 A 
BRANCH  35  36
ATOM     36  O   UNL     1      -7.063  -5.214   4.743  0.00  0.00    -0.484 OA
ATOM     37  H   UNL     1      -7.587  -4.406   4.658  0.00  0.00    +0.395 HD
ENDBRANCH  35  36
BRANCH  38  39
ATOM     39  O   UNL     1      -8.107  -6.771   2.729  0.00  0.00    -0.482 OA
ATOM     40  H   UNL     1      -8.781  -6.185   2.357  0.00  0.00    +0.391 HD
ENDBRANCH  38  39
ENDBRANCH  31  32
ENDBRANCH  30  31
BRANCH   4   3
ATOM      3  C   UNL     1      -1.835  -2.574  -1.876  0.00  0.00    +0.075 C 
BRANCH   3   2
ATOM      1  C   UNL     1      -3.395  -1.588  -3.560  0.00  0.00    +0.018 C 
ATOM      2  C   UNL     1      -2.983  -2.875  -2.842  0.00  0.00    -0.003 C 
ENDBRANCH   3   2
ENDBRANCH   4   3
BRANCH   6   7
ATOM      7  C   UNL     1       1.475  -4.570   1.300  0.00  0.00    +0.040 C 
BRANCH   7   8
ATOM      8  C   UNL     1       1.078  -3.667   2.469  0.00  0.00    +0.044 C 
BRANCH   8   9
ATOM      9  C   UNL     1       2.296  -3.352   3.298  0.00  0.00    -0.059 C 
ATOM     10  C   UNL     1       2.687  -2.110   3.443  0.00  0.00    -0.129 C 
ATOM     11  C   UNL     1       3.884  -1.791   4.301  0.00  0.00    +0.070 C 
ATOM     12  C   UNL     1       1.939  -0.999   2.751  0.00  0.00    +0.071 C 
ENDBRANCH   8   9
ENDBRANCH   7   8
ENDBRANCH   6   7
BRANCH  13  14
ATOM     14  C   UNL     1       0.959  -7.257   0.182  0.00  0.00    +0.049 C 
BRANCH  14  15
ATOM     15  C   UNL     1      -0.139  -7.575   1.200  0.00  0.00    +0.024 C 
BRANCH  15  16
ATOM     16  C   UNL     1       0.286  -8.747   2.047  0.00  0.00    -0.048 C 
ATOM     17  C   UNL     1       0.395  -8.611   3.345  0.00  0.00    -0.125 C 
ATOM     20  C   UNL     1       0.194  -7.259   3.981  0.00  0.00    +0.071 C 
BRANCH  17  18
ATOM     18  C   UNL     1       0.721  -9.806   4.204  0.00  0.00    +0.045 C 
ATOM     19  C   UNL     1       2.230  -9.860   4.450  0.00  0.00    +0.018 C 
ENDBRANCH  17  18
ENDBRANCH  15  16
ENDBRANCH  14  15
ENDBRANCH  13  14
BRANCH  22  23
ATOM     23  C   UNL     1      -0.112  -7.234  -2.623  0.00  0.00    +0.083 C 
BRANCH  23  24
ATOM     24  C   UNL     1      -1.283  -7.491  -3.574  0.00  0.00    +0.048 C 
BRANCH  24  25
ATOM     25  C   UNL     1      -0.858  -8.466  -4.642  0.00  0.00    -0.056 C 
ATOM     26  C   UNL     1      -1.546  -9.563  -4.838  0.00  0.00    -0.129 C 
ATOM     27  C   UNL     1      -1.121 -10.539  -5.905  0.00  0.00    +0.071 C 
ATOM     28  C   UNL     1      -2.762  -9.851  -3.995  0.00  0.00    +0.073 C 
ENDBRANCH  24  25
ENDBRANCH  23  24
ENDBRANCH  22  23
TORSDOF 16
