REMARK  Name = ZINC13411589
REMARK  2 active torsions:
REMARK  status: ('A' for Active; 'I' for Inactive)
REMARK    1  A    between atoms: C1_1  and  N1_2
REMARK    2  A    between atoms: C8_9  and  N3_19
REMARK                            x       y       z     vdW  Elec       q    Type
REMARK                         _______ _______ _______ _____ _____    ______ ____
ROOT
ATOM      1  C   UNL     1      -7.767   2.674   0.101  0.00  0.00    +0.337 C 
ATOM      2  N   UNL     1      -6.346   3.030   0.090  0.00  0.00    -0.400 N 
ATOM      3  C   UNL     1      -5.678   3.187   1.279  0.00  0.00    +0.174 A 
ATOM      4  C   UNL     1      -6.344   3.010   2.492  0.00  0.00    -0.016 A 
ATOM      5  C   UNL     1      -5.662   3.171   3.676  0.00  0.00    +0.095 A 
ATOM      6  C   UNL     1      -4.314   3.509   3.679  0.00  0.00    +0.009 A 
ATOM      7  C   UNL     1      -3.640   3.687   2.507  0.00  0.00    +0.083 A 
ATOM      8  C   UNL     1      -4.311   3.529   1.285  0.00  0.00    -0.096 A 
ATOM      9  C   UNL     1      -3.627   3.710   0.057  0.00  0.00    +0.257 A 
ATOM     27  C   UNL     1      -4.333   3.549  -1.152  0.00  0.00    +0.086 A 
ATOM     28  N   UNL     1      -3.937   3.664  -2.434  0.00  0.00    -0.525 NA
ATOM     29  C   UNL     1      -4.949   3.422  -3.265  0.00  0.00    +0.190 A 
ATOM     30  C   UNL     1      -5.082   3.407  -4.665  0.00  0.00    +0.005 A 
ATOM     31  C   UNL     1      -6.287   3.112  -5.224  0.00  0.00    +0.062 A 
ATOM     32  C   UNL     1      -7.404   2.822  -4.445  0.00  0.00    -0.049 A 
ATOM     33  C   UNL     1      -7.341   2.820  -3.084  0.00  0.00    +0.070 A 
ATOM     34  C   UNL     1      -6.127   3.108  -2.448  0.00  0.00    -0.228 A 
ATOM     35  C   UNL     1      -5.700   3.202  -1.111  0.00  0.00    +0.138 A 
ENDROOT
BRANCH   9  10
ATOM     10  N   UNL     1      -2.293   4.044   0.046  0.00  0.00    -0.468 N 
ATOM     11  C   UNL     1      -1.246   3.134   0.031  0.00  0.00    +0.176 A 
ATOM     12  C   UNL     1      -1.219   1.743   0.017  0.00  0.00    -0.019 A 
ATOM     13  C   UNL     1      -0.013   1.076   0.008  0.00  0.00    +0.067 A 
ATOM     14  C   UNL     1       1.182   1.779   0.000  0.00  0.00    -0.016 A 
ATOM     15  C   UNL     1       1.175   3.158   0.008  0.00  0.00    +0.099 A 
ATOM     16  C   UNL     1      -0.037   3.844   0.023  0.00  0.00    -0.101 A 
ATOM     17  C   UNL     1      -0.386   5.280   0.034  0.00  0.00    +0.166 A 
ATOM     18  N   UNL     1       0.347   6.377   0.033  0.00  0.00    -0.434 NA
ATOM     19  C   UNL     1      -0.210   7.589   0.045  0.00  0.00    +0.122 A 
ATOM     20  C   UNL     1       0.588   8.749   0.044  0.00  0.00    +0.055 A 
ATOM     21  C   UNL     1      -0.002   9.975   0.058  0.00  0.00    +0.023 A 
ATOM     22  C   UNL     1      -1.389  10.106   0.072  0.00  0.00    +0.022 A 
ATOM     23  C   UNL     1      -2.195   9.009   0.073  0.00  0.00    +0.025 A 
ATOM     24  C   UNL     1      -1.622   7.726   0.059  0.00  0.00    -0.066 A 
ATOM     25  C   UNL     1      -2.425   6.571   0.061  0.00  0.00    +0.048 A 
ATOM     26  C   UNL     1      -1.798   5.341   0.048  0.00  0.00    +0.110 A 
ENDBRANCH   9  10
TORSDOF 1
