REMARK  Name = ZINC95485951
REMARK  7 active torsions:
REMARK  status: ('A' for Active; 'I' for Inactive)
REMARK    1  A    between atoms: C1_1  and  C2_2
REMARK    2  A    between atoms: C4_4  and  O4_23
REMARK    3  A    between atoms: C12_12  and  C17_20
REMARK    4  A    between atoms: C13_14  and  C16_18
REMARK    5  A    between atoms: C13_14  and  O2_19
REMARK    6  A    between atoms: C17_20  and  C18_22
REMARK    7  A    between atoms: O4_23  and  C19_24
REMARK                            x       y       z     vdW  Elec       q    Type
REMARK                         _______ _______ _______ _____ _____    ______ ____
ROOT
ATOM      1  C   UNL     1      -0.035   1.695   0.196  0.00  0.00    +0.106 C 
ATOM      2  C   UNL     1      -0.029   0.190   0.127  0.00  0.00    -0.015 A 
ATOM      3  C   UNL     1      -0.046  -0.437  -1.079  0.00  0.00    -0.064 A 
ATOM      4  C   UNL     1      -0.040  -1.833  -1.163  0.00  0.00    +0.152 A 
ATOM      7  C   UNL     1      -0.018  -2.607  -0.023  0.00  0.00    -0.030 A 
ATOM      8  C   UNL     1      -0.002  -1.987   1.235  0.00  0.00    +0.021 A 
ATOM      9  C   UNL     1       0.017  -2.750   2.417  0.00  0.00    +0.017 A 
ATOM     10  C   UNL     1       0.048  -2.138   3.632  0.00  0.00    -0.016 A 
ATOM     11  C   UNL     1       0.057  -2.996   4.870  0.00  0.00    +0.030 C 
ATOM     15  C   UNL     1       0.625  -2.236   6.065  0.00  0.00    +0.157 C 
ATOM     18  C   UNL     1       2.099  -1.917   5.813  0.00  0.00    +0.033 C 
ATOM     19  C   UNL     1      -0.156  -0.930   6.257  0.00  0.00    +0.018 C 
ATOM     20  C   UNL     1       0.088  -0.072   5.034  0.00  0.00    +0.409 C 
ATOM     21  O   UNL     1       0.306   1.117   5.135  0.00  0.00    -0.449 OA
ATOM     22  C   UNL     1       0.053  -0.732   3.715  0.00  0.00    -0.172 A 
ATOM     23  C   UNL     1       0.027   0.049   2.567  0.00  0.00    +0.126 A 
ATOM     24  C   UNL     1       0.000  -0.570   1.311  0.00  0.00    -0.097 A 
ENDROOT
BRANCH  11  12
ATOM     12  C   UNL     1      -1.354  -3.424   5.184  0.00  0.00    +0.372 C 
ATOM     13  C   UNL     1      -1.603  -4.714   5.923  0.00  0.00    +0.079 C 
ATOM     14  O   UNL     1      -2.284  -2.734   4.844  0.00  0.00    -0.447 OA
ENDBRANCH  11  12
BRANCH   4   5
ATOM      5  O   UNL     1      -0.056  -2.433  -2.381  0.00  0.00    -0.313 OA
ATOM      6  C   UNL     1      -0.079  -1.577  -3.525  0.00  0.00    +0.244 C 
ENDBRANCH   4   5
BRANCH  15  16
ATOM     16  O   UNL     1       0.506  -3.040   7.241  0.00  0.00    -0.550 OA
ATOM     17  H   UNL     1       0.848  -2.619   8.041  0.00  0.00    +0.388 HD
ENDBRANCH  15  16
TORSDOF 3
