REMARK  Name = ZINC03941105
REMARK  9 active torsions:
REMARK  status: ('A' for Active; 'I' for Inactive)
REMARK    1  A    between atoms: C1_1  and  C2_2
REMARK    2  A    between atoms: C5_6  and  C30_37
REMARK    3  A    between atoms: C8_9  and  C29_36
REMARK    4  A    between atoms: C13_15  and  C25_30
REMARK    5  A    between atoms: C17_20  and  C24_29
REMARK    6  A    between atoms: C20_23  and  O1_28
REMARK    7  A    between atoms: C21_25  and  C22_26
REMARK    8  A    between atoms: C21_25  and  C23_27
REMARK    9  A    between atoms: C27_33  and  C28_35
REMARK                            x       y       z     vdW  Elec       q    Type
REMARK                         _______ _______ _______ _____ _____    ______ ____
ROOT
ATOM      1  C   UNL     1      -0.202   4.541   0.040  0.00  0.00    +0.005 C 
ATOM      2  C   UNL     1      -0.121   3.030   0.241  0.00  0.00    -0.030 C 
ATOM      3  C   UNL     1      -1.393   2.508   0.896  0.00  0.00    +0.012 C 
ATOM      4  C   UNL     1      -1.536   2.994   2.332  0.00  0.00    +0.007 C 
ATOM      5  C   UNL     1      -0.315   2.607   3.171  0.00  0.00    -0.088 C 
ATOM      9  C   UNL     1      -0.439   3.297   4.541  0.00  0.00    -0.006 C 
ATOM     10  C   UNL     1       0.714   2.864   5.443  0.00  0.00    +0.032 C 
ATOM     11  C   UNL     1       2.066   3.214   4.842  0.00  0.00    +0.015 C 
ATOM     12  C   UNL     1       2.211   4.742   4.937  0.00  0.00    -0.003 C 
ATOM     13  C   UNL     1       2.166   2.884   3.374  0.00  0.00    -0.022 C 
ATOM     14  C   UNL     1       3.289   2.510   2.831  0.00  0.00    -0.111 C 
ATOM     15  C   UNL     1       4.551   2.191   3.585  0.00  0.00    +0.052 C 
ATOM     16  C   UNL     1       4.526   2.878   4.948  0.00  0.00    -0.001 C 
ATOM     17  C   UNL     1       5.781   2.550   5.759  0.00  0.00    -0.034 C 
ATOM     18  C   UNL     1       6.022   1.047   5.831  0.00  0.00    +0.026 C 
ATOM     19  C   UNL     1       6.983   3.189   5.041  0.00  0.00    +0.016 C 
ATOM     20  C   UNL     1       8.246   2.977   5.870  0.00  0.00    -0.020 C 
ATOM     21  C   UNL     1       8.116   3.670   7.221  0.00  0.00    +0.165 C 
ATOM     24  C   UNL     1       6.884   3.199   7.994  0.00  0.00    -0.037 C 
ATOM     25  C   UNL     1       7.165   1.849   8.652  0.00  0.00    +0.033 C 
ATOM     26  C   UNL     1       6.670   4.224   9.136  0.00  0.00    +0.014 C 
ATOM     27  C   UNL     1       5.642   3.188   7.135  0.00  0.00    -0.002 C 
ATOM     28  C   UNL     1       4.426   2.595   7.847  0.00  0.00    +0.013 C 
ATOM     29  C   UNL     1       3.177   3.063   7.084  0.00  0.00    +0.007 C 
ATOM     30  C   UNL     1       3.207   2.574   5.640  0.00  0.00    -0.024 C 
ATOM     31  C   UNL     1       2.948   1.057   5.643  0.00  0.00    +0.039 C 
ATOM     32  C   UNL     1       0.953   3.113   2.503  0.00  0.00    +0.036 C 
ATOM     33  C   UNL     1       1.117   2.665   1.069  0.00  0.00    -0.014 C 
ATOM     34  C   UNL     1       1.408   1.178   0.889  0.00  0.00    +0.022 C 
ENDROOT
BRANCH   5   6
ATOM      6  C   UNL     1      -0.322   1.124   3.404  0.00  0.00    +0.482 C 
ATOM      7  O   UNL     1       0.704   0.540   4.045  0.00  0.00    -0.738 OA
ATOM      8  O   UNL     1      -1.250   0.455   3.014  0.00  0.00    -0.650 OA
ENDBRANCH   5   6
BRANCH  21  22
ATOM     22  O   UNL     1       9.288   3.404   8.001  0.00  0.00    -0.566 OA
ATOM     23  H   UNL     1      10.113   3.676   7.577  0.00  0.00    +0.371 HD
ENDBRANCH  21  22
TORSDOF 2
