REMARK  Name = ZINC14559514
REMARK  12 active torsions:
REMARK  status: ('A' for Active; 'I' for Inactive)
REMARK    1  A    between atoms: C1_1  and  C2_2
REMARK    2  A    between atoms: C2_2  and  C26_34
REMARK    3  A    between atoms: C3_3  and  C4_4
REMARK    4  A    between atoms: C4_4  and  C5_5
REMARK    5  A    between atoms: C5_5  and  C6_6
REMARK    6  A    between atoms: C6_6  and  C25_33
REMARK    7  A    between atoms: C14_14  and  O1_15
REMARK    8  A    between atoms: C16_18  and  C18_22
REMARK    9  A    between atoms: C21_25  and  O6_30
REMARK   10  A    between atoms: C22_26  and  O5_29
REMARK   11  A    between atoms: C23_27  and  O4_28
REMARK   12  A    between atoms: O6_30  and  C24_31
REMARK                            x       y       z     vdW  Elec       q    Type
REMARK                         _______ _______ _______ _____ _____    ______ ____
ROOT
ATOM      7  C   UNL     1      -5.423  -5.435  -2.865  0.00  0.00    +0.153 C 
ATOM      8  C   UNL     1      -6.943  -5.388  -3.033  0.00  0.00    +0.086 C 
ATOM      9  C   UNL     1      -4.778  -5.575  -4.218  0.00  0.00    -0.057 C 
ATOM     10  C   UNL     1      -3.559  -5.085  -4.431  0.00  0.00    +0.059 C 
ATOM     11  C   UNL     1      -2.884  -4.380  -3.323  0.00  0.00    -0.210 A 
ATOM     12  C   UNL     1      -3.652  -3.985  -2.214  0.00  0.00    +0.226 A 
ATOM     13  C   UNL     1      -3.057  -3.330  -1.149  0.00  0.00    -0.051 A 
ATOM     14  C   UNL     1      -1.702  -3.041  -1.174  0.00  0.00    +0.237 A 
ATOM     15  C   UNL     1      -0.928  -3.425  -2.286  0.00  0.00    -0.314 A 
ATOM     16  C   UNL     1       0.503  -3.122  -2.294  0.00  0.00    +0.414 C 
ATOM     17  C   UNL     1       1.063  -2.241  -1.207  0.00  0.00    +0.012 C 
ATOM     30  C   UNL     1       0.256  -2.406   0.072  0.00  0.00    +0.283 C 
ATOM     31  O   UNL     1       1.226  -3.572  -3.159  0.00  0.00    -0.433 OA
ATOM     32  O   UNL     1      -1.137  -2.386  -0.140  0.00  0.00    -0.295 OA
ATOM     33  C   UNL     1      -1.523  -4.093  -3.367  0.00  0.00    +0.256 A 
ATOM     36  O   UNL     1      -4.985  -4.241  -2.218  0.00  0.00    -0.292 OA
ENDROOT
BRANCH  17  18
ATOM     18  C   UNL     1       1.004  -0.803  -1.651  0.00  0.00    -0.137 A 
ATOM     19  C   UNL     1      -0.214  -0.222  -1.952  0.00  0.00    +0.079 A 
ATOM     20  C   UNL     1      -0.274   1.097  -2.361  0.00  0.00    -0.059 A 
ATOM     21  C   UNL     1       0.890   1.844  -2.470  0.00  0.00    +0.128 A 
ATOM     24  C   UNL     1       2.116   1.265  -2.168  0.00  0.00    +0.049 A 
ATOM     27  C   UNL     1       2.171  -0.063  -1.758  0.00  0.00    +0.139 A 
BRANCH  21  22
ATOM     22  O   UNL     1       0.830   3.141  -2.873  0.00  0.00    -0.303 OA
ATOM     23  C   UNL     1      -0.464   3.671  -3.167  0.00  0.00    +0.246 C 
ENDBRANCH  21  22
BRANCH  24  25
ATOM     25  O   UNL     1       3.260   1.994  -2.274  0.00  0.00    -0.472 OA
ATOM     26  H   UNL     1       3.676   1.949  -3.146  0.00  0.00    +0.385 HD
ENDBRANCH  24  25
BRANCH  27  28
ATOM     28  O   UNL     1       3.369  -0.634  -1.461  0.00  0.00    -0.480 OA
ATOM     29  H   UNL     1       3.801  -1.056  -2.217  0.00  0.00    +0.395 HD
ENDBRANCH  27  28
ENDBRANCH  17  18
BRANCH  33  34
ATOM     34  O   UNL     1      -0.781  -4.456  -4.442  0.00  0.00    -0.474 OA
ATOM     35  H   UNL     1      -0.390  -5.338  -4.370  0.00  0.00    +0.403 HD
ENDBRANCH  33  34
BRANCH   7   6
ATOM      6  C   UNL     1      -5.050  -6.641  -2.002  0.00  0.00    +0.020 C 
BRANCH   6   5
ATOM      5  C   UNL     1      -5.824  -6.585  -0.683  0.00  0.00    +0.060 C 
BRANCH   5   4
ATOM      1  C   UNL     1      -7.844  -8.195   0.448  0.00  0.00    +0.073 C 
ATOM      2  C   UNL     1      -6.394  -8.557   0.637  0.00  0.00    -0.131 C 
ATOM      3  C   UNL     1      -6.023  -9.822   1.368  0.00  0.00    +0.071 C 
ATOM      4  C   UNL     1      -5.456  -7.773   0.167  0.00  0.00    -0.062 C 
ENDBRANCH   5   4
ENDBRANCH   6   5
ENDBRANCH   7   6
TORSDOF 8
