REMARK  Name = ZINC02578057
REMARK  7 active torsions:
REMARK  status: ('A' for Active; 'I' for Inactive)
REMARK    1  A    between atoms: C1_1  and  C2_2
REMARK    2  A    between atoms: C2_2  and  C22_27
REMARK    3  A    between atoms: C10_10  and  O1_11
REMARK    4  A    between atoms: O1_11  and  C11_12
REMARK    5  A    between atoms: C13_15  and  C15_18
REMARK    6  A    between atoms: C18_21  and  O4_24
REMARK    7  A    between atoms: O4_24  and  C21_25
REMARK                            x       y       z     vdW  Elec       q    Type
REMARK                         _______ _______ _______ _____ _____    ______ ____
ROOT
ATOM      1  C   UNL     1      -0.019   1.526   0.010  0.00  0.00    +0.089 C 
ATOM      2  C   UNL     1       0.002  -0.004   0.002  0.00  0.00    +0.146 C 
ATOM      3  C   UNL     1       0.743  -0.505   1.243  0.00  0.00    +0.039 C 
ATOM      4  C   UNL     1       0.720  -0.484  -1.232  0.00  0.00    -0.048 C 
ATOM      5  C   UNL     1       0.410  -1.665  -1.765  0.00  0.00    +0.056 C 
ATOM      6  C   UNL     1      -0.653  -2.461  -1.118  0.00  0.00    -0.183 A 
ATOM      7  C   UNL     1      -1.519  -1.817  -0.215  0.00  0.00    +0.211 A 
ATOM      8  C   UNL     1      -2.528  -2.523   0.408  0.00  0.00    -0.023 A 
ATOM      9  C   UNL     1      -2.698  -3.880   0.151  0.00  0.00    +0.194 A 
ATOM     10  C   UNL     1      -1.832  -4.527  -0.749  0.00  0.00    -0.272 A 
ATOM     11  C   UNL     1      -2.028  -5.964  -1.004  0.00  0.00    +0.430 A 
ATOM     12  C   UNL     1      -3.137  -6.611  -0.279  0.00  0.00    -0.231 A 
ATOM     21  C   UNL     1      -3.889  -5.855   0.559  0.00  0.00    +0.322 A 
ATOM     22  O   UNL     1      -1.313  -6.584  -1.772  0.00  0.00    -0.438 OA
ATOM     23  O   UNL     1      -3.685  -4.557   0.767  0.00  0.00    -0.205 OA
ATOM     24  C   UNL     1      -0.806  -3.817  -1.387  0.00  0.00    +0.233 A 
ATOM     27  O   UNL     1      -1.339  -0.493   0.025  0.00  0.00    -0.294 OA
ENDROOT
BRANCH  12  13
ATOM     13  C   UNL     1      -3.422  -8.055  -0.461  0.00  0.00    -0.066 A 
ATOM     14  C   UNL     1      -3.546  -8.586  -1.744  0.00  0.00    +0.081 A 
ATOM     15  C   UNL     1      -3.805  -9.930  -1.910  0.00  0.00    -0.075 A 
ATOM     16  C   UNL     1      -3.955 -10.752  -0.801  0.00  0.00    +0.133 A 
ATOM     19  C   UNL     1      -3.838 -10.225   0.477  0.00  0.00    -0.016 A 
ATOM     20  C   UNL     1      -3.573  -8.883   0.650  0.00  0.00    +0.061 A 
BRANCH  16  17
ATOM     17  O   UNL     1      -4.217 -12.075  -0.969  0.00  0.00    -0.317 OA
ATOM     18  C   UNL     1      -4.324 -12.551  -2.312  0.00  0.00    +0.241 C 
ENDBRANCH  16  17
ENDBRANCH  12  13
BRANCH  24  25
ATOM     25  O   UNL     1       0.025  -4.444  -2.256  0.00  0.00    -0.316 OA
ATOM     26  C   UNL     1       1.214  -5.023  -1.714  0.00  0.00    +0.247 C 
ENDBRANCH  24  25
TORSDOF 3
