REMARK  Name = ZINC06019276
REMARK  4 active torsions:
REMARK  status: ('A' for Active; 'I' for Inactive)
REMARK    1  A    between atoms: C1_1  and  C2_2
REMARK    2  A    between atoms: C5_6  and  C15_20
REMARK    3  A    between atoms: C11_13  and  C14_18
REMARK    4  A    between atoms: C12_14  and  C13_16
REMARK                            x       y       z     vdW  Elec       q    Type
REMARK                         _______ _______ _______ _____ _____    ______ ____
ROOT
ATOM      1  C   UNL     1       0.028   1.219  -2.492  0.00  0.00    +0.025 C 
ATOM      2  C   UNL     1      -0.755   1.594  -1.232  0.00  0.00    +0.021 C 
ATOM      3  C   UNL     1      -0.013   1.086   0.008  0.00  0.00    +0.026 C 
ATOM      4  C   UNL     1      -0.730   1.580   1.265  0.00  0.00    +0.019 C 
ATOM      5  C   UNL     1      -0.677   3.106   1.332  0.00  0.00    -0.039 C 
ATOM      6  C   UNL     1       0.775   3.590   1.316  0.00  0.00    +0.038 C 
ATOM      7  C   UNL     1      -1.433   3.699   0.134  0.00  0.00    +0.046 C 
ATOM      8  C   UNL     1      -1.196   5.212   0.119  0.00  0.00    +0.085 C 
ATOM      9  C   UNL     1      -1.480   5.791   1.474  0.00  0.00    +0.076 C 
ATOM     10  C   UNL     1      -1.552   5.070   2.578  0.00  0.00    -0.216 C 
ATOM     13  C   UNL     1      -1.365   3.581   2.615  0.00  0.00    +0.005 C 
ATOM     16  C   UNL     1      -0.874   3.099  -1.136  0.00  0.00    -0.107 C 
ATOM     17  C   UNL     1      -0.499   3.865  -2.130  0.00  0.00    +0.003 C 
ENDROOT
BRANCH  10  11
ATOM     11  C   UNL     1      -1.830   5.762   3.837  0.00  0.00    +0.466 C 
ATOM     12  O   UNL     1      -1.903   5.133   4.871  0.00  0.00    -0.450 OA
ENDBRANCH  10  11
BRANCH  13  14
ATOM     14  C   UNL     1      -0.515   3.214   3.804  0.00  0.00    +0.447 C 
ATOM     15  O   UNL     1      -0.959   2.489   4.662  0.00  0.00    -0.444 OA
ENDBRANCH  13  14
TORSDOF 2
