REMARK  Name = ZINC95486301
REMARK  5 active torsions:
REMARK  status: ('A' for Active; 'I' for Inactive)
REMARK    1  A    between atoms: C1_1  and  C2_2
REMARK    2  A    between atoms: C11_12  and  O3_31
REMARK    3  A    between atoms: C15_16  and  C24_30
REMARK    4  A    between atoms: C20_24  and  C22_27
REMARK    5  A    between atoms: C22_27  and  C23_29
REMARK                            x       y       z     vdW  Elec       q    Type
REMARK                         _______ _______ _______ _____ _____    ______ ____
ROOT
ATOM      1  C   UNL     1      -0.745   1.653   0.716  0.00  0.00    +0.090 C 
ATOM      2  C   UNL     1      -0.740   0.147   0.780  0.00  0.00    +0.056 C 
ATOM      3  C   UNL     1      -1.850  -0.525   0.556  0.00  0.00    -0.189 C 
ATOM      4  C   UNL     1      -1.939  -2.017   0.821  0.00  0.00    +0.312 C 
ATOM      5  N   UNL     1      -2.686  -2.693  -0.245  0.00  0.00    -0.363 N 
ATOM      6  H   UNL     1      -2.884  -3.648   0.096  0.00  0.00    +0.429 HD
ATOM      7  C   UNL     1      -1.812  -2.835  -1.407  0.00  0.00    +0.253 C 
ATOM      8  C   UNL     1      -1.574  -1.480  -2.071  0.00  0.00    +0.095 C 
ATOM      9  C   UNL     1      -2.866  -0.759  -2.318  0.00  0.00    -0.048 C 
ATOM     10  C   UNL     1      -2.944  -0.265  -3.762  0.00  0.00    +0.110 C 
ATOM     11  C   UNL     1      -3.308  -1.354  -4.728  0.00  0.00    -0.055 A 
ATOM     12  C   UNL     1      -2.993  -1.159  -6.067  0.00  0.00    -0.014 A 
ATOM     13  C   UNL     1      -3.297  -2.126  -7.008  0.00  0.00    +0.122 A 
ATOM     16  C   UNL     1      -3.913  -3.303  -6.606  0.00  0.00    -0.006 A 
ATOM     17  C   UNL     1      -4.224  -3.491  -5.277  0.00  0.00    +0.036 A 
ATOM     18  C   UNL     1      -3.940  -2.510  -4.333  0.00  0.00    -0.092 A 
ATOM     19  C   UNL     1      -4.363  -2.750  -2.914  0.00  0.00    +0.050 C 
ATOM     20  C   UNL     1      -5.875  -3.023  -2.917  0.00  0.00    +0.058 C 
ATOM     21  C   UNL     1      -3.131   0.462  -1.408  0.00  0.00    -0.131 C 
ATOM     25  C   UNL     1      -4.645   0.677  -1.758  0.00  0.00    +0.238 C 
ATOM     26  O   UNL     1      -5.182  -0.634  -2.008  0.00  0.00    -0.332 OA
ATOM     27  C   UNL     1      -4.108  -1.598  -1.982  0.00  0.00    +0.134 C 
ATOM     28  C   UNL     1      -3.974  -2.090  -0.532  0.00  0.00    +0.146 C 
ATOM     29  C   UNL     1      -4.239  -0.886   0.383  0.00  0.00    +0.092 C 
ATOM     30  C   UNL     1      -3.123   0.138   0.080  0.00  0.00    +0.078 C 
ENDROOT
BRANCH  21  22
ATOM     22  C   UNL     1      -2.295   1.671  -1.755  0.00  0.00    +0.380 C 
ATOM     23  C   UNL     1      -2.623   3.012  -1.153  0.00  0.00    +0.076 C 
ATOM     24  O   UNL     1      -1.363   1.562  -2.516  0.00  0.00    -0.428 OA
ENDBRANCH  21  22
BRANCH  13  14
ATOM     14  O   UNL     1      -2.997  -1.925  -8.318  0.00  0.00    -0.496 OA
ATOM     15  H   UNL     1      -2.118  -2.236  -8.573  0.00  0.00    +0.397 HD
ENDBRANCH  13  14
TORSDOF 2
