REMARK  Name = ZINC04096339
REMARK  8 active torsions:
REMARK  status: ('A' for Active; 'I' for Inactive)
REMARK    1  A    between atoms: C1_1  and  C2_2
REMARK    2  A    between atoms: C6_7  and  C12_16
REMARK    3  A    between atoms: C6_7  and  C13_17
REMARK    4  A    between atoms: C7_8  and  C8_9
REMARK    5  A    between atoms: C7_8  and  O3_15
REMARK    6  A    between atoms: C9_10  and  C10_11
REMARK    7  A    between atoms: C10_11  and  C11_13
REMARK    8  A    between atoms: C10_11  and  O2_14
REMARK                            x       y       z     vdW  Elec       q    Type
REMARK                         _______ _______ _______ _____ _____    ______ ____
ROOT
ATOM      1  C   UNL     1      -0.018   1.503   0.010  0.00  0.00    +0.095 C 
ATOM      2  C   UNL     1       0.002  -0.004   0.002  0.00  0.00    -0.072 C 
ATOM      3  C   UNL     1       0.005  -0.629  -1.169  0.00  0.00    -0.074 C 
ATOM      4  C   UNL     1       0.015  -2.094  -1.234  0.00  0.00    +0.387 C 
ATOM      5  C   UNL     1       0.287  -2.855   0.048  0.00  0.00    +0.049 C 
ATOM      6  C   UNL     1      -0.496  -2.156   1.169  0.00  0.00    -0.036 C 
ATOM      7  C   UNL     1      -0.292  -2.912   2.483  0.00  0.00    +0.053 C 
ATOM      8  C   UNL     1      -1.984  -2.131   0.815  0.00  0.00    +0.041 C 
ATOM      9  O   UNL     1      -0.189  -2.678  -2.278  0.00  0.00    -0.453 OA
ATOM     10  C   UNL     1       0.024  -0.725   1.317  0.00  0.00    +0.206 C 
ENDROOT
BRANCH  10  11
ATOM     11  O   UNL     1       1.365  -0.757   1.811  0.00  0.00    -0.537 OA
ATOM     12  H   UNL     1       1.752   0.118   1.955  0.00  0.00    +0.379 HD
ENDBRANCH  10  11
BRANCH  10  13
ATOM     13  C   UNL     1      -0.846   0.015   2.301  0.00  0.00    -0.048 C 
ATOM     14  C   UNL     1      -0.328   0.488   3.407  0.00  0.00    -0.007 C 
BRANCH  14  15
ATOM     15  C   UNL     1      -1.198   1.228   4.390  0.00  0.00    +0.187 C 
ATOM     18  C   UNL     1      -0.664   2.650   4.574  0.00  0.00    +0.011 C 
BRANCH  15  16
ATOM     16  O   UNL     1      -1.182   0.547   5.647  0.00  0.00    -0.563 OA
ATOM     17  H   UNL     1      -1.722   0.969   6.329  0.00  0.00    +0.381 HD
ENDBRANCH  15  16
ENDBRANCH  14  15
ENDBRANCH  10  13
TORSDOF 4
