REMARK  Name = ZINC95486284
REMARK  11 active torsions:
REMARK  status: ('A' for Active; 'I' for Inactive)
REMARK    1  A    between atoms: C1_1  and  C2_2
REMARK    2  A    between atoms: C4_4  and  O2_9
REMARK    3  A    between atoms: C7_7  and  O1_8
REMARK    4  A    between atoms: O2_9  and  C8_10
REMARK    5  A    between atoms: C9_11  and  O7_26
REMARK    6  A    between atoms: C12_15  and  O6_25
REMARK    7  A    between atoms: C13_16  and  C19_24
REMARK    8  A    between atoms: C14_17  and  O5_22
REMARK    9  A    between atoms: C15_18  and  C17_21
REMARK   10  A    between atoms: O5_22  and  C18_23
REMARK   11  A    between atoms: O7_26  and  C20_27
REMARK                            x       y       z     vdW  Elec       q    Type
REMARK                         _______ _______ _______ _____ _____    ______ ____
ROOT
ATOM      6  C   UNL     1       0.150  -4.094  -2.350  0.00  0.00    +0.226 A 
ATOM      7  C   UNL     1       0.264  -4.772  -3.522  0.00  0.00    -0.080 A 
ATOM     10  C   UNL     1       0.394  -6.180  -3.503  0.00  0.00    +0.441 A 
ATOM     11  C   UNL     1       0.398  -6.843  -2.189  0.00  0.00    -0.245 A 
ATOM     12  C   UNL     1       0.522  -8.233  -2.075  0.00  0.00    +0.213 A 
ATOM     15  C   UNL     1       0.522  -8.816  -0.822  0.00  0.00    -0.153 A 
ATOM     16  C   UNL     1       0.655 -10.312  -0.688  0.00  0.00    +0.121 C 
ATOM     17  C   UNL     1       0.398  -8.027   0.317  0.00  0.00    +0.174 A 
ATOM     20  C   UNL     1       0.275  -6.651   0.211  0.00  0.00    -0.131 A 
ATOM     21  C   UNL     1       0.142  -5.809   1.455  0.00  0.00    +0.121 C 
ATOM     22  C   UNL     1       0.274  -6.047  -1.037  0.00  0.00    +0.181 A 
ATOM     23  O   UNL     1       0.499  -6.822  -4.538  0.00  0.00    -0.427 OA
ATOM     24  O   UNL     1       0.160  -4.708  -1.158  0.00  0.00    -0.229 OA
ENDROOT
BRANCH   7   8
ATOM      8  O   UNL     1       0.253  -4.100  -4.708  0.00  0.00    -0.285 OA
ATOM      9  C   UNL     1       0.118  -2.678  -4.646  0.00  0.00    +0.258 C 
ENDBRANCH   7   8
BRANCH  12  13
ATOM     13  O   UNL     1       0.641  -9.002  -3.187  0.00  0.00    -0.467 OA
ATOM     14  H   UNL     1       1.555  -9.143  -3.471  0.00  0.00    +0.402 HD
ENDBRANCH  12  13
BRANCH  17  18
ATOM     18  O   UNL     1       0.398  -8.610   1.543  0.00  0.00    -0.325 OA
ATOM     19  C   UNL     1       1.665  -8.771   2.184  0.00  0.00    +0.241 C 
ENDBRANCH  17  18
BRANCH   6   5
ATOM      5  O   UNL     1       0.028  -2.748  -2.387  0.00  0.00    -0.205 OA
BRANCH   5   4
ATOM      1  C   UNL     1      -2.472  -0.394   1.082  0.00  0.00    +0.109 C 
ATOM      2  C   UNL     1      -1.175  -0.914   0.516  0.00  0.00    -0.097 A 
ATOM      3  C   UNL     1      -1.171  -1.597  -0.684  0.00  0.00    +0.045 A 
ATOM      4  C   UNL     1       0.023  -2.075  -1.206  0.00  0.00    +0.047 A 
ATOM     25  C   UNL     1       1.212  -1.867  -0.521  0.00  0.00    +0.030 A 
ATOM     26  C   UNL     1       1.207  -1.183   0.679  0.00  0.00    +0.013 A 
ATOM     27  C   UNL     1       0.014  -0.700   1.197  0.00  0.00    +0.119 A 
BRANCH  27  28
ATOM     28  O   UNL     1       0.010  -0.022   2.376  0.00  0.00    -0.491 OA
ATOM     29  H   UNL     1      -0.105  -0.585   3.153  0.00  0.00    +0.394 HD
ENDBRANCH  27  28
ENDBRANCH   5   4
ENDBRANCH   6   5
TORSDOF 6
