REMARK  Name = ZINC06394172
REMARK  7 active torsions:
REMARK  status: ('A' for Active; 'I' for Inactive)
REMARK    1  A    between atoms: C1_1  and  C2_2
REMARK    2  A    between atoms: C2_2  and  C23_31
REMARK    3  A    between atoms: C15_18  and  O6_28
REMARK    4  A    between atoms: C16_19  and  O5_26
REMARK    5  A    between atoms: C19_22  and  O4_25
REMARK    6  A    between atoms: O5_26  and  C21_27
REMARK    7  A    between atoms: O6_28  and  C22_29
REMARK                            x       y       z     vdW  Elec       q    Type
REMARK                         _______ _______ _______ _____ _____    ______ ____
ROOT
ATOM      1  C   UNL     1       1.028   3.509  -0.271  0.00  0.00    +0.086 C 
ATOM      2  C   UNL     1       1.246   2.019   0.001  0.00  0.00    +0.145 C 
ATOM      3  C   UNL     1       1.916   1.849   1.366  0.00  0.00    +0.038 C 
ATOM      4  C   UNL     1       2.140   1.445  -1.067  0.00  0.00    -0.053 C 
ATOM      5  C   UNL     1       2.038   0.159  -1.398  0.00  0.00    +0.060 C 
ATOM      6  C   UNL     1       1.025  -0.660  -0.699  0.00  0.00    -0.175 A 
ATOM      7  C   UNL     1       0.002  -0.004   0.002  0.00  0.00    +0.207 A 
ATOM      8  C   UNL     1      -0.969  -0.737   0.671  0.00  0.00    -0.038 A 
ATOM      9  C   UNL     1      -0.929  -2.114   0.655  0.00  0.00    +0.161 A 
ATOM     10  C   UNL     1       0.089  -2.779  -0.035  0.00  0.00    -0.275 A 
ATOM     11  C   UNL     1       0.144  -4.254  -0.042  0.00  0.00    +0.393 C 
ATOM     12  O   UNL     1      -0.779  -4.942   0.343  0.00  0.00    -0.422 OA
ATOM     13  C   UNL     1       1.437  -4.846  -0.563  0.00  0.00    +0.115 C 
ATOM     16  C   UNL     1       1.266  -6.283  -0.963  0.00  0.00    -0.204 A 
ATOM     17  C   UNL     1       0.494  -7.122  -0.178  0.00  0.00    +0.046 A 
ATOM     18  C   UNL     1       0.340  -8.454  -0.521  0.00  0.00    +0.069 A 
ATOM     21  C   UNL     1       0.965  -8.950  -1.661  0.00  0.00    +0.155 A 
ATOM     24  C   UNL     1       1.734  -8.111  -2.446  0.00  0.00    -0.060 A 
ATOM     25  C   UNL     1       1.886  -6.771  -2.104  0.00  0.00    +0.159 A 
ATOM     26  O   UNL     1       2.642  -5.982  -2.913  0.00  0.00    -0.298 OA
ATOM     27  C   UNL     1       3.033  -4.686  -2.450  0.00  0.00    +0.305 C 
ATOM     28  C   UNL     1       1.813  -4.028  -1.810  0.00  0.00    +0.173 C 
ATOM     29  O   UNL     1       2.061  -2.683  -1.415  0.00  0.00    -0.275 OA
ATOM     30  C   UNL     1       1.075  -2.052  -0.726  0.00  0.00    +0.229 A 
ATOM     31  O   UNL     1      -0.016   1.352   0.009  0.00  0.00    -0.296 OA
ENDROOT
BRANCH  13  14
ATOM     14  O   UNL     1       2.467  -4.734   0.422  0.00  0.00    -0.515 OA
ATOM     15  H   UNL     1       2.289  -5.229   1.234  0.00  0.00    +0.388 HD
ENDBRANCH  13  14
BRANCH  18  19
ATOM     19  O   UNL     1      -0.420  -9.275   0.254  0.00  0.00    -0.303 OA
ATOM     20  C   UNL     1      -1.030  -8.695   1.409  0.00  0.00    +0.239 C 
ENDBRANCH  18  19
BRANCH  21  22
ATOM     22  O   UNL     1       0.821 -10.259  -2.001  0.00  0.00    -0.297 OA
ATOM     23  C   UNL     1       1.491 -10.699  -3.184  0.00  0.00    +0.245 C 
ENDBRANCH  21  22
TORSDOF 3
