REMARK  Name = ZINC15120680
REMARK  12 active torsions:
REMARK  status: ('A' for Active; 'I' for Inactive)
REMARK    1  A    between atoms: C1_1  and  C2_2
REMARK    2  A    between atoms: C2_2  and  C23_29
REMARK    3  A    between atoms: C3_3  and  C4_4
REMARK    4  A    between atoms: C4_4  and  C5_5
REMARK    5  A    between atoms: C5_5  and  C6_6
REMARK    6  A    between atoms: C6_6  and  C22_28
REMARK    7  A    between atoms: C7_7  and  C8_8
REMARK    8  A    between atoms: C8_8  and  C9_9
REMARK    9  A    between atoms: C10_10  and  O6_27
REMARK   10  A    between atoms: C14_14  and  O1_15
REMARK   11  A    between atoms: C17_19  and  O5_26
REMARK   12  A    between atoms: C20_22  and  O4_25
REMARK                            x       y       z     vdW  Elec       q    Type
REMARK                         _______ _______ _______ _____ _____    ______ ____
ROOT
ATOM     11  C   UNL     1       5.375  -0.251   0.502  0.00  0.00    -0.162 A 
ATOM     12  C   UNL     1       4.923   1.031   0.793  0.00  0.00    +0.198 A 
ATOM     15  C   UNL     1       3.597   1.255   1.130  0.00  0.00    -0.031 A 
ATOM     16  C   UNL     1       2.701   0.197   1.181  0.00  0.00    +0.191 A 
ATOM     17  C   UNL     1       3.156  -1.100   0.886  0.00  0.00    -0.268 A 
ATOM     18  C   UNL     1       2.201  -2.219   0.942  0.00  0.00    +0.439 A 
ATOM     19  C   UNL     1       0.811  -1.889   1.309  0.00  0.00    -0.247 A 
ATOM     20  C   UNL     1      -0.167  -2.888   1.388  0.00  0.00    +0.196 A 
ATOM     23  C   UNL     1      -1.464  -2.550   1.736  0.00  0.00    -0.015 A 
ATOM     24  C   UNL     1      -1.790  -1.231   2.004  0.00  0.00    +0.092 A 
ATOM     25  C   UNL     1      -0.830  -0.237   1.934  0.00  0.00    +0.072 A 
ATOM     28  C   UNL     1       0.481  -0.552   1.581  0.00  0.00    +0.153 A 
ATOM     29  O   UNL     1       2.541  -3.362   0.697  0.00  0.00    -0.418 OA
ATOM     30  O   UNL     1       1.412   0.422   1.509  0.00  0.00    -0.217 OA
ATOM     31  C   UNL     1       4.499  -1.320   0.546  0.00  0.00    +0.222 A 
ENDROOT
BRANCH  12  13
ATOM     13  O   UNL     1       5.790   2.075   0.747  0.00  0.00    -0.482 OA
ATOM     14  H   UNL     1       5.845   2.502  -0.119  0.00  0.00    +0.400 HD
ENDBRANCH  12  13
BRANCH  20  21
ATOM     21  O   UNL     1       0.155  -4.180   1.125  0.00  0.00    -0.476 OA
ATOM     22  H   UNL     1       0.444  -4.680   1.901  0.00  0.00    +0.403 HD
ENDBRANCH  20  21
BRANCH  25  26
ATOM     26  O   UNL     1      -1.170   1.053   2.201  0.00  0.00    -0.479 OA
ATOM     27  H   UNL     1      -1.467   1.550   1.427  0.00  0.00    +0.393 HD
ENDBRANCH  25  26
BRANCH  31  32
ATOM     32  O   UNL     1       4.935  -2.573   0.263  0.00  0.00    -0.469 OA
ATOM     33  H   UNL     1       4.866  -2.812  -0.671  0.00  0.00    +0.401 HD
ENDBRANCH  31  32
BRANCH  11  10
ATOM     10  C   UNL     1       6.820  -0.477   0.138  0.00  0.00    +0.137 C 
BRANCH  10   9
ATOM      7  C   UNL     1       7.888   0.464  -1.845  0.00  0.00    -0.117 C 
ATOM      8  C   UNL     1       8.672   1.364  -0.926  0.00  0.00    +0.077 C 
ATOM      9  C   UNL     1       6.988  -0.351  -1.354  0.00  0.00    -0.058 C 
BRANCH   7   6
ATOM      6  C   UNL     1       8.139   0.502  -3.331  0.00  0.00    +0.060 C 
BRANCH   6   5
ATOM      5  C   UNL     1       7.309   1.624  -3.960  0.00  0.00    +0.053 C 
BRANCH   5   4
ATOM      1  C   UNL     1       5.144   1.506  -5.762  0.00  0.00    +0.071 C 
ATOM      2  C   UNL     1       6.558   1.553  -6.282  0.00  0.00    -0.132 C 
ATOM      3  C   UNL     1       6.819   1.474  -7.764  0.00  0.00    +0.072 C 
ATOM      4  C   UNL     1       7.560   1.662  -5.445  0.00  0.00    -0.061 C 
ENDBRANCH   5   4
ENDBRANCH   6   5
ENDBRANCH   7   6
ENDBRANCH  10   9
ENDBRANCH  11  10
TORSDOF 9
