REMARK  Name = ZINC95486045
REMARK  19 active torsions:
REMARK  status: ('A' for Active; 'I' for Inactive)
REMARK    1  A    between atoms: C1_1  and  C2_2
REMARK    2  A    between atoms: C2_2  and  C3_4
REMARK    3  A    between atoms: C2_2  and  O11_60
REMARK    4  A    between atoms: C3_4  and  C4_5
REMARK    5  A    between atoms: C3_4  and  C33_56
REMARK    6  A    between atoms: C3_4  and  O10_59
REMARK    7  A    between atoms: C6_8  and  C8_13
REMARK    8  A    between atoms: C9_15  and  O9_55
REMARK    9  A    between atoms: C12_20  and  C32_54
REMARK   10  A    between atoms: C20_30  and  C31_53
REMARK   11  A    between atoms: C23_33  and  O3_36
REMARK   12  A    between atoms: O3_36  and  C25_37
REMARK   13  A    between atoms: C26_39  and  O8_52
REMARK   14  A    between atoms: C27_41  and  O7_51
REMARK   15  A    between atoms: C28_43  and  O6_50
REMARK   16  A    between atoms: C29_45  and  C30_48
REMARK   17  A    between atoms: C30_48  and  O5_49
REMARK   18  A    between atoms: C33_56  and  C34_57
REMARK   19  A    between atoms: C33_56  and  C35_58
REMARK                            x       y       z     vdW  Elec       q    Type
REMARK                         _______ _______ _______ _____ _____    ______ ____
ROOT
ATOM     14  C   UNL     1       4.025   1.314   3.393  0.00  0.00    +0.026 C 
ATOM     15  C   UNL     1       5.354   2.067   3.120  0.00  0.00    +0.164 C 
ATOM     18  C   UNL     1       5.512   3.103   4.269  0.00  0.00    +0.002 C 
ATOM     19  C   UNL     1       4.676   2.490   5.395  0.00  0.00    +0.028 C 
ATOM     20  C   UNL     1       4.157   3.444   6.436  0.00  0.00    -0.091 C 
ATOM     21  C   UNL     1       4.597   4.662   6.487  0.00  0.00    -0.055 C 
ATOM     22  C   UNL     1       4.110   5.666   7.492  0.00  0.00    +0.060 C 
ATOM     23  C   UNL     1       3.607   4.931   8.740  0.00  0.00    +0.006 C 
ATOM     24  C   UNL     1       2.512   3.912   8.299  0.00  0.00    -0.043 C 
ATOM     25  C   UNL     1       1.370   4.630   7.578  0.00  0.00    +0.026 C 
ATOM     26  C   UNL     1       1.939   3.215   9.536  0.00  0.00    +0.020 C 
ATOM     27  C   UNL     1       1.305   4.250  10.465  0.00  0.00    +0.020 C 
ATOM     28  C   UNL     1       2.373   5.255  10.903  0.00  0.00    +0.144 C 
ATOM     45  C   UNL     1       2.993   5.959   9.695  0.00  0.00    +0.025 C 
ATOM     46  C   UNL     1       3.112   2.869   7.370  0.00  0.00    +0.030 C 
ATOM     47  C   UNL     1       2.008   2.132   6.615  0.00  0.00    +0.027 C 
ATOM     48  C   UNL     1       2.582   1.176   5.557  0.00  0.00    +0.027 C 
ATOM     49  C   UNL     1       3.424   1.998   4.610  0.00  0.00    -0.052 C 
ATOM     50  C   UNL     1       2.610   3.211   4.156  0.00  0.00    +0.032 C 
ENDROOT
BRANCH  14  13
ATOM     11  C   UNL     1       2.022  -0.636   1.684  0.00  0.00    +0.168 C 
ATOM     12  C   UNL     1       1.759   0.685   2.457  0.00  0.00    +0.025 C 
ATOM     13  C   UNL     1       3.085   1.443   2.193  0.00  0.00    +0.001 C 
ATOM     51  C   UNL     1       3.669   0.746   0.979  0.00  0.00    +0.476 C 
ATOM     52  O   UNL     1       4.740   0.991   0.476  0.00  0.00    -0.421 OA
ATOM     53  O   UNL     1       2.802  -0.195   0.552  0.00  0.00    -0.332 OA
BRANCH  11   5
ATOM      5  C   UNL     1       0.706  -1.266   1.223  0.00  0.00    +0.157 C 
BRANCH   5   8
ATOM      8  C   UNL     1      -0.163  -1.581   2.443  0.00  0.00    -0.040 C 
ATOM      9  C   UNL     1       0.614  -2.486   3.402  0.00  0.00    +0.037 C 
ATOM     10  C   UNL     1      -1.439  -2.293   1.990  0.00  0.00    +0.031 C 
ENDBRANCH   5   8
BRANCH   5   2
ATOM      1  C   UNL     1       1.751  -2.228  -0.832  0.00  0.00    +0.020 C 
ATOM      2  C   UNL     1       1.000  -2.558   0.459  0.00  0.00    +0.184 C 
BRANCH   2   3
ATOM      3  O   UNL     1       1.801  -3.420   1.270  0.00  0.00    -0.558 OA
ATOM      4  H   UNL     1       2.026  -4.260   0.847  0.00  0.00    +0.382 HD
ENDBRANCH   2   3
ENDBRANCH   5   2
BRANCH   5   6
ATOM      6  O   UNL     1       0.014  -0.353   0.368  0.00  0.00    -0.540 OA
ATOM      7  H   UNL     1      -0.204   0.490   0.788  0.00  0.00    +0.379 HD
ENDBRANCH   5   6
ENDBRANCH  11   5
ENDBRANCH  14  13
BRANCH  15  16
ATOM     16  O   UNL     1       5.288   2.737   1.859  0.00  0.00    -0.541 OA
ATOM     17  H   UNL     1       6.090   3.227   1.632  0.00  0.00    +0.374 HD
ENDBRANCH  15  16
BRANCH  28  29
ATOM     29  O   UNL     1       1.791   6.218  11.783  0.00  0.00    -0.360 OA
BRANCH  29  30
ATOM     30  C   UNL     1       1.847   5.853  13.164  0.00  0.00    +0.316 C 
ATOM     31  C   UNL     1       1.312   7.004  14.019  0.00  0.00    +0.140 C 
ATOM     34  C   UNL     1      -0.158   7.253  13.664  0.00  0.00    +0.153 C 
ATOM     37  C   UNL     1      -0.948   5.957  13.872  0.00  0.00    +0.166 C 
ATOM     40  C   UNL     1      -0.325   4.846  13.022  0.00  0.00    +0.200 C 
ATOM     44  O   UNL     1       1.050   4.688  13.381  0.00  0.00    -0.372 OA
BRANCH  31  32
ATOM     32  O   UNL     1       2.073   8.185  13.761  0.00  0.00    -0.548 OA
ATOM     33  H   UNL     1       3.015   8.098  13.960  0.00  0.00    +0.386 HD
ENDBRANCH  31  32
BRANCH  34  35
ATOM     35  O   UNL     1      -0.257   7.661  12.298  0.00  0.00    -0.529 OA
ATOM     36  H   UNL     1       0.226   8.473  12.094  0.00  0.00    +0.384 HD
ENDBRANCH  34  35
BRANCH  37  38
ATOM     38  O   UNL     1      -2.306   6.157  13.476  0.00  0.00    -0.544 OA
ATOM     39  H   UNL     1      -2.762   6.851  13.972  0.00  0.00    +0.384 HD
ENDBRANCH  37  38
BRANCH  40  41
ATOM     41  C   UNL     1      -1.072   3.534  13.270  0.00  0.00    +0.207 C 
BRANCH  41  42
ATOM     42  O   UNL     1      -0.567   2.526  12.393  0.00  0.00    -0.563 OA
ATOM     43  H   UNL     1      -0.996   1.665  12.495  0.00  0.00    +0.380 HD
ENDBRANCH  41  42
ENDBRANCH  40  41
ENDBRANCH  29  30
ENDBRANCH  28  29
TORSDOF 14
