REMARK  Name = ZINC95486253
REMARK  7 active torsions:
REMARK  status: ('A' for Active; 'I' for Inactive)
REMARK    1  A    between atoms: C1_1  and  C2_2
REMARK    2  A    between atoms: C2_2  and  O2_4
REMARK    3  A    between atoms: O2_4  and  C3_5
REMARK    4  A    between atoms: C7_11  and  C21_27
REMARK    5  A    between atoms: C11_15  and  C19_25
REMARK    6  A    between atoms: C11_15  and  C20_26
REMARK    7  A    between atoms: C15_20  and  C18_24
REMARK                            x       y       z     vdW  Elec       q    Type
REMARK                         _______ _______ _______ _____ _____    ______ ____
ROOT
ATOM      4  C   UNL     1       1.404  -3.505   0.779  0.00  0.00    +0.175 C 
ATOM      5  C   UNL     1       2.001  -3.939  -0.588  0.00  0.00    +0.035 C 
ATOM      6  C   UNL     1       1.764  -5.424  -0.831  0.00  0.00    +0.039 C 
ATOM      7  C   UNL     1       0.545  -5.915  -1.579  0.00  0.00    -0.043 C 
ATOM      8  C   UNL     1       0.344  -7.416  -1.302  0.00  0.00    -0.030 C 
ATOM      9  C   UNL     1       1.738  -8.059  -1.473  0.00  0.00    +0.016 C 
ATOM     10  C   UNL     1      -0.107  -7.630   0.140  0.00  0.00    +0.015 C 
ATOM     11  C   UNL     1      -0.298  -9.116   0.439  0.00  0.00    +0.001 C 
ATOM     12  C   UNL     1      -1.366  -9.694  -0.485  0.00  0.00    +0.014 C 
ATOM     13  C   UNL     1      -0.964  -9.522  -1.949  0.00  0.00    -0.051 C 
ATOM     14  C   UNL     1       0.182 -10.477  -2.293  0.00  0.00    +0.021 C 
ATOM     15  C   UNL     1      -2.158  -9.993  -2.810  0.00  0.00    +0.014 C 
ATOM     16  C   UNL     1      -0.642  -8.069  -2.265  0.00  0.00    +0.012 C 
ATOM     17  C   UNL     1      -1.938  -7.245  -2.247  0.00  0.00    +0.022 C 
ATOM     18  C   UNL     1      -1.618  -5.872  -2.836  0.00  0.00    +0.024 C 
ATOM     19  C   UNL     1      -0.672  -5.121  -1.869  0.00  0.00    +0.133 C 
ATOM     20  C   UNL     1      -0.323  -3.807  -2.614  0.00  0.00    +0.019 C 
ATOM     21  O   UNL     1      -1.477  -4.837  -0.697  0.00  0.00    -0.351 OA
ATOM     22  C   UNL     1      -0.700  -4.848   0.478  0.00  0.00    +0.215 C 
ATOM     23  C   UNL     1      -0.076  -3.489   0.658  0.00  0.00    -0.034 C 
ENDROOT
BRANCH   4   3
ATOM      3  O   UNL     1       1.875  -2.200   1.124  0.00  0.00    -0.348 OA
BRANCH   3   2
ATOM      1  C   UNL     1       2.472  -0.561   2.872  0.00  0.00    +0.155 C 
ATOM      2  C   UNL     1       1.982  -1.917   2.432  0.00  0.00    +0.458 C 
ATOM     24  O   UNL     1       1.687  -2.749   3.257  0.00  0.00    -0.511 OA
ENDBRANCH   3   2
ENDBRANCH   4   3
TORSDOF 2
