REMARK  Name = ZINC13359122
REMARK  12 active torsions:
REMARK  status: ('A' for Active; 'I' for Inactive)
REMARK    1  A    between atoms: C1_1  and  C2_2
REMARK    2  A    between atoms: C5_5  and  C14_16
REMARK    3  A    between atoms: C8_8  and  O2_14
REMARK    4  A    between atoms: C10_10  and  O1_12
REMARK    5  A    between atoms: O1_12  and  C12_13
REMARK    6  A    between atoms: O2_14  and  C13_15
REMARK    7  A    between atoms: C15_17  and  O4_31
REMARK    8  A    between atoms: C17_19  and  O3_29
REMARK    9  A    between atoms: C21_23  and  C24_28
REMARK   10  A    between atoms: C22_25  and  C23_27
REMARK   11  A    between atoms: O3_29  and  C25_30
REMARK   12  A    between atoms: O4_31  and  C26_32
REMARK                            x       y       z     vdW  Elec       q    Type
REMARK                         _______ _______ _______ _____ _____    ______ ____
ROOT
ATOM      6  C   UNL     1       1.227  -0.678  -0.012  0.00  0.00    -0.086 A 
ATOM      7  C   UNL     1       0.002  -0.004   0.002  0.00  0.00    +0.211 A 
ATOM     10  C   UNL     1      -0.017   1.380   0.010  0.00  0.00    -0.148 A 
ATOM     11  C   UNL     1       1.175   2.087   0.002  0.00  0.00    +0.202 A 
ATOM     14  C   UNL     1       2.397   1.417  -0.015  0.00  0.00    -0.204 A 
ATOM     15  C   UNL     1       3.661   2.238  -0.029  0.00  0.00    +0.247 C 
ATOM     16  N   UNL     1       4.814   1.419   0.370  0.00  0.00    -0.511 N 
ATOM     17  H   UNL     1       4.722   1.161   1.360  0.00  0.00    +0.433 HD
ATOM     18  H   UNL     1       5.677   1.959   0.236  0.00  0.00    +0.434 HD
ATOM     19  C   UNL     1       4.869   0.196  -0.451  0.00  0.00    +0.172 C 
ATOM     20  C   UNL     1       6.207  -0.511  -0.223  0.00  0.00    +0.093 C 
ATOM     21  C   UNL     1       3.723  -0.724  -0.031  0.00  0.00    +0.138 C 
ATOM     22  C   UNL     1       3.891   2.784  -1.440  0.00  0.00    +0.091 C 
ATOM     23  C   UNL     1       2.425   0.042  -0.020  0.00  0.00    +0.002 A 
ENDROOT
BRANCH   6   5
ATOM      1  C   UNL     1       1.300  -2.194   4.915  0.00  0.00    +0.093 C 
ATOM      2  C   UNL     1       1.302  -2.923   3.595  0.00  0.00    -0.014 A 
ATOM      3  C   UNL     1       1.279  -2.209   2.435  0.00  0.00    -0.052 A 
ATOM      4  C   UNL     1       1.279  -2.877   1.202  0.00  0.00    +0.049 A 
ATOM      5  C   UNL     1       1.255  -2.159  -0.019  0.00  0.00    -0.102 A 
ATOM     24  C   UNL     1       1.252  -2.850  -1.218  0.00  0.00    +0.094 A 
ATOM     25  C   UNL     1       1.284  -4.239  -1.237  0.00  0.00    -0.114 A 
ATOM     26  C   UNL     1       1.307  -4.962  -0.065  0.00  0.00    +0.187 A 
ATOM     29  C   UNL     1       1.306  -4.291   1.174  0.00  0.00    -0.105 A 
ATOM     30  C   UNL     1       1.330  -5.005   2.389  0.00  0.00    +0.180 A 
ATOM     33  C   UNL     1       1.328  -4.314   3.580  0.00  0.00    -0.110 A 
BRANCH  26  27
ATOM     27  O   UNL     1       1.333  -6.320  -0.103  0.00  0.00    -0.288 OA
ATOM     28  C   UNL     1       1.333  -6.932  -1.394  0.00  0.00    +0.245 C 
ENDBRANCH  26  27
BRANCH  30  31
ATOM     31  O   UNL     1       1.356  -6.362   2.385  0.00  0.00    -0.289 OA
ATOM     32  C   UNL     1       1.379  -7.015   3.656  0.00  0.00    +0.245 C 
ENDBRANCH  30  31
ENDBRANCH   6   5
BRANCH   7   8
ATOM      8  O   UNL     1      -1.163  -0.703   0.008  0.00  0.00    -0.291 OA
ATOM      9  C   UNL     1      -2.374   0.055   0.021  0.00  0.00    +0.253 C 
ENDBRANCH   7   8
BRANCH  11  12
ATOM     12  O   UNL     1       1.151   3.445   0.010  0.00  0.00    -0.313 OA
ATOM     13  C   UNL     1      -0.133   4.072   0.027  0.00  0.00    +0.261 C 
ENDBRANCH  11  12
TORSDOF 5
