REMARK  Name = ZINC95486367
REMARK  19 active torsions:
REMARK  status: ('A' for Active; 'I' for Inactive)
REMARK    1  A    between atoms: C1_1  and  C2_2
REMARK    2  A    between atoms: C2_2  and  C3_3
REMARK    3  A    between atoms: C3_3  and  C4_5
REMARK    4  A    between atoms: C3_3  and  C34_52
REMARK    5  A    between atoms: C4_5  and  C5_6
REMARK    6  A    between atoms: C5_6  and  C6_7
REMARK    7  A    between atoms: C6_7  and  C7_9
REMARK    8  A    between atoms: C6_7  and  C8_10
REMARK    9  A    between atoms: C12_16  and  C33_51
REMARK   10  A    between atoms: C21_27  and  C32_50
REMARK   11  A    between atoms: C24_30  and  O1_33
REMARK   12  A    between atoms: O1_33  and  C26_34
REMARK   13  A    between atoms: C27_36  and  O6_49
REMARK   14  A    between atoms: C28_38  and  O5_48
REMARK   15  A    between atoms: C29_40  and  O4_47
REMARK   16  A    between atoms: C30_42  and  C31_45
REMARK   17  A    between atoms: C31_45  and  O3_46
REMARK   18  A    between atoms: C34_52  and  C35_53
REMARK   19  A    between atoms: C34_52  and  C36_54
REMARK                            x       y       z     vdW  Elec       q    Type
REMARK                         _______ _______ _______ _____ _____    ______ ____
ROOT
ATOM     10  C   UNL     1       2.618   3.288  -1.591  0.00  0.00    -0.011 C 
ATOM     11  C   UNL     1       3.877   4.156  -1.386  0.00  0.00    +0.006 C 
ATOM     12  C   UNL     1       3.496   5.132  -0.236  0.00  0.00    +0.010 C 
ATOM     13  C   UNL     1       2.644   4.217   0.656  0.00  0.00    -0.018 C 
ATOM     14  C   UNL     1       2.017   4.863   1.835  0.00  0.00    +0.061 C 
ATOM     15  C   UNL     1       0.633   5.424   1.616  0.00  0.00    -0.094 C 
ATOM     16  C   UNL     1      -0.169   5.652   2.915  0.00  0.00    +0.091 C 
ATOM     17  C   UNL     1      -1.599   5.941   2.537  0.00  0.00    -0.062 C 
ATOM     18  C   UNL     1      -1.878   6.801   1.571  0.00  0.00    -0.101 C 
ATOM     19  C   UNL     1      -0.726   7.484   0.827  0.00  0.00    +0.016 C 
ATOM     20  C   UNL     1      -0.121   8.533   1.763  0.00  0.00    +0.026 C 
ATOM     21  C   UNL     1      -1.082   8.175  -0.476  0.00  0.00    +0.032 C 
ATOM     22  C   UNL     1      -2.494   8.746  -0.465  0.00  0.00    +0.022 C 
ATOM     23  C   UNL     1      -3.478   7.590  -0.243  0.00  0.00    +0.158 C 
ATOM     40  C   UNL     1      -3.335   7.054   1.294  0.00  0.00    +0.082 C 
ATOM     41  C   UNL     1       0.347   6.418   0.525  0.00  0.00    -0.026 C 
ATOM     42  C   UNL     1      -0.150   4.967   0.397  0.00  0.00    -0.031 C 
ATOM     43  C   UNL     1       0.492   4.147  -0.701  0.00  0.00    +0.047 C 
ATOM     44  C   UNL     1       1.765   3.424  -0.296  0.00  0.00    -0.039 C 
ATOM     45  C   UNL     1       1.453   2.045   0.287  0.00  0.00    +0.028 C 
ENDROOT
BRANCH  10   9
ATOM      9  C   UNL     1       3.018   1.827  -1.804  0.00  0.00    -0.013 C 
ATOM     46  C   UNL     1       4.151   1.463  -0.842  0.00  0.00    +0.015 C 
BRANCH   9   8
ATOM      8  C   UNL     1       3.490   1.632  -3.246  0.00  0.00    +0.008 C 
BRANCH   8   7
ATOM      7  C   UNL     1       3.821   0.156  -3.479  0.00  0.00    +0.008 C 
BRANCH   7   3
ATOM      3  C   UNL     1       4.204  -0.055  -4.946  0.00  0.00    -0.016 C 
BRANCH   3   4
ATOM      4  C   UNL     1       3.057   0.412  -5.844  0.00  0.00    -0.021 C 
ATOM      5  C   UNL     1       1.797  -0.396  -5.524  0.00  0.00    +0.011 C 
ATOM      6  C   UNL     1       3.439   0.201  -7.310  0.00  0.00    +0.009 C 
ENDBRANCH   3   4
BRANCH   3   2
ATOM      1  C   UNL     1       6.625   0.245  -4.409  0.00  0.00    +0.004 C 
ATOM      2  C   UNL     1       5.463   0.753  -5.265  0.00  0.00    +0.002 C 
ENDBRANCH   3   2
ENDBRANCH   7   3
ENDBRANCH   8   7
ENDBRANCH   9   8
ENDBRANCH  10   9
BRANCH  23  24
ATOM     24  O   UNL     1      -4.815   8.044  -0.461  0.00  0.00    -0.376 OA
BRANCH  24  25
ATOM     25  C   UNL     1      -5.263   7.905  -1.811  0.00  0.00    +0.315 C 
ATOM     26  C   UNL     1      -6.739   8.303  -1.902  0.00  0.00    +0.132 C 
ATOM     29  C   UNL     1      -6.887   9.777  -1.513  0.00  0.00    +0.154 C 
ATOM     32  C   UNL     1      -5.997  10.627  -2.426  0.00  0.00    +0.161 C 
ATOM     35  C   UNL     1      -4.551  10.139  -2.314  0.00  0.00    +0.204 C 
ATOM     39  O   UNL     1      -4.488   8.754  -2.660  0.00  0.00    -0.361 OA
BRANCH  26  27
ATOM     27  O   UNL     1      -7.202   8.113  -3.240  0.00  0.00    -0.529 OA
ATOM     28  H   UNL     1      -7.133   7.201  -3.554  0.00  0.00    +0.380 HD
ENDBRANCH  26  27
BRANCH  29  30
ATOM     30  O   UNL     1      -6.486   9.955  -0.152  0.00  0.00    -0.534 OA
ATOM     31  H   UNL     1      -7.005   9.440   0.481  0.00  0.00    +0.384 HD
ENDBRANCH  29  30
BRANCH  32  33
ATOM     33  O   UNL     1      -6.442  10.501  -3.778  0.00  0.00    -0.529 OA
ATOM     34  H   UNL     1      -7.354  10.788  -3.920  0.00  0.00    +0.377 HD
ENDBRANCH  32  33
BRANCH  35  36
ATOM     36  C   UNL     1      -3.666  10.944  -3.268  0.00  0.00    +0.206 C 
BRANCH  36  37
ATOM     37  O   UNL     1      -2.299  10.570  -3.080  0.00  0.00    -0.565 OA
ATOM     38  H   UNL     1      -1.680  11.041  -3.654  0.00  0.00    +0.380 HD
ENDBRANCH  36  37
ENDBRANCH  35  36
ENDBRANCH  24  25
ENDBRANCH  23  24
TORSDOF 13
