REMARK  Name = ZINC95486093
REMARK  7 active torsions:
REMARK  status: ('A' for Active; 'I' for Inactive)
REMARK    1  A    between atoms: C1_1  and  C2_2
REMARK    2  A    between atoms: C2_2  and  C19_26
REMARK    3  A    between atoms: C11_14  and  C18_25
REMARK    4  A    between atoms: C14_18  and  O3_24
REMARK    5  A    between atoms: C15_20  and  C16_21
REMARK    6  A    between atoms: C15_20  and  C17_22
REMARK    7  A    between atoms: C17_22  and  O2_23
REMARK                            x       y       z     vdW  Elec       q    Type
REMARK                         _______ _______ _______ _____ _____    ______ ____
ROOT
ATOM      1  C   UNL     1      -0.019   1.534   0.011  0.00  0.00    +0.022 C 
ATOM      2  C   UNL     1       0.002  -0.004   0.002  0.00  0.00    -0.029 C 
ATOM      5  C   UNL     1       0.705  -0.470  -1.270  0.00  0.00    +0.020 C 
ATOM      6  C   UNL     1       0.899  -1.988  -1.263  0.00  0.00    +0.014 C 
ATOM      7  C   UNL     1       1.732  -2.379  -0.038  0.00  0.00    -0.003 C 
ATOM      8  C   UNL     1       0.954  -2.003   1.221  0.00  0.00    +0.002 C 
ATOM      9  C   UNL     1       1.727  -2.404   2.474  0.00  0.00    +0.001 C 
ATOM     10  C   UNL     1       2.178  -3.853   2.453  0.00  0.00    +0.021 C 
ATOM     11  C   UNL     1       2.876  -4.274   1.163  0.00  0.00    +0.015 C 
ATOM     12  C   UNL     1       4.351  -3.945   1.155  0.00  0.00    -0.030 C 
ATOM     16  C   UNL     1       5.054  -4.797   2.238  0.00  0.00    +0.051 C 
ATOM     17  C   UNL     1       5.027  -4.300  -0.177  0.00  0.00    +0.163 C 
ATOM     20  C   UNL     1       4.180  -3.761  -1.305  0.00  0.00    +0.336 C 
ATOM     21  O   UNL     1       4.616  -2.984  -2.114  0.00  0.00    -0.438 OA
ATOM     22  C   UNL     1       2.751  -4.250  -1.359  0.00  0.00    +0.028 C 
ATOM     23  C   UNL     1       2.054  -3.866  -0.050  0.00  0.00    -0.028 C 
ATOM     24  C   UNL     1       0.734  -4.667  -0.014  0.00  0.00    +0.033 C 
ATOM     25  C   UNL     1       0.743  -0.485   1.244  0.00  0.00    +0.024 C 
ENDROOT
BRANCH   2   3
ATOM      3  C   UNL     1      -1.422  -0.497   0.020  0.00  0.00    -0.033 C 
ATOM      4  C   UNL     1      -2.412   0.362   0.039  0.00  0.00    -0.004 C 
ENDBRANCH   2   3
BRANCH  17  18
ATOM     18  O   UNL     1       5.146  -5.718  -0.292  0.00  0.00    -0.541 OA
ATOM     19  H   UNL     1       5.556  -6.013  -1.117  0.00  0.00    +0.381 HD
ENDBRANCH  17  18
BRANCH  12  13
ATOM     13  C   UNL     1       4.647  -2.478   1.464  0.00  0.00    +0.186 C 
BRANCH  13  14
ATOM     14  O   UNL     1       6.059  -2.261   1.434  0.00  0.00    -0.570 OA
ATOM     15  H   UNL     1       6.321  -1.349   1.622  0.00  0.00    +0.382 HD
ENDBRANCH  13  14
ENDBRANCH  12  13
TORSDOF 4
