REMARK  Name = ZINC95485899
REMARK  15 active torsions:
REMARK  status: ('A' for Active; 'I' for Inactive)
REMARK    1  A    between atoms: C2_2  and  C3_3
REMARK    2  A    between atoms: C4_4  and  C5_5
REMARK    3  A    between atoms: C4_4  and  C7_7
REMARK    4  A    between atoms: C8_8  and  C9_9
REMARK    5  A    between atoms: C9_9  and  O2_11
REMARK    6  A    between atoms: O2_11  and  C10_12
REMARK    7  A    between atoms: C14_19  and  O6_29
REMARK    8  A    between atoms: C16_23  and  C18_27
REMARK    9  A    between atoms: C18_27  and  O5_28
REMARK   10  A    between atoms: O6_29  and  C19_30
REMARK   11  A    between atoms: C20_32  and  O11_45
REMARK   12  A    between atoms: C21_34  and  O10_44
REMARK   13  A    between atoms: C22_36  and  O9_43
REMARK   14  A    between atoms: C23_38  and  C24_41
REMARK   15  A    between atoms: C24_41  and  O8_42
REMARK                            x       y       z     vdW  Elec       q    Type
REMARK                         _______ _______ _______ _____ _____    ______ ____
ROOT
ATOM      9  C   UNL     1      -5.214  -6.656   0.411  0.00  0.00    +0.218 C 
ATOM     10  C   UNL     1      -5.755  -7.050  -0.962  0.00  0.00    +0.042 C 
ATOM     11  C   UNL     1      -6.377  -5.997  -1.811  0.00  0.00    -0.141 C 
ATOM     12  C   UNL     1      -7.385  -6.359  -2.589  0.00  0.00    +0.252 C 
ATOM     13  O   UNL     1      -7.912  -7.599  -2.657  0.00  0.00    -0.316 OA
ATOM     14  C   UNL     1      -7.370  -8.667  -1.856  0.00  0.00    +0.372 C 
ATOM     31  C   UNL     1      -6.893  -8.036  -0.568  0.00  0.00    +0.002 C 
ATOM     32  C   UNL     1      -6.234  -8.913   0.488  0.00  0.00    +0.015 C 
ATOM     36  O   UNL     1      -6.306  -8.479   1.854  0.00  0.00    -0.291 OA
ATOM     37  C   UNL     1      -5.156  -8.015   1.159  0.00  0.00    +0.155 C 
ENDROOT
BRANCH   9   8
ATOM      8  O   UNL     1      -3.909  -6.084   0.296  0.00  0.00    -0.333 OA
BRANCH   8   7
ATOM      7  C   UNL     1      -3.835  -4.739   0.210  0.00  0.00    +0.506 C 
ATOM     38  O   UNL     1      -4.851  -4.071   0.233  0.00  0.00    -0.507 OA
BRANCH   7   6
ATOM      5  C   UNL     1      -2.499  -2.755   0.009  0.00  0.00    +0.156 C 
ATOM      6  C   UNL     1      -2.574  -4.106   0.095  0.00  0.00    -0.079 C 
BRANCH   5   4
ATOM      3  C   UNL     1      -0.039  -2.847  -0.031  0.00  0.00    +0.062 C 
ATOM      4  C   UNL     1      -1.194  -2.094   0.001  0.00  0.00    -0.096 C 
BRANCH   3   2
ATOM      1  C   UNL     1       2.343  -2.938  -0.069  0.00  0.00    +0.068 C 
ATOM      2  C   UNL     1       1.223  -2.208  -0.038  0.00  0.00    -0.031 C 
ENDBRANCH   3   2
BRANCH   4  39
ATOM     39  C   UNL     1      -1.113  -0.621   0.027  0.00  0.00    -0.001 C 
ATOM     40  C   UNL     1      -2.222   0.106  -0.049  0.00  0.00    +0.038 C 
ENDBRANCH   4  39
ENDBRANCH   5   4
ENDBRANCH   7   6
ENDBRANCH   8   7
ENDBRANCH   9   8
BRANCH  14  15
ATOM     15  O   UNL     1      -8.380  -9.641  -1.586  0.00  0.00    -0.343 OA
BRANCH  15  16
ATOM     16  C   UNL     1      -8.773 -10.403  -2.729  0.00  0.00    +0.301 C 
ATOM     17  C   UNL     1      -9.761 -11.491  -2.301  0.00  0.00    +0.141 C 
ATOM     20  C   UNL     1     -10.224 -12.265  -3.540  0.00  0.00    +0.165 C 
ATOM     23  C   UNL     1     -10.839 -11.282  -4.542  0.00  0.00    +0.172 C 
ATOM     26  C   UNL     1      -9.809 -10.202  -4.882  0.00  0.00    +0.197 C 
ATOM     30  O   UNL     1      -9.398  -9.542  -3.683  0.00  0.00    -0.360 OA
BRANCH  17  18
ATOM     18  O   UNL     1      -9.121 -12.387  -1.390  0.00  0.00    -0.554 OA
ATOM     19  H   UNL     1      -8.798 -11.962  -0.583  0.00  0.00    +0.392 HD
ENDBRANCH  17  18
BRANCH  20  21
ATOM     21  O   UNL     1      -9.106 -12.923  -4.139  0.00  0.00    -0.547 OA
ATOM     22  H   UNL     1      -8.664 -13.556  -3.556  0.00  0.00    +0.388 HD
ENDBRANCH  20  21
BRANCH  23  24
ATOM     24  O   UNL     1     -11.210 -11.982  -5.731  0.00  0.00    -0.542 OA
ATOM     25  H   UNL     1     -11.858 -12.685  -5.587  0.00  0.00    +0.386 HD
ENDBRANCH  23  24
BRANCH  26  27
ATOM     27  C   UNL     1     -10.436  -9.183  -5.836  0.00  0.00    +0.217 C 
BRANCH  27  28
ATOM     28  O   UNL     1      -9.442  -8.241  -6.246  0.00  0.00    -0.563 OA
ATOM     29  H   UNL     1      -9.770  -7.563  -6.854  0.00  0.00    +0.381 HD
ENDBRANCH  27  28
ENDBRANCH  26  27
ENDBRANCH  15  16
ENDBRANCH  14  15
BRANCH  32  33
ATOM     33  C   UNL     1      -6.028 -10.394   0.165  0.00  0.00    +0.252 C 
BRANCH  33  34
ATOM     34  O   UNL     1      -5.400 -11.041   1.274  0.00  0.00    -0.562 OA
ATOM     35  H   UNL     1      -5.238 -11.984   1.139  0.00  0.00    +0.387 HD
ENDBRANCH  33  34
ENDBRANCH  32  33
TORSDOF 15
