REMARK  Name = ZINC95485952
REMARK  7 active torsions:
REMARK  status: ('A' for Active; 'I' for Inactive)
REMARK    1  A    between atoms: C1_1  and  C2_2
REMARK    2  A    between atoms: C2_2  and  C3_4
REMARK    3  A    between atoms: C3_4  and  C4_5
REMARK    4  A    between atoms: C4_5  and  C5_6
REMARK    5  A    between atoms: C7_8  and  O5_20
REMARK    6  A    between atoms: C13_15  and  C14_18
REMARK    7  A    between atoms: C14_18  and  O4_19
REMARK                            x       y       z     vdW  Elec       q    Type
REMARK                         _______ _______ _______ _____ _____    ______ ____
ROOT
ATOM      5  C   UNL     1      -2.287  -3.047   0.007  0.00  0.00    +0.030 A 
ATOM      6  C   UNL     1      -2.763  -3.575   1.174  0.00  0.00    -0.051 A 
ATOM      7  C   UNL     1      -3.959  -4.288   1.186  0.00  0.00    +0.186 A 
ATOM     10  C   UNL     1      -4.684  -4.469   0.016  0.00  0.00    -0.050 A 
ATOM     11  C   UNL     1      -4.217  -3.938  -1.175  0.00  0.00    +0.204 A 
ATOM     12  O   UNL     1      -4.926  -4.107  -2.315  0.00  0.00    -0.295 OA
ATOM     13  C   UNL     1      -4.257  -3.984  -3.566  0.00  0.00    +0.188 C 
ATOM     17  C   UNL     1      -3.487  -2.655  -3.610  0.00  0.00    +0.035 C 
ATOM     18  C   UNL     1      -2.513  -2.662  -2.445  0.00  0.00    +0.401 C 
ATOM     19  O   UNL     1      -1.384  -2.231  -2.555  0.00  0.00    -0.434 OA
ATOM     20  C   UNL     1      -3.009  -3.219  -1.177  0.00  0.00    -0.265 A 
ENDROOT
BRANCH   7   8
ATOM      8  O   UNL     1      -4.419  -4.811   2.350  0.00  0.00    -0.493 OA
ATOM      9  H   UNL     1      -4.996  -4.216   2.847  0.00  0.00    +0.402 HD
ENDBRANCH   7   8
BRANCH   5   4
ATOM      4  C   UNL     1      -0.993  -2.276  -0.001  0.00  0.00    +0.097 C 
BRANCH   4   3
ATOM      3  C   UNL     1       0.156  -3.211  -0.384  0.00  0.00    +0.040 C 
BRANCH   3   2
ATOM      1  C   UNL     1       2.740  -3.137  -0.740  0.00  0.00    +0.060 C 
ATOM      2  C   UNL     1       1.450  -2.440  -0.392  0.00  0.00    +0.358 C 
ATOM     21  O   UNL     1       1.454  -1.263  -0.120  0.00  0.00    -0.457 OA
ENDBRANCH   3   2
ENDBRANCH   4   3
ENDBRANCH   5   4
BRANCH  13  14
ATOM     14  C   UNL     1      -5.279  -4.019  -4.703  0.00  0.00    +0.223 C 
BRANCH  14  15
ATOM     15  O   UNL     1      -5.914  -5.299  -4.733  0.00  0.00    -0.565 OA
ATOM     16  H   UNL     1      -6.576  -5.394  -5.431  0.00  0.00    +0.387 HD
ENDBRANCH  14  15
ENDBRANCH  13  14
TORSDOF 6
