REMARK  Name = ZINC33831890
REMARK  12 active torsions:
REMARK  status: ('A' for Active; 'I' for Inactive)
REMARK    1  A    between atoms: C3_3  and  O12_38
REMARK    2  A    between atoms: C4_4  and  O11_37
REMARK    3  A    between atoms: C6_6  and  C7_7
REMARK    4  A    between atoms: C8_8  and  O5_20
REMARK    5  A    between atoms: C11_12  and  O4_19
REMARK    6  A    between atoms: C13_14  and  O3_18
REMARK    7  A    between atoms: O5_20  and  C16_21
REMARK    8  A    between atoms: C17_23  and  O10_36
REMARK    9  A    between atoms: C18_25  and  O9_35
REMARK   10  A    between atoms: C19_27  and  O8_34
REMARK   11  A    between atoms: C20_29  and  C21_32
REMARK   12  A    between atoms: C21_32  and  O7_33
REMARK                            x       y       z     vdW  Elec       q    Type
REMARK                         _______ _______ _______ _____ _____    ______ ____
ROOT
ATOM     11  C   UNL     1       1.131   3.437   0.275  0.00  0.00    +0.202 A 
ATOM     12  C   UNL     1       0.016   4.132  -0.085  0.00  0.00    -0.092 A 
ATOM     29  C   UNL     1       0.115   5.524  -0.342  0.00  0.00    +0.413 A 
ATOM     30  C   UNL     1       1.443   6.144  -0.214  0.00  0.00    -0.302 A 
ATOM     31  C   UNL     1       1.633   7.511  -0.455  0.00  0.00    +0.287 A 
ATOM     34  C   UNL     1       2.896   8.057  -0.323  0.00  0.00    -0.148 A 
ATOM     35  C   UNL     1       3.970   7.252   0.046  0.00  0.00    +0.263 A 
ATOM     38  C   UNL     1       3.789   5.899   0.286  0.00  0.00    -0.134 A 
ATOM     39  C   UNL     1       2.530   5.334   0.159  0.00  0.00    +0.224 A 
ATOM     40  O   UNL     1      -0.863   6.181  -0.663  0.00  0.00    -0.437 OA
ATOM     41  O   UNL     1       2.338   4.018   0.389  0.00  0.00    -0.206 OA
ENDROOT
BRANCH  11  10
ATOM      1  C   UNL     1       1.913   1.095  -0.033  0.00  0.00    +0.080 A 
ATOM      2  C   UNL     1       1.799  -0.256   0.220  0.00  0.00    -0.001 A 
ATOM      3  C   UNL     1       0.789  -0.728   1.046  0.00  0.00    +0.153 A 
ATOM      6  C   UNL     1      -0.115   0.162   1.626  0.00  0.00    +0.057 A 
ATOM      9  C   UNL     1      -0.006   1.517   1.378  0.00  0.00    +0.025 A 
ATOM     10  C   UNL     1       1.011   1.992   0.544  0.00  0.00    -0.063 A 
BRANCH   3   4
ATOM      4  O   UNL     1       0.681  -2.059   1.292  0.00  0.00    -0.505 OA
ATOM      5  H   UNL     1      -0.119  -2.435   1.947  0.00  0.00    +0.441 HD
ENDBRANCH   3   4
BRANCH   6   7
ATOM      7  O   UNL     1      -1.103  -0.304   2.436  0.00  0.00    -0.519 OA
ATOM      8  H   UNL     1      -1.816   0.398   2.893  0.00  0.00    +0.443 HD
ENDBRANCH   6   7
ENDBRANCH  11  10
BRANCH  31  32
ATOM     32  O   UNL     1       0.585   8.294  -0.815  0.00  0.00    -0.467 OA
ATOM     33  H   UNL     1       0.739   9.367  -1.003  0.00  0.00    +0.440 HD
ENDBRANCH  31  32
BRANCH  35  36
ATOM     36  O   UNL     1       5.206   7.798   0.173  0.00  0.00    -0.495 OA
ATOM     37  H   UNL     1       6.059   7.167   0.465  0.00  0.00    +0.445 HD
ENDBRANCH  35  36
BRANCH  12  13
ATOM     13  O   UNL     1      -1.183   3.498  -0.192  0.00  0.00    -0.261 OA
BRANCH  13  14
ATOM     14  C   UNL     1      -1.575   3.068  -1.497  0.00  0.00    +0.333 C 
ATOM     15  C   UNL     1      -3.040   2.623  -1.470  0.00  0.00    +0.201 C 
ATOM     18  C   UNL     1      -3.435   2.107  -2.857  0.00  0.00    +0.174 C 
ATOM     21  C   UNL     1      -2.490   0.970  -3.255  0.00  0.00    +0.141 C 
ATOM     24  C   UNL     1      -1.046   1.478  -3.213  0.00  0.00    +0.146 C 
ATOM     28  O   UNL     1      -0.754   1.972  -1.905  0.00  0.00    -0.376 OA
BRANCH  15  16
ATOM     16  O   UNL     1      -3.869   3.733  -1.119  0.00  0.00    -0.572 OA
ATOM     17  H   UNL     1      -4.959   3.604  -1.049  0.00  0.00    +0.419 HD
ENDBRANCH  15  16
BRANCH  18  19
ATOM     19  O   UNL     1      -4.779   1.622  -2.822  0.00  0.00    -0.591 OA
ATOM     20  H   UNL     1      -5.239   1.209  -3.732  0.00  0.00    +0.423 HD
ENDBRANCH  18  19
BRANCH  21  22
ATOM     22  O   UNL     1      -2.804   0.528  -4.577  0.00  0.00    -0.591 OA
ATOM     23  H   UNL     1      -2.227  -0.289  -5.036  0.00  0.00    +0.413 HD
ENDBRANCH  21  22
BRANCH  24  25
ATOM     25  C   UNL     1      -0.091   0.331  -3.551  0.00  0.00    +0.212 C 
BRANCH  25  26
ATOM     26  O   UNL     1       1.245   0.831  -3.627  0.00  0.00    -0.587 OA
ATOM     27  H   UNL     1       2.075   0.148  -3.862  0.00  0.00    +0.411 HD
ENDBRANCH  25  26
ENDBRANCH  24  25
ENDBRANCH  13  14
ENDBRANCH  12  13
TORSDOF 12
