REMARK  Name = ZINC95485892
REMARK  6 active torsions:
REMARK  status: ('A' for Active; 'I' for Inactive)
REMARK    1  A    between atoms: C1_1  and  C2_2
REMARK    2  A    between atoms: C11_12  and  O4_31
REMARK    3  A    between atoms: N2_16  and  C23_30
REMARK    4  A    between atoms: C19_23  and  C21_26
REMARK    5  A    between atoms: C21_26  and  O3_28
REMARK    6  A    between atoms: O3_28  and  C22_29
REMARK                            x       y       z     vdW  Elec       q    Type
REMARK                         _______ _______ _______ _____ _____    ______ ____
ROOT
ATOM      1  C   UNL     1      -0.003   1.518   0.006  0.00  0.00    +0.074 C 
ATOM      2  C   UNL     1       0.012   0.011  -0.001  0.00  0.00    -0.038 C 
ATOM      3  C   UNL     1       0.598  -0.646   0.978  0.00  0.00    -0.159 C 
ATOM      4  C   UNL     1       1.223   0.083   2.157  0.00  0.00    +0.275 C 
ATOM      5  N   UNL     1       2.484  -0.559   2.533  0.00  0.00    -0.540 NA
ATOM      6  C   UNL     1       3.556  -0.133   1.633  0.00  0.00    +0.231 C 
ATOM      7  C   UNL     1       3.326  -0.766   0.256  0.00  0.00    +0.020 C 
ATOM      8  C   UNL     1       3.130  -2.250   0.382  0.00  0.00    -0.045 C 
ATOM      9  C   UNL     1       4.081  -2.993  -0.562  0.00  0.00    +0.103 C 
ATOM     10  C   UNL     1       5.498  -2.926  -0.061  0.00  0.00    -0.128 A 
ATOM     11  C   UNL     1       6.529  -3.028  -0.980  0.00  0.00    +0.026 A 
ATOM     12  C   UNL     1       7.846  -2.963  -0.560  0.00  0.00    +0.058 A 
ATOM     15  C   UNL     1       8.130  -2.788   0.785  0.00  0.00    +0.024 A 
ATOM     16  C   UNL     1       7.100  -2.687   1.704  0.00  0.00    -0.037 A 
ATOM     17  C   UNL     1       5.777  -2.771   1.289  0.00  0.00    +0.213 A 
ATOM     18  N   UNL     1       4.730  -2.732   2.222  0.00  0.00    -0.593 N 
ATOM     19  C   UNL     1       5.061  -2.688   3.652  0.00  0.00    +0.290 C 
ATOM     20  C   UNL     1       1.706  -2.772   0.121  0.00  0.00    -0.071 C 
ATOM     25  C   UNL     1       1.894  -4.229   0.673  0.00  0.00    +0.237 C 
ATOM     26  O   UNL     1       2.846  -4.127   1.746  0.00  0.00    -0.379 OA
ATOM     27  C   UNL     1       3.341  -2.774   1.818  0.00  0.00    +0.339 C 
ATOM     28  C   UNL     1       2.413  -1.993   2.754  0.00  0.00    +0.194 C 
ATOM     29  C   UNL     1       0.981  -2.499   2.497  0.00  0.00    +0.045 C 
ATOM     30  C   UNL     1       0.648  -2.155   1.031  0.00  0.00    +0.060 C 
ENDROOT
BRANCH  12  13
ATOM     13  O   UNL     1       8.856  -3.073  -1.463  0.00  0.00    -0.498 OA
ATOM     14  H   UNL     1       9.141  -2.229  -1.839  0.00  0.00    +0.384 HD
ENDBRANCH  12  13
BRANCH  20  21
ATOM     21  C   UNL     1       1.312  -2.769  -1.337  0.00  0.00    +0.486 C 
ATOM     24  O   UNL     1       2.093  -2.379  -2.173  0.00  0.00    -0.484 OA
BRANCH  21  22
ATOM     22  O   UNL     1       0.095  -3.200  -1.704  0.00  0.00    -0.348 OA
ATOM     23  C   UNL     1      -0.210  -3.169  -3.100  0.00  0.00    +0.264 C 
ENDBRANCH  21  22
ENDBRANCH  20  21
TORSDOF 3
