REMARK  Name = ZINC14780903
REMARK  12 active torsions:
REMARK  status: ('A' for Active; 'I' for Inactive)
REMARK    1  A    between atoms: C1_1  and  C2_2
REMARK    2  A    between atoms: C2_2  and  C25_31
REMARK    3  A    between atoms: C3_3  and  C4_4
REMARK    4  A    between atoms: C4_4  and  C5_5
REMARK    5  A    between atoms: C9_9  and  C11_12
REMARK    6  A    between atoms: C10_10  and  O1_11
REMARK    7  A    between atoms: C11_12  and  C12_13
REMARK    8  A    between atoms: C13_14  and  C14_15
REMARK    9  A    between atoms: C13_14  and  C15_16
REMARK   10  A    between atoms: C17_19  and  C19_23
REMARK   11  A    between atoms: C22_26  and  O5_30
REMARK   12  A    between atoms: C24_28  and  O4_29
REMARK                            x       y       z     vdW  Elec       q    Type
REMARK                         _______ _______ _______ _____ _____    ______ ____
ROOT
ATOM      6  C   UNL     1       7.909   7.271   4.169  0.00  0.00    -0.138 A 
ATOM      7  C   UNL     1       6.673   7.034   4.699  0.00  0.00    +0.128 A 
ATOM      8  C   UNL     1       5.891   5.989   4.199  0.00  0.00    -0.253 A 
ATOM      9  C   UNL     1       6.374   5.178   3.155  0.00  0.00    +0.188 A 
ATOM     10  O   UNL     1       5.631   4.156   2.670  0.00  0.00    -0.298 OA
ATOM     11  C   UNL     1       4.215   4.186   2.859  0.00  0.00    +0.282 C 
ATOM     12  C   UNL     1       3.906   4.407   4.347  0.00  0.00    +0.003 C 
ATOM     23  C   UNL     1       7.628   5.434   2.627  0.00  0.00    -0.140 A 
ATOM     29  C   UNL     1       4.556   5.719   4.751  0.00  0.00    +0.411 C 
ATOM     30  O   UNL     1       4.001   6.504   5.492  0.00  0.00    -0.436 OA
ATOM     31  C   UNL     1       8.392   6.477   3.132  0.00  0.00    +0.186 A 
ENDROOT
BRANCH  12  13
ATOM     13  C   UNL     1       4.480   3.278   5.163  0.00  0.00    -0.121 A 
ATOM     14  C   UNL     1       5.837   3.019   5.125  0.00  0.00    +0.067 A 
ATOM     15  C   UNL     1       6.366   1.984   5.873  0.00  0.00    -0.016 A 
ATOM     16  C   UNL     1       5.535   1.202   6.663  0.00  0.00    +0.132 A 
ATOM     19  C   UNL     1       4.174   1.460   6.703  0.00  0.00    -0.034 A 
ATOM     20  C   UNL     1       3.646   2.499   5.952  0.00  0.00    +0.139 A 
BRANCH  16  17
ATOM     17  O   UNL     1       6.056   0.184   7.398  0.00  0.00    -0.496 OA
ATOM     18  H   UNL     1       6.083  -0.663   6.932  0.00  0.00    +0.396 HD
ENDBRANCH  16  17
BRANCH  20  21
ATOM     21  O   UNL     1       2.311   2.751   5.984  0.00  0.00    -0.494 OA
ATOM     22  H   UNL     1       2.045   3.376   6.673  0.00  0.00    +0.397 HD
ENDBRANCH  20  21
ENDBRANCH  12  13
BRANCH  31  32
ATOM     32  O   UNL     1       9.621   6.724   2.612  0.00  0.00    -0.483 OA
ATOM     33  H   UNL     1       9.617   7.346   1.872  0.00  0.00    +0.396 HD
ENDBRANCH  31  32
BRANCH   6   5
ATOM      5  C   UNL     1       8.754   8.397   4.708  0.00  0.00    +0.124 C 
BRANCH   5   4
ATOM      1  C   UNL     1       7.619  10.719   5.838  0.00  0.00    +0.073 C 
ATOM      2  C   UNL     1       8.081  10.724   4.404  0.00  0.00    -0.124 C 
ATOM      3  C   UNL     1       8.004  11.992   3.592  0.00  0.00    +0.074 C 
ATOM      4  C   UNL     1       8.549   9.627   3.862  0.00  0.00    -0.059 C 
ENDBRANCH   5   4
ENDBRANCH   6   5
BRANCH  23  24
ATOM     24  C   UNL     1       8.163   4.583   1.504  0.00  0.00    +0.132 C 
BRANCH  24  25
ATOM     25  C   UNL     1       7.761   5.184   0.182  0.00  0.00    -0.052 C 
ATOM     26  C   UNL     1       8.668   5.417  -0.734  0.00  0.00    -0.130 C 
ATOM     27  C   UNL     1       8.308   6.204  -1.968  0.00  0.00    +0.071 C 
ATOM     28  C   UNL     1      10.072   4.899  -0.554  0.00  0.00    +0.074 C 
ENDBRANCH  24  25
ENDBRANCH  23  24
TORSDOF 8
