REMARK  Name = ZINC14645876
REMARK  8 active torsions:
REMARK  status: ('A' for Active; 'I' for Inactive)
REMARK    1  A    between atoms: C1_1  and  O1_2
REMARK    2  A    between atoms: O1_2  and  C2_3
REMARK    3  A    between atoms: C6_7  and  O3_10
REMARK    4  A    between atoms: C7_8  and  O2_9
REMARK    5  A    between atoms: C9_13  and  C11_16
REMARK    6  A    between atoms: C15_20  and  O7_24
REMARK    7  A    between atoms: C16_21  and  O6_22
REMARK    8  A    between atoms: O6_22  and  C17_23
REMARK                            x       y       z     vdW  Elec       q    Type
REMARK                         _______ _______ _______ _____ _____    ______ ____
ROOT
ATOM      3  C   UNL     1      -0.149   1.182   2.379  0.00  0.00    +0.185 A 
ATOM      4  C   UNL     1       0.989   0.393   2.410  0.00  0.00    -0.080 A 
ATOM      5  C   UNL     1       1.545   0.019   3.626  0.00  0.00    +0.196 A 
ATOM      6  C   UNL     1       0.933   0.441   4.821  0.00  0.00    -0.273 A 
ATOM      7  C   UNL     1       1.535   0.028   6.098  0.00  0.00    +0.433 A 
ATOM      8  C   UNL     1       2.747  -0.806   6.023  0.00  0.00    -0.231 A 
ATOM     19  C   UNL     1       3.233  -1.142   4.801  0.00  0.00    +0.328 A 
ATOM     20  O   UNL     1       1.054   0.360   7.168  0.00  0.00    -0.424 OA
ATOM     21  C   UNL     1      -0.220   1.234   4.785  0.00  0.00    +0.215 A 
ATOM     24  O   UNL     1       2.655  -0.745   3.664  0.00  0.00    -0.217 OA
ATOM     25  C   UNL     1      -0.757   1.601   3.561  0.00  0.00    +0.019 A 
ENDROOT
BRANCH   8   9
ATOM      9  C   UNL     1       3.424  -1.270   7.259  0.00  0.00    -0.034 A 
ATOM     10  C   UNL     1       4.714  -0.834   7.556  0.00  0.00    +0.031 A 
ATOM     11  C   UNL     1       5.339  -1.262   8.709  0.00  0.00    +0.029 A 
ATOM     12  C   UNL     1       4.695  -2.134   9.569  0.00  0.00    +0.010 A 
ATOM     13  C   UNL     1       3.414  -2.580   9.281  0.00  0.00    +0.089 A 
ATOM     16  C   UNL     1       2.773  -2.150   8.126  0.00  0.00    +0.097 A 
BRANCH  13  14
ATOM     14  O   UNL     1       2.785  -3.436  10.130  0.00  0.00    -0.484 OA
ATOM     15  H   UNL     1       2.941  -4.370   9.933  0.00  0.00    +0.386 HD
ENDBRANCH  13  14
BRANCH  16  17
ATOM     17  O   UNL     1       1.517  -2.585   7.840  0.00  0.00    -0.318 OA
ATOM     18  C   UNL     1       1.405  -3.782   7.067  0.00  0.00    +0.218 C 
ENDBRANCH  16  17
ENDBRANCH   8   9
BRANCH   3   2
ATOM      1  C   UNL     1      -0.013   1.086   0.008  0.00  0.00    +0.255 C 
ATOM      2  O   UNL     1      -0.682   1.547   1.184  0.00  0.00    -0.292 OA
ENDBRANCH   3   2
BRANCH  21  22
ATOM     22  O   UNL     1      -0.808   1.639   5.940  0.00  0.00    -0.459 OA
ATOM     23  H   UNL     1      -1.479   1.029   6.275  0.00  0.00    +0.402 HD
ENDBRANCH  21  22
BRANCH  25  26
ATOM     26  O   UNL     1      -1.878   2.372   3.514  0.00  0.00    -0.466 OA
ATOM     27  H   UNL     1      -2.702   1.867   3.501  0.00  0.00    +0.386 HD
ENDBRANCH  25  26
TORSDOF 6
