REMARK  Name = ZINC03978989
REMARK  6 active torsions:
REMARK  status: ('A' for Active; 'I' for Inactive)
REMARK    1  A    between atoms: C1_1  and  C2_2
REMARK    2  A    between atoms: C2_2  and  C23_31
REMARK    3  A    between atoms: C15_18  and  O5_28
REMARK    4  A    between atoms: C16_19  and  O4_26
REMARK    5  A    between atoms: O4_26  and  C21_27
REMARK    6  A    between atoms: O5_28  and  C22_29
REMARK                            x       y       z     vdW  Elec       q    Type
REMARK                         _______ _______ _______ _____ _____    ______ ____
ROOT
ATOM      1  C   UNL     1      -0.019   1.526   0.010  0.00  0.00    +0.038 C 
ATOM      2  C   UNL     1       0.002  -0.004   0.002  0.00  0.00    +0.145 C 
ATOM      3  C   UNL     1      -1.435  -0.528   0.027  0.00  0.00    +0.086 C 
ATOM      4  C   UNL     1       0.684  -0.484  -1.252  0.00  0.00    -0.053 C 
ATOM      5  C   UNL     1       2.002  -0.667  -1.264  0.00  0.00    +0.059 C 
ATOM      6  C   UNL     1       2.753  -0.397  -0.019  0.00  0.00    -0.173 A 
ATOM      7  C   UNL     1       2.039  -0.306   1.186  0.00  0.00    +0.204 A 
ATOM      8  C   UNL     1       2.707  -0.052   2.376  0.00  0.00    -0.037 A 
ATOM      9  C   UNL     1       4.075   0.112   2.381  0.00  0.00    +0.161 A 
ATOM     10  C   UNL     1       4.798   0.023   1.187  0.00  0.00    -0.275 A 
ATOM     11  C   UNL     1       6.263   0.202   1.187  0.00  0.00    +0.418 C 
ATOM     12  O   UNL     1       6.916   0.218   2.209  0.00  0.00    -0.430 OA
ATOM     13  C   UNL     1       6.891   0.367  -0.182  0.00  0.00    +0.013 C 
ATOM     14  C   UNL     1       8.362   0.073  -0.139  0.00  0.00    -0.161 A 
ATOM     15  C   UNL     1       9.119   0.512   0.934  0.00  0.00    +0.043 A 
ATOM     16  C   UNL     1      10.482   0.276   0.971  0.00  0.00    +0.071 A 
ATOM     19  C   UNL     1      11.093  -0.409  -0.075  0.00  0.00    +0.145 A 
ATOM     22  C   UNL     1      10.336  -0.852  -1.144  0.00  0.00    -0.058 A 
ATOM     23  C   UNL     1       8.965  -0.617  -1.181  0.00  0.00    +0.139 A 
ATOM     24  O   UNL     1       8.262  -1.079  -2.248  0.00  0.00    -0.299 OA
ATOM     25  C   UNL     1       6.920  -0.622  -2.445  0.00  0.00    +0.293 C 
ATOM     26  C   UNL     1       6.208  -0.665  -1.095  0.00  0.00    +0.156 C 
ATOM     27  O   UNL     1       4.825  -0.345  -1.193  0.00  0.00    -0.286 OA
ATOM     28  C   UNL     1       4.137  -0.238  -0.027  0.00  0.00    +0.220 A 
ATOM     29  O   UNL     1       0.694  -0.472   1.160  0.00  0.00    -0.296 OA
ENDROOT
BRANCH  16  17
ATOM     17  O   UNL     1      11.222   0.711   2.027  0.00  0.00    -0.304 OA
ATOM     18  C   UNL     1      10.526   1.406   3.064  0.00  0.00    +0.238 C 
ENDBRANCH  16  17
BRANCH  19  20
ATOM     20  O   UNL     1      12.433  -0.641  -0.047  0.00  0.00    -0.299 OA
ATOM     21  C   UNL     1      12.992  -1.349  -1.155  0.00  0.00    +0.242 C 
ENDBRANCH  19  20
TORSDOF 2
