REMARK  Name = ZINC95485967
REMARK  13 active torsions:
REMARK  status: ('A' for Active; 'I' for Inactive)
REMARK    1  A    between atoms: C1_1  and  C2_2
REMARK    2  A    between atoms: C4_4  and  O4_32
REMARK    3  A    between atoms: C7_7  and  C8_8
REMARK    4  A    between atoms: C8_8  and  C9_9
REMARK    5  A    between atoms: C9_9  and  C10_10
REMARK    6  A    between atoms: C11_11  and  C12_12
REMARK    7  A    between atoms: C11_11  and  C13_13
REMARK    8  A    between atoms: C17_17  and  O1_18
REMARK    9  A    between atoms: C21_23  and  C22_25
REMARK   10  A    between atoms: C22_25  and  C23_26
REMARK   11  A    between atoms: C23_26  and  C24_27
REMARK   12  A    between atoms: C25_28  and  C26_29
REMARK   13  A    between atoms: C25_28  and  C27_30
REMARK                            x       y       z     vdW  Elec       q    Type
REMARK                         _______ _______ _______ _____ _____    ______ ____
ROOT
ATOM      1  C   UNL     1      -3.752  -4.166   0.953  0.00  0.00    +0.100 C 
ATOM      2  C   UNL     1      -3.580  -5.130   2.098  0.00  0.00    -0.040 A 
ATOM      3  C   UNL     1      -3.893  -6.473   1.914  0.00  0.00    -0.013 A 
ATOM      4  C   UNL     1      -3.746  -7.376   2.945  0.00  0.00    +0.143 A 
ATOM      7  C   UNL     1      -3.275  -6.929   4.195  0.00  0.00    -0.124 A 
ATOM      8  C   UNL     1      -2.955  -5.560   4.371  0.00  0.00    +0.016 A 
ATOM      9  C   UNL     1      -2.475  -5.111   5.615  0.00  0.00    +0.016 A 
ATOM     10  C   UNL     1      -2.315  -5.975   6.654  0.00  0.00    -0.013 A 
ATOM     11  C   UNL     1      -1.767  -5.430   7.949  0.00  0.00    +0.017 C 
ATOM     18  C   UNL     1      -2.025  -6.399   9.076  0.00  0.00    +0.376 C 
ATOM     19  O   UNL     1      -2.463  -6.021  10.136  0.00  0.00    -0.429 OA
ATOM     20  C   UNL     1      -1.715  -7.864   8.833  0.00  0.00    +0.044 C 
ATOM     21  C   UNL     1      -2.518  -8.279   7.619  0.00  0.00    +0.403 C 
ATOM     22  O   UNL     1      -3.047  -9.371   7.570  0.00  0.00    -0.420 OA
ATOM     23  C   UNL     1      -2.645  -7.335   6.502  0.00  0.00    -0.212 A 
ATOM     24  C   UNL     1      -3.117  -7.817   5.274  0.00  0.00    +0.217 A 
ATOM     27  C   UNL     1      -3.116  -4.673   3.295  0.00  0.00    -0.093 A 
ENDROOT
BRANCH   4   5
ATOM      5  O   UNL     1      -4.054  -8.685   2.757  0.00  0.00    -0.477 OA
ATOM      6  H   UNL     1      -3.312  -9.222   2.446  0.00  0.00    +0.390 HD
ENDBRANCH   4   5
BRANCH  24  25
ATOM     25  O   UNL     1      -3.420  -9.128   5.127  0.00  0.00    -0.458 OA
ATOM     26  H   UNL     1      -2.678  -9.672   4.830  0.00  0.00    +0.394 HD
ENDBRANCH  24  25
BRANCH  11  12
ATOM     12  C   UNL     1      -0.260  -5.207   7.807  0.00  0.00    +0.061 C 
BRANCH  12  13
ATOM     13  C   UNL     1       0.278  -4.539   9.074  0.00  0.00    +0.050 C 
BRANCH  13  14
ATOM     14  C   UNL     1       1.762  -4.319   8.934  0.00  0.00    -0.060 C 
ATOM     15  C   UNL     1       2.252  -3.105   8.975  0.00  0.00    -0.126 C 
ATOM     16  C   UNL     1       3.744  -2.894   8.979  0.00  0.00    +0.073 C 
ATOM     17  C   UNL     1       1.323  -1.919   9.017  0.00  0.00    +0.073 C 
ENDBRANCH  13  14
ENDBRANCH  12  13
ENDBRANCH  11  12
BRANCH  27  28
ATOM     28  C   UNL     1      -2.779  -3.214   3.465  0.00  0.00    +0.082 C 
BRANCH  28  29
ATOM     29  C   UNL     1      -4.019  -2.458   3.948  0.00  0.00    +0.055 C 
BRANCH  29  30
ATOM     30  C   UNL     1      -3.683  -0.999   4.119  0.00  0.00    -0.060 C 
ATOM     31  C   UNL     1      -3.949  -0.393   5.249  0.00  0.00    -0.128 C 
ATOM     32  C   UNL     1      -3.480   1.021   5.474  0.00  0.00    +0.072 C 
ATOM     33  C   UNL     1      -4.724  -1.111   6.324  0.00  0.00    +0.071 C 
ENDBRANCH  29  30
ENDBRANCH  28  29
ENDBRANCH  27  28
TORSDOF 8
