REMARK  Name = ZINC95486078
REMARK  6 active torsions:
REMARK  status: ('A' for Active; 'I' for Inactive)
REMARK    1  A    between atoms: C1_1  and  C2_2
REMARK    2  A    between atoms: C2_2  and  C24_32
REMARK    3  A    between atoms: C3_3  and  C4_4
REMARK    4  A    between atoms: C4_4  and  C5_5
REMARK    5  A    between atoms: C14_15  and  O1_17
REMARK    6  A    between atoms: C22_29  and  O4_31
REMARK                            x       y       z     vdW  Elec       q    Type
REMARK                         _______ _______ _______ _____ _____    ______ ____
ROOT
ATOM      6  C   UNL     1      -0.879  -0.572   3.395  0.00  0.00    +0.012 C 
ATOM      7  C   UNL     1      -2.296  -0.398   2.852  0.00  0.00    +0.095 C 
ATOM      8  C   UNL     1      -3.313  -0.826   3.877  0.00  0.00    -0.089 A 
ATOM      9  C   UNL     1      -4.609  -1.079   3.437  0.00  0.00    +0.068 A 
ATOM     10  C   UNL     1      -5.574  -1.468   4.321  0.00  0.00    -0.157 A 
ATOM     11  C   UNL     1      -5.277  -1.630   5.683  0.00  0.00    +0.137 A 
ATOM     12  O   UNL     1      -6.221  -2.066   6.551  0.00  0.00    -0.324 OA
ATOM     13  C   UNL     1      -7.617  -1.819   6.346  0.00  0.00    +0.273 C 
ATOM     14  C   UNL     1      -7.796  -1.002   5.091  0.00  0.00    -0.017 C 
ATOM     15  C   UNL     1      -9.131  -0.910   4.451  0.00  0.00    -0.163 A 
ATOM     16  C   UNL     1     -10.406  -0.786   4.957  0.00  0.00    +0.095 A 
ATOM     17  C   UNL     1     -11.450  -0.712   4.045  0.00  0.00    -0.034 A 
ATOM     18  C   UNL     1     -11.220  -0.760   2.680  0.00  0.00    +0.142 A 
ATOM     21  C   UNL     1      -9.933  -0.894   2.156  0.00  0.00    -0.011 A 
ATOM     22  C   UNL     1      -8.882  -0.974   3.061  0.00  0.00    +0.115 A 
ATOM     23  O   UNL     1      -7.549  -1.116   2.809  0.00  0.00    -0.278 OA
ATOM     24  C   UNL     1      -3.989  -1.363   6.112  0.00  0.00    -0.015 A 
ATOM     25  C   UNL     1      -6.996  -1.739   3.961  0.00  0.00    +0.224 C 
ATOM     26  C   UNL     1      -3.009  -0.965   5.213  0.00  0.00    -0.034 A 
ATOM     27  C   UNL     1      -1.627  -0.708   5.758  0.00  0.00    +0.056 C 
ATOM     28  C   UNL     1      -0.801   0.109   4.767  0.00  0.00    +0.173 C 
ENDROOT
BRANCH  18  19
ATOM     19  O   UNL     1     -12.275  -0.677   1.828  0.00  0.00    -0.497 OA
ATOM     20  H   UNL     1     -12.498   0.226   1.564  0.00  0.00    +0.396 HD
ENDBRANCH  18  19
BRANCH  28  29
ATOM     29  O   UNL     1      -1.330   1.433   4.678  0.00  0.00    -0.557 OA
ATOM     30  H   UNL     1      -1.311   1.921   5.512  0.00  0.00    +0.376 HD
ENDBRANCH  28  29
BRANCH   6   5
ATOM      5  C   UNL     1       0.123   0.078   2.439  0.00  0.00    +0.063 C 
BRANCH   5   4
ATOM      1  C   UNL     1      -0.187   1.489   0.017  0.00  0.00    +0.072 C 
ATOM      2  C   UNL     1      -0.081  -0.014   0.008  0.00  0.00    -0.130 C 
ATOM      3  C   UNL     1      -0.207  -0.770  -1.290  0.00  0.00    +0.070 C 
ATOM      4  C   UNL     1       0.121  -0.664   1.128  0.00  0.00    -0.062 C 
ENDBRANCH   5   4
ENDBRANCH   6   5
TORSDOF 4
