REMARK  Name = ZINC13374323
REMARK  12 active torsions:
REMARK  status: ('A' for Active; 'I' for Inactive)
REMARK    1  A    between atoms: C1_1  and  C2_2
REMARK    2  A    between atoms: C2_2  and  O2_4
REMARK    3  A    between atoms: O2_4  and  C3_5
REMARK    4  A    between atoms: C3_5  and  C4_6
REMARK    5  A    between atoms: C4_6  and  C5_8
REMARK    6  A    between atoms: C4_6  and  N1_15
REMARK    7  A    between atoms: C5_8  and  C6_9
REMARK    8  A    between atoms: C12_16  and  C13_18
REMARK    9  A    between atoms: C13_18  and  C14_20
REMARK   10  A    between atoms: C13_18  and  N2_27
REMARK   11  A    between atoms: C14_20  and  C15_21
REMARK   12  A    between atoms: C21_28  and  C22_30
REMARK                            x       y       z     vdW  Elec       q    Type
REMARK                         _______ _______ _______ _____ _____    ______ ____
ROOT
ATOM      9  C   UNL     1      -3.633  -2.762  -3.672  0.00  0.00    +0.255 C 
ENDROOT
BRANCH   9   8
ATOM      6  N   UNL     1      -1.248  -2.334  -3.175  0.00  0.00    -0.712 N 
ATOM      7  H   UNL     1      -1.303  -1.550  -3.743  0.00  0.00    +0.405 HD
ATOM      8  C   UNL     1      -2.334  -3.111  -2.993  0.00  0.00    +0.516 C 
ATOM     27  O   UNL     1      -2.266  -4.092  -2.282  0.00  0.00    -0.531 OA
BRANCH   6   5
ATOM      5  C   UNL     1       0.015  -2.673  -2.514  0.00  0.00    +0.273 C 
BRANCH   5   4
ATOM      4  C   UNL     1       0.020  -2.096  -1.097  0.00  0.00    +0.208 C 
BRANCH   4   3
ATOM      3  O   UNL     1       0.000  -0.669  -1.164  0.00  0.00    -0.350 OA
BRANCH   3   2
ATOM      1  C   UNL     1      -0.018   1.503   0.010  0.00  0.00    +0.156 C 
ATOM      2  C   UNL     1       0.002  -0.004   0.002  0.00  0.00    +0.458 C 
ATOM     35  O   UNL     1       0.020  -0.614   1.045  0.00  0.00    -0.510 OA
ENDBRANCH   3   2
ENDBRANCH   4   3
ENDBRANCH   5   4
BRANCH   5  28
ATOM     28  C   UNL     1       1.181  -2.083  -3.310  0.00  0.00    +0.094 C 
BRANCH  28  29
ATOM     29  C   UNL     1       1.249  -2.742  -4.663  0.00  0.00    -0.085 A 
ATOM     30  C   UNL     1       2.005  -3.887  -4.838  0.00  0.00    +0.006 A 
ATOM     31  C   UNL     1       2.068  -4.491  -6.080  0.00  0.00    +0.006 A 
ATOM     32  C   UNL     1       1.375  -3.950  -7.147  0.00  0.00    +0.000 A 
ATOM     33  C   UNL     1       0.619  -2.806  -6.972  0.00  0.00    +0.007 A 
ATOM     34  C   UNL     1       0.553  -2.205  -5.729  0.00  0.00    +0.005 A 
ENDBRANCH  28  29
ENDBRANCH   5  28
ENDBRANCH   6   5
ENDBRANCH   9   8
BRANCH   9  10
ATOM     10  N   UNL     1      -4.652  -3.754  -3.317  0.00  0.00    -0.712 N 
ATOM     11  H   UNL     1      -4.386  -4.648  -3.051  0.00  0.00    +0.408 HD
ATOM     12  C   UNL     1      -5.957  -3.424  -3.361  0.00  0.00    +0.563 C 
ATOM     19  O   UNL     1      -6.290  -2.304  -3.695  0.00  0.00    -0.514 OA
BRANCH  12  13
ATOM     13  C   UNL     1      -6.985  -4.425  -3.003  0.00  0.00    -0.134 A 
ATOM     14  C   UNL     1      -6.606  -5.710  -2.614  0.00  0.00    +0.038 A 
ATOM     15  C   UNL     1      -7.570  -6.639  -2.281  0.00  0.00    +0.002 A 
ATOM     16  C   UNL     1      -8.910  -6.299  -2.332  0.00  0.00    +0.034 A 
ATOM     17  C   UNL     1      -9.293  -5.026  -2.718  0.00  0.00    +0.002 A 
ATOM     18  C   UNL     1      -8.339  -4.086  -3.048  0.00  0.00    +0.078 A 
ENDBRANCH  12  13
ENDBRANCH   9  10
BRANCH   9  20
ATOM     20  C   UNL     1      -3.431  -2.759  -5.189  0.00  0.00    +0.081 C 
BRANCH  20  21
ATOM     21  C   UNL     1      -4.694  -2.292  -5.863  0.00  0.00    -0.069 A 
ATOM     22  C   UNL     1      -5.666  -3.207  -6.222  0.00  0.00    +0.004 A 
ATOM     23  C   UNL     1      -6.825  -2.778  -6.840  0.00  0.00    +0.003 A 
ATOM     24  C   UNL     1      -7.013  -1.433  -7.100  0.00  0.00    -0.001 A 
ATOM     25  C   UNL     1      -6.042  -0.518  -6.741  0.00  0.00    +0.004 A 
ATOM     26  C   UNL     1      -4.885  -0.946  -6.118  0.00  0.00    +0.010 A 
ENDBRANCH  20  21
ENDBRANCH   9  20
TORSDOF 11
