REMARK  Name = ZINC06484605
REMARK  8 active torsions:
REMARK  status: ('A' for Active; 'I' for Inactive)
REMARK    1  A    between atoms: C1_1  and  O1_2
REMARK    2  A    between atoms: O1_2  and  C2_3
REMARK    3  A    between atoms: C5_6  and  C8_10
REMARK    4  A    between atoms: C7_8  and  O2_9
REMARK    5  A    between atoms: C14_18  and  O7_24
REMARK    6  A    between atoms: C15_19  and  O6_22
REMARK    7  A    between atoms: C16_20  and  O5_21
REMARK    8  A    between atoms: O6_22  and  C17_23
REMARK                            x       y       z     vdW  Elec       q    Type
REMARK                         _______ _______ _______ _____ _____    ______ ____
ROOT
ATOM      7  C   UNL     1       2.382   0.789   6.654  0.00  0.00    +0.206 A 
ATOM      8  C   UNL     1       2.852   1.958   6.143  0.00  0.00    -0.144 A 
ATOM      9  C   UNL     1       2.358   2.425   4.902  0.00  0.00    +0.427 A 
ATOM     10  C   UNL     1       1.345   1.601   4.221  0.00  0.00    -0.300 A 
ATOM     11  C   UNL     1       0.927   0.408   4.837  0.00  0.00    +0.230 A 
ATOM     12  C   UNL     1      -0.025  -0.384   4.216  0.00  0.00    -0.069 A 
ATOM     13  C   UNL     1      -0.563   0.003   2.998  0.00  0.00    +0.252 A 
ATOM     16  C   UNL     1      -0.148   1.181   2.382  0.00  0.00    -0.137 A 
ATOM     19  C   UNL     1       0.803   1.986   2.990  0.00  0.00    +0.276 A 
ATOM     22  O   UNL     1       2.758   3.470   4.413  0.00  0.00    -0.456 OA
ATOM     23  O   UNL     1       1.458   0.046   6.026  0.00  0.00    -0.216 OA
ENDROOT
BRANCH   7   6
ATOM      3  C   UNL     1       3.903  -0.561  10.386  0.00  0.00    +0.118 A 
ATOM      4  C   UNL     1       4.363   0.629   9.838  0.00  0.00    -0.029 A 
ATOM      5  C   UNL     1       3.876   1.067   8.626  0.00  0.00    +0.064 A 
ATOM      6  C   UNL     1       2.909   0.319   7.950  0.00  0.00    -0.071 A 
ATOM     24  C   UNL     1       2.446  -0.879   8.501  0.00  0.00    +0.005 A 
ATOM     25  C   UNL     1       2.943  -1.315   9.714  0.00  0.00    +0.128 A 
BRANCH   3   2
ATOM      1  C   UNL     1       5.372  -0.168  12.213  0.00  0.00    +0.243 C 
ATOM      2  O   UNL     1       4.390  -0.990  11.579  0.00  0.00    -0.301 OA
ENDBRANCH   3   2
BRANCH  25  26
ATOM     26  O   UNL     1       2.494  -2.481  10.253  0.00  0.00    -0.497 OA
ATOM     27  H   UNL     1       1.737  -3.076   9.723  0.00  0.00    +0.436 HD
ENDBRANCH  25  26
ENDBRANCH   7   6
BRANCH  13  14
ATOM     14  O   UNL     1      -1.499  -0.777   2.398  0.00  0.00    -0.487 OA
ATOM     15  H   UNL     1      -1.929  -0.475   1.432  0.00  0.00    +0.446 HD
ENDBRANCH  13  14
BRANCH  16  17
ATOM     17  O   UNL     1      -0.682   1.547   1.184  0.00  0.00    -0.318 OA
ATOM     18  C   UNL     1      -0.013   1.086   0.008  0.00  0.00    +0.215 C 
ENDBRANCH  16  17
BRANCH  19  20
ATOM     20  O   UNL     1       1.207   3.138   2.394  0.00  0.00    -0.460 OA
ATOM     21  H   UNL     1       0.778   3.436   1.426  0.00  0.00    +0.439 HD
ENDBRANCH  19  20
TORSDOF 6
