REMARK  Name = ZINC05765089
REMARK  4 active torsions:
REMARK  status: ('A' for Active; 'I' for Inactive)
REMARK    1  A    between atoms: C1_1  and  C2_2
REMARK    2  A    between atoms: C4_4  and  O5_19
REMARK    3  A    between atoms: C10_11  and  O4_18
REMARK    4  A    between atoms: C12_13  and  O3_17
REMARK                            x       y       z     vdW  Elec       q    Type
REMARK                         _______ _______ _______ _____ _____    ______ ____
ROOT
ATOM      1  C   UNL     1      -0.018   1.503   0.010  0.00  0.00    +0.119 C 
ATOM      2  C   UNL     1       0.002  -0.004   0.002  0.00  0.00    +0.028 A 
ATOM      3  C   UNL     1      -0.097  -0.685  -1.179  0.00  0.00    -0.037 A 
ATOM      4  C   UNL     1      -0.079  -2.077  -1.188  0.00  0.00    +0.182 A 
ATOM      7  C   UNL     1       0.035  -2.789  -0.005  0.00  0.00    -0.031 A 
ATOM      8  C   UNL     1       0.133  -2.114   1.204  0.00  0.00    +0.178 A 
ATOM      9  O   UNL     1       0.235  -2.806   2.357  0.00  0.00    -0.223 OA
ATOM     10  C   UNL     1       0.659  -2.224   3.500  0.00  0.00    +0.192 A 
ATOM     11  C   UNL     1       1.067  -3.010   4.569  0.00  0.00    -0.033 A 
ATOM     12  C   UNL     1       1.477  -2.418   5.754  0.00  0.00    +0.195 A 
ATOM     15  C   UNL     1       1.489  -1.035   5.891  0.00  0.00    -0.055 A 
ATOM     16  C   UNL     1       1.090  -0.232   4.838  0.00  0.00    +0.221 A 
ATOM     19  C   UNL     1       0.679  -0.825   3.636  0.00  0.00    -0.268 A 
ATOM     20  C   UNL     1       0.261   0.000   2.488  0.00  0.00    +0.445 A 
ATOM     21  O   UNL     1       0.037   1.192   2.596  0.00  0.00    -0.431 OA
ATOM     22  C   UNL     1       0.128  -0.709   1.199  0.00  0.00    -0.240 A 
ENDROOT
BRANCH   4   5
ATOM      5  O   UNL     1      -0.174  -2.743  -2.367  0.00  0.00    -0.491 OA
ATOM      6  H   UNL     1       0.678  -2.924  -2.787  0.00  0.00    +0.403 HD
ENDBRANCH   4   5
BRANCH  12  13
ATOM     13  O   UNL     1       1.873  -3.199   6.791  0.00  0.00    -0.488 OA
ATOM     14  H   UNL     1       1.158  -3.448   7.391  0.00  0.00    +0.404 HD
ENDBRANCH  12  13
BRANCH  16  17
ATOM     17  O   UNL     1       1.097   1.118   4.966  0.00  0.00    -0.476 OA
ATOM     18  H   UNL     1       0.268   1.486   5.300  0.00  0.00    +0.405 HD
ENDBRANCH  16  17
TORSDOF 3
