REMARK  Name = ZINC01635104
REMARK  12 active torsions:
REMARK  status: ('A' for Active; 'I' for Inactive)
REMARK    1  A    between atoms: C1_1  and  C2_2
REMARK    2  A    between atoms: C4_4  and  O4_31
REMARK    3  A    between atoms: C7_7  and  C8_8
REMARK    4  A    between atoms: C9_9  and  O2_24
REMARK    5  A    between atoms: C11_11  and  O1_22
REMARK    6  A    between atoms: C15_15  and  C19_21
REMARK    7  A    between atoms: C16_17  and  C17_19
REMARK    8  A    between atoms: C18_20  and  N1_62
REMARK    9  A    between atoms: O1_22  and  C20_23
REMARK   10  A    between atoms: C24_28  and  O3_29
REMARK   11  A    between atoms: O3_29  and  C25_30
REMARK   12  A    between atoms: O4_31  and  C26_32
REMARK                            x       y       z     vdW  Elec       q    Type
REMARK                         _______ _______ _______ _____ _____    ______ ____
ROOT
ATOM     16  C   UNL     1       0.226   4.383  -0.239  0.00  0.00    -0.072 A 
ATOM     17  C   UNL     1      -0.219   4.776   1.027  0.00  0.00    +0.191 A 
ATOM     20  C   UNL     1      -1.409   5.473   1.147  0.00  0.00    -0.081 A 
ATOM     21  C   UNL     1      -2.156   5.764   0.018  0.00  0.00    +0.177 A 
ATOM     24  C   UNL     1      -1.718   5.367  -1.245  0.00  0.00    -0.173 A 
ATOM     25  C   UNL     1      -2.576   5.703  -2.437  0.00  0.00    +0.238 C 
ATOM     26  N   UNL     1      -1.781   5.613  -3.672  0.00  0.00    -0.392 N 
ATOM     27  H   UNL     1      -1.052   6.336  -3.656  0.00  0.00    +0.428 HD
ATOM     28  C   UNL     1      -2.648   5.831  -4.851  0.00  0.00    +0.326 C 
ATOM     29  C   UNL     1      -1.140   4.284  -3.753  0.00  0.00    +0.178 C 
ATOM     30  C   UNL     1      -2.156   3.181  -3.448  0.00  0.00    +0.089 C 
ATOM     31  C   UNL     1      -0.013   4.244  -2.720  0.00  0.00    +0.131 C 
ATOM     32  C   UNL     1      -3.104   7.132  -2.293  0.00  0.00    +0.098 C 
ATOM     33  C   UNL     1      -0.532   4.683  -1.375  0.00  0.00    -0.019 A 
ENDROOT
BRANCH  16  15
ATOM      1  C   UNL     1       2.678   5.833  -0.620  0.00  0.00    +0.092 C 
ATOM      2  C   UNL     1       2.689   4.328  -0.560  0.00  0.00    -0.004 A 
ATOM      3  C   UNL     1       3.891   3.644  -0.691  0.00  0.00    -0.112 A 
ATOM      4  C   UNL     1       3.931   2.268  -0.641  0.00  0.00    +0.191 A 
ATOM      7  C   UNL     1       2.741   1.537  -0.454  0.00  0.00    -0.104 A 
ATOM      8  C   UNL     1       1.513   2.227  -0.319  0.00  0.00    +0.048 A 
ATOM      9  C   UNL     1       0.328   1.500  -0.132  0.00  0.00    -0.046 A 
ATOM     10  C   UNL     1       0.366   0.139  -0.081  0.00  0.00    +0.080 A 
ATOM     11  C   UNL     1       1.568  -0.550  -0.213  0.00  0.00    -0.109 A 
ATOM     12  C   UNL     1       2.752   0.130  -0.397  0.00  0.00    +0.176 A 
ATOM     15  C   UNL     1       1.501   3.642  -0.376  0.00  0.00    -0.109 A 
BRANCH   4   5
ATOM      5  O   UNL     1       5.116   1.616  -0.771  0.00  0.00    -0.287 OA
ATOM      6  C   UNL     1       6.282   2.421  -0.958  0.00  0.00    +0.246 C 
ENDBRANCH   4   5
BRANCH  12  13
ATOM     13  O   UNL     1       3.920  -0.552  -0.524  0.00  0.00    -0.290 OA
ATOM     14  C   UNL     1       3.850  -1.977  -0.456  0.00  0.00    +0.246 C 
ENDBRANCH  12  13
ENDBRANCH  16  15
BRANCH  17  18
ATOM     18  O   UNL     1       0.514   4.480   2.132  0.00  0.00    -0.482 OA
ATOM     19  H   UNL     1       1.162   5.159   2.367  0.00  0.00    +0.401 HD
ENDBRANCH  17  18
BRANCH  21  22
ATOM     22  O   UNL     1      -3.326   6.443   0.141  0.00  0.00    -0.309 OA
ATOM     23  C   UNL     1      -3.719   6.823   1.462  0.00  0.00    +0.255 C 
ENDBRANCH  21  22
TORSDOF 5
