REMARK  Name = ZINC01651170
REMARK  1 active torsions:
REMARK  status: ('A' for Active; 'I' for Inactive)
REMARK    1  A    between atoms: C1_1  and  N1_2
REMARK                            x       y       z     vdW  Elec       q    Type
REMARK                         _______ _______ _______ _____ _____    ______ ____
ROOT
ATOM      1  C   UNL     1       1.264   5.955   0.023  0.00  0.00    +0.327 C 
ATOM      2  N   UNL     1      -0.012   5.234   0.031  0.00  0.00    -0.464 N 
ATOM      3  C   UNL     1      -0.018   3.857   0.023  0.00  0.00    +0.205 A 
ATOM      4  C   UNL     1       1.189   3.158   0.008  0.00  0.00    -0.033 A 
ATOM      5  C   UNL     1       1.185   1.781   0.000  0.00  0.00    +0.085 A 
ATOM      6  C   UNL     1      -0.013   1.076   0.008  0.00  0.00    -0.020 A 
ATOM      7  C   UNL     1      -1.206   1.736   0.017  0.00  0.00    +0.091 A 
ATOM      8  C   UNL     1      -1.229   3.140   0.031  0.00  0.00    -0.132 A 
ATOM      9  C   UNL     1      -2.466   3.830   0.047  0.00  0.00    +0.170 A 
ATOM     10  C   UNL     1      -2.466   5.202   0.054  0.00  0.00    -0.143 A 
ATOM     11  C   UNL     1      -3.503   6.245   0.070  0.00  0.00    -0.133 A 
ATOM     12  C   UNL     1      -4.893   6.233   0.083  0.00  0.00    +0.054 A 
ATOM     13  C   UNL     1      -5.589   7.423   0.098  0.00  0.00    -0.016 A 
ATOM     14  C   UNL     1      -4.908   8.632   0.099  0.00  0.00    +0.034 A 
ATOM     15  C   UNL     1      -3.533   8.666   0.084  0.00  0.00    +0.022 A 
ATOM     16  C   UNL     1      -2.802   7.471   0.070  0.00  0.00    +0.124 A 
ATOM     17  N   UNL     1      -1.469   7.225   0.055  0.00  0.00    -0.540 NA
ATOM     18  C   UNL     1      -1.192   5.938   0.045  0.00  0.00    +0.373 A 
ENDROOT
TORSDOF 0
