REMARK  Name = ZINC95485885
REMARK  20 active torsions:
REMARK  status: ('A' for Active; 'I' for Inactive)
REMARK    1  A    between atoms: C1_1  and  C2_2
REMARK    2  A    between atoms: C2_2  and  C3_3
REMARK    3  A    between atoms: C2_2  and  C4_4
REMARK    4  A    between atoms: C4_4  and  C5_6
REMARK    5  A    between atoms: C6_7  and  O7_40
REMARK    6  A    between atoms: C7_8  and  C21_24
REMARK    7  A    between atoms: C8_9  and  O3_23
REMARK    8  A    between atoms: C11_13  and  C14_16
REMARK    9  A    between atoms: C11_13  and  C15_17
REMARK   10  A    between atoms: C15_17  and  C16_18
REMARK   11  A    between atoms: C16_18  and  C17_19
REMARK   12  A    between atoms: C18_20  and  C19_21
REMARK   13  A    between atoms: C18_20  and  C20_22
REMARK   14  A    between atoms: C21_24  and  C22_25
REMARK   15  A    between atoms: C24_27  and  C32_37
REMARK   16  A    between atoms: C24_27  and  C33_38
REMARK   17  A    between atoms: C26_29  and  C28_32
REMARK   18  A    between atoms: C28_32  and  C29_34
REMARK   19  A    between atoms: C29_34  and  C30_35
REMARK   20  A    between atoms: C29_34  and  C31_36
REMARK                            x       y       z     vdW  Elec       q    Type
REMARK                         _______ _______ _______ _____ _____    ______ ____
ROOT
ATOM      4  C   UNL     1      -0.592  -2.239   0.553  0.00  0.00    -0.231 A 
ATOM      5  C   UNL     1       0.284  -3.155  -0.064  0.00  0.00    +0.197 A 
ATOM      8  C   UNL     1      -0.195  -4.360  -0.544  0.00  0.00    -0.130 A 
ATOM     25  C   UNL     1      -1.542  -4.678  -0.428  0.00  0.00    +0.190 A 
ATOM     28  C   UNL     1      -2.424  -3.775   0.172  0.00  0.00    -0.190 A 
ATOM     29  C   UNL     1      -3.865  -4.077   0.304  0.00  0.00    +0.070 C 
ATOM     30  C   UNL     1      -4.689  -3.093   0.644  0.00  0.00    -0.086 C 
ATOM     31  C   UNL     1      -4.158  -1.697   0.838  0.00  0.00    +0.158 C 
ATOM     38  C   UNL     1      -5.034  -0.961   1.853  0.00  0.00    +0.074 C 
ATOM     39  O   UNL     1      -2.813  -1.731   1.314  0.00  0.00    -0.300 OA
ATOM     40  C   UNL     1      -1.950  -2.563   0.684  0.00  0.00    +0.177 A 
ENDROOT
BRANCH   4   3
ATOM      3  C   UNL     1      -0.088  -0.963   1.058  0.00  0.00    +0.439 C 
ATOM     41  O   UNL     1      -0.165   0.035   0.372  0.00  0.00    -0.441 OA
BRANCH   3   2
ATOM      1  C   UNL     1       1.542   0.258   2.474  0.00  0.00    +0.041 C 
ATOM      2  C   UNL     1       0.528  -0.887   2.432  0.00  0.00    -0.045 C 
ATOM     42  C   UNL     1      -0.568  -0.636   3.469  0.00  0.00    +0.051 C 
ENDBRANCH   3   2
ENDBRANCH   4   3
BRANCH   5   6
ATOM      6  O   UNL     1       1.600  -2.852  -0.189  0.00  0.00    -0.441 OA
ATOM      7  H   UNL     1       2.153  -3.204   0.523  0.00  0.00    +0.381 HD
ENDBRANCH   5   6
BRANCH  25  26
ATOM     26  O   UNL     1      -2.001  -5.864  -0.897  0.00  0.00    -0.454 OA
ATOM     27  H   UNL     1      -1.979  -6.580  -0.247  0.00  0.00    +0.377 HD
ENDBRANCH  25  26
BRANCH   8   9
ATOM      9  C   UNL     1       0.751  -5.335  -1.196  0.00  0.00    +0.157 C 
BRANCH   9  10
ATOM     10  C   UNL     1       0.920  -4.975  -2.649  0.00  0.00    -0.472 C 
ATOM     11  C   UNL     1      -0.018  -5.428  -3.583  0.00  0.00    +0.403 C 
ATOM     12  O   UNL     1      -0.964  -6.106  -3.231  0.00  0.00    -0.529 OA
ATOM     13  C   UNL     1       0.165  -5.058  -5.038  0.00  0.00    -0.092 C 
ATOM     14  C   UNL     1       0.244  -6.357  -5.843  0.00  0.00    +0.042 C 
ATOM     15  C   UNL     1      -1.091  -4.312  -5.492  0.00  0.00    +0.040 C 
ATOM     16  C   UNL     1       1.363  -4.212  -5.407  0.00  0.00    +0.061 C 
ATOM     17  C   UNL     1       2.212  -3.826  -4.428  0.00  0.00    -0.187 C 
ATOM     23  C   UNL     1       1.980  -4.211  -3.029  0.00  0.00    +0.343 C 
ATOM     24  O   UNL     1       2.853  -3.796  -2.086  0.00  0.00    -0.616 OA
BRANCH  17  18
ATOM     18  C   UNL     1       3.383  -3.003  -4.767  0.00  0.00    +0.383 C 
ATOM     22  O   UNL     1       4.197  -2.725  -3.912  0.00  0.00    -0.411 OA
BRANCH  18  19
ATOM     19  C   UNL     1       3.572  -2.507  -6.177  0.00  0.00    -0.056 C 
ATOM     20  C   UNL     1       5.060  -2.269  -6.440  0.00  0.00    +0.038 C 
ATOM     21  C   UNL     1       2.806  -1.195  -6.362  0.00  0.00    +0.043 C 
ENDBRANCH  18  19
ENDBRANCH  17  18
ENDBRANCH   9  10
ENDBRANCH   8   9
BRANCH  31  32
ATOM     32  C   UNL     1      -4.201  -0.951  -0.498  0.00  0.00    +0.013 C 
BRANCH  32  33
ATOM     33  C   UNL     1      -3.691   0.477  -0.301  0.00  0.00    +0.060 C 
BRANCH  33  34
ATOM     34  C   UNL     1      -3.733   1.212  -1.616  0.00  0.00    -0.039 C 
ATOM     35  C   UNL     1      -4.346   2.366  -1.702  0.00  0.00    -0.151 C 
ATOM     36  C   UNL     1      -4.536   3.020  -3.047  0.00  0.00    +0.067 C 
ATOM     37  C   UNL     1      -4.861   3.041  -0.457  0.00  0.00    +0.068 C 
ENDBRANCH  33  34
ENDBRANCH  32  33
ENDBRANCH  31  32
TORSDOF 11
