REMARK  Name = ZINC14641747
REMARK  15 active torsions:
REMARK  status: ('A' for Active; 'I' for Inactive)
REMARK    1  A    between atoms: C1_1  and  C2_2
REMARK    2  A    between atoms: C2_2  and  C25_32
REMARK    3  A    between atoms: C3_3  and  C4_4
REMARK    4  A    between atoms: C4_4  and  C5_5
REMARK    5  A    between atoms: C6_6  and  O7_31
REMARK    6  A    between atoms: C7_7  and  C20_26
REMARK    7  A    between atoms: C10_10  and  O1_11
REMARK    8  A    between atoms: C14_16  and  O6_24
REMARK    9  A    between atoms: C15_17  and  O5_22
REMARK   10  A    between atoms: C16_18  and  O4_21
REMARK   11  A    between atoms: O5_22  and  C18_23
REMARK   12  A    between atoms: O6_24  and  C19_25
REMARK   13  A    between atoms: C20_26  and  C21_27
REMARK   14  A    between atoms: C22_28  and  C23_29
REMARK   15  A    between atoms: C22_28  and  C24_30
REMARK                            x       y       z     vdW  Elec       q    Type
REMARK                         _______ _______ _______ _____ _____    ______ ____
ROOT
ATOM      6  C   UNL     1       0.542  -3.340   9.214  0.00  0.00    -0.162 A 
ATOM      7  C   UNL     1      -0.405  -4.201   8.670  0.00  0.00    +0.200 A 
ATOM     10  C   UNL     1      -1.259  -3.770   7.667  0.00  0.00    -0.137 A 
ATOM     16  C   UNL     1      -1.179  -2.467   7.193  0.00  0.00    +0.195 A 
ATOM     17  C   UNL     1      -0.223  -1.596   7.744  0.00  0.00    -0.267 A 
ATOM     18  C   UNL     1      -0.144  -0.216   7.237  0.00  0.00    +0.442 A 
ATOM     19  C   UNL     1      -1.092   0.157   6.170  0.00  0.00    -0.179 A 
ATOM     20  C   UNL     1      -1.089   1.446   5.630  0.00  0.00    +0.039 A 
ATOM     21  C   UNL     1      -1.984   1.773   4.633  0.00  0.00    +0.099 A 
ATOM     24  C   UNL     1      -2.890   0.819   4.166  0.00  0.00    +0.107 A 
ATOM     27  C   UNL     1      -2.903  -0.460   4.701  0.00  0.00    +0.103 A 
ATOM     30  C   UNL     1      -2.000  -0.806   5.704  0.00  0.00    +0.117 A 
ATOM     31  O   UNL     1       0.666   0.580   7.678  0.00  0.00    -0.430 OA
ATOM     32  O   UNL     1      -2.013  -2.055   6.217  0.00  0.00    -0.211 OA
ATOM     33  C   UNL     1       0.638  -2.039   8.758  0.00  0.00    +0.220 A 
ENDROOT
BRANCH   7   8
ATOM      8  O   UNL     1      -0.493  -5.477   9.124  0.00  0.00    -0.479 OA
ATOM      9  H   UNL     1       0.067  -6.104   8.646  0.00  0.00    +0.399 HD
ENDBRANCH   7   8
BRANCH  21  22
ATOM     22  O   UNL     1      -1.984   3.027   4.104  0.00  0.00    -0.298 OA
ATOM     23  C   UNL     1      -1.031   3.953   4.630  0.00  0.00    +0.249 C 
ENDBRANCH  21  22
BRANCH  24  25
ATOM     25  O   UNL     1      -3.769   1.149   3.184  0.00  0.00    -0.309 OA
ATOM     26  C   UNL     1      -3.346   0.935   1.835  0.00  0.00    +0.235 C 
ENDBRANCH  24  25
BRANCH  27  28
ATOM     28  O   UNL     1      -3.794  -1.379   4.241  0.00  0.00    -0.462 OA
ATOM     29  H   UNL     1      -3.469  -1.906   3.498  0.00  0.00    +0.391 HD
ENDBRANCH  27  28
BRANCH  33  34
ATOM     34  O   UNL     1       1.560  -1.196   9.287  0.00  0.00    -0.467 OA
ATOM     35  H   UNL     1       1.242  -0.694  10.050  0.00  0.00    +0.398 HD
ENDBRANCH  33  34
BRANCH   6   5
ATOM      5  C   UNL     1       1.463  -3.826  10.304  0.00  0.00    +0.134 C 
BRANCH   5   4
ATOM      1  C   UNL     1       3.992  -2.785  10.992  0.00  0.00    +0.076 C 
ATOM      2  C   UNL     1       3.888  -3.961  10.056  0.00  0.00    -0.117 C 
ATOM      3  C   UNL     1       5.138  -4.630   9.544  0.00  0.00    +0.072 C 
ATOM      4  C   UNL     1       2.711  -4.402   9.687  0.00  0.00    -0.063 C 
ENDBRANCH   5   4
ENDBRANCH   6   5
BRANCH  10  11
ATOM     11  C   UNL     1      -2.277  -4.718   7.088  0.00  0.00    +0.137 C 
BRANCH  11  12
ATOM     12  C   UNL     1      -1.675  -5.448   5.915  0.00  0.00    -0.056 C 
ATOM     13  C   UNL     1      -1.673  -6.757   5.890  0.00  0.00    -0.126 C 
ATOM     14  C   UNL     1      -1.071  -7.487   4.717  0.00  0.00    +0.073 C 
ATOM     15  C   UNL     1      -2.271  -7.534   7.034  0.00  0.00    +0.077 C 
ENDBRANCH  11  12
ENDBRANCH  10  11
TORSDOF 9
