REMARK  Name = ZINC05854599
REMARK  7 active torsions:
REMARK  status: ('A' for Active; 'I' for Inactive)
REMARK    1  A    between atoms: C1_1  and  C2_2
REMARK    2  A    between atoms: C2_2  and  C25_31
REMARK    3  A    between atoms: C3_3  and  C4_4
REMARK    4  A    between atoms: C4_4  and  C5_5
REMARK    5  A    between atoms: C6_6  and  O4_30
REMARK    6  A    between atoms: C20_25  and  C23_28
REMARK    7  A    between atoms: C20_25  and  C24_29
REMARK                            x       y       z     vdW  Elec       q    Type
REMARK                         _______ _______ _______ _____ _____    ______ ____
ROOT
ATOM      6  C   UNL     1      -0.864  -0.562   3.381  0.00  0.00    -0.127 A 
ATOM      7  C   UNL     1      -2.181  -0.132   3.398  0.00  0.00    +0.150 A 
ATOM     10  C   UNL     1      -3.099  -0.712   4.262  0.00  0.00    -0.033 A 
ATOM     11  C   UNL     1      -2.692  -1.721   5.119  0.00  0.00    +0.087 A 
ATOM     12  C   UNL     1      -1.390  -2.144   5.104  0.00  0.00    -0.166 A 
ATOM     13  C   UNL     1      -0.841  -3.205   5.998  0.00  0.00    +0.225 C 
ATOM     14  O   UNL     1      -1.480  -3.457   7.243  0.00  0.00    -0.275 OA
ATOM     15  C   UNL     1      -0.506  -3.913   8.082  0.00  0.00    +0.137 A 
ATOM     16  C   UNL     1       0.767  -3.457   7.671  0.00  0.00    -0.183 A 
ATOM     17  C   UNL     1       1.914  -3.806   8.342  0.00  0.00    +0.127 A 
ATOM     18  C   UNL     1       1.775  -4.646   9.452  0.00  0.00    -0.159 A 
ATOM     19  C   UNL     1       0.515  -5.093   9.874  0.00  0.00    +0.172 A 
ATOM     20  O   UNL     1       0.434  -5.862  10.993  0.00  0.00    -0.302 OA
ATOM     21  C   UNL     1       1.508  -6.766  11.246  0.00  0.00    +0.147 C 
ATOM     22  C   UNL     1       1.429  -7.931  10.258  0.00  0.00    +0.034 C 
ATOM     23  C   UNL     1       1.388  -7.306  12.672  0.00  0.00    +0.083 C 
ATOM     24  C   UNL     1       2.834  -6.070  11.089  0.00  0.00    -0.055 C 
ATOM     25  C   UNL     1       2.964  -5.070  10.222  0.00  0.00    +0.044 C 
ATOM     26  C   UNL     1      -0.641  -4.730   9.199  0.00  0.00    -0.005 A 
ATOM     27  C   UNL     1       0.513  -2.601   6.487  0.00  0.00    -0.014 C 
ATOM     28  C   UNL     1       1.458  -2.637   5.313  0.00  0.00    +0.275 C 
ATOM     29  O   UNL     1       0.819  -2.046   4.175  0.00  0.00    -0.316 OA
ATOM     30  C   UNL     1      -0.453  -1.583   4.222  0.00  0.00    +0.160 A 
ENDROOT
BRANCH   7   8
ATOM      8  O   UNL     1      -2.577   0.865   2.564  0.00  0.00    -0.490 OA
ATOM      9  H   UNL     1      -2.895   0.556   1.704  0.00  0.00    +0.393 HD
ENDBRANCH   7   8
BRANCH   6   5
ATOM      5  C   UNL     1       0.123   0.078   2.439  0.00  0.00    +0.127 C 
BRANCH   5   4
ATOM      1  C   UNL     1      -0.166   1.491   0.016  0.00  0.00    +0.075 C 
ATOM      2  C   UNL     1      -0.072  -0.013   0.007  0.00  0.00    -0.132 C 
ATOM      3  C   UNL     1      -0.200  -0.768  -1.291  0.00  0.00    +0.072 C 
ATOM      4  C   UNL     1       0.121  -0.664   1.128  0.00  0.00    -0.050 C 
ENDBRANCH   5   4
ENDBRANCH   6   5
TORSDOF 3
