REMARK  Name = ZINC95486324
REMARK  6 active torsions:
REMARK  status: ('A' for Active; 'I' for Inactive)
REMARK    1  A    between atoms: C1_1  and  C2_2
REMARK    2  A    between atoms: C3_3  and  O7_28
REMARK    3  A    between atoms: C5_6  and  C7_9
REMARK    4  A    between atoms: C8_10  and  O6_27
REMARK    5  A    between atoms: C12_14  and  O3_15
REMARK    6  A    between atoms: C15_19  and  C16_21
REMARK                            x       y       z     vdW  Elec       q    Type
REMARK                         _______ _______ _______ _____ _____    ______ ____
ROOT
ATOM      8  C   UNL     1       0.281  -4.236  -0.023  0.00  0.00    -0.113 A 
ATOM      9  C   UNL     1       0.333  -4.929  -1.240  0.00  0.00    +0.209 A 
ATOM     12  C   UNL     1       0.437  -6.309  -1.260  0.00  0.00    -0.023 A 
ATOM     13  C   UNL     1       0.490  -7.021  -0.071  0.00  0.00    +0.189 A 
ATOM     14  C   UNL     1       0.438  -6.334   1.155  0.00  0.00    -0.263 A 
ATOM     15  C   UNL     1       0.496  -7.116   2.402  0.00  0.00    +0.424 A 
ATOM     16  C   UNL     1       0.601  -8.523   2.284  0.00  0.00    -0.146 A 
ATOM     17  C   UNL     1       0.644  -9.091   1.050  0.00  0.00    +0.208 A 
ATOM     24  O   UNL     1       0.455  -6.572   3.494  0.00  0.00    -0.452 OA
ATOM     25  O   UNL     1       0.590  -8.368  -0.079  0.00  0.00    -0.217 OA
ATOM     26  C   UNL     1       0.340  -4.938   1.179  0.00  0.00    +0.238 A 
ENDROOT
BRANCH   8   7
ATOM      1  C   UNL     1      -0.018   1.503   0.010  0.00  0.00    +0.182 C 
ATOM      2  C   UNL     1       0.002  -0.004   0.002  0.00  0.00    +0.076 A 
ATOM      3  C   UNL     1      -1.169  -0.678   0.004  0.00  0.00    -0.052 A 
ATOM      6  C   UNL     1      -1.145  -2.099  -0.004  0.00  0.00    +0.387 A 
ATOM      7  C   UNL     1       0.170  -2.757  -0.015  0.00  0.00    -0.225 A 
ATOM     29  C   UNL     1       1.283  -1.972  -0.016  0.00  0.00    +0.336 A 
ATOM     30  O   UNL     1      -2.178  -2.750  -0.003  0.00  0.00    -0.478 OA
ATOM     31  O   UNL     1       1.179  -0.639  -0.013  0.00  0.00    -0.191 OA
BRANCH   3   4
ATOM      4  O   UNL     1      -2.353  -0.006   0.014  0.00  0.00    -0.455 OA
ATOM      5  H   UNL     1      -3.131  -0.581   0.015  0.00  0.00    +0.409 HD
ENDBRANCH   3   4
ENDBRANCH   8   7
BRANCH  17  18
ATOM     18  C   UNL     1       0.754 -10.560   0.948  0.00  0.00    -0.075 A 
ATOM     19  C   UNL     1       0.807 -11.341   2.104  0.00  0.00    +0.056 A 
ATOM     20  C   UNL     1       0.910 -12.713   2.001  0.00  0.00    +0.014 A 
ATOM     21  C   UNL     1       0.961 -13.315   0.756  0.00  0.00    +0.038 A 
ATOM     22  C   UNL     1       0.909 -12.547  -0.393  0.00  0.00    +0.010 A 
ATOM     23  C   UNL     1       0.801 -11.174  -0.305  0.00  0.00    +0.056 A 
ENDBRANCH  17  18
BRANCH   9  10
ATOM     10  O   UNL     1       0.281  -4.241  -2.409  0.00  0.00    -0.479 OA
ATOM     11  H   UNL     1       1.147  -3.975  -2.748  0.00  0.00    +0.401 HD
ENDBRANCH   9  10
BRANCH  26  27
ATOM     27  O   UNL     1       0.295  -4.275   2.362  0.00  0.00    -0.469 OA
ATOM     28  H   UNL     1      -0.598  -4.149   2.709  0.00  0.00    +0.404 HD
ENDBRANCH  26  27
TORSDOF 5
