REMARK  Name = ZINC95486153
REMARK  10 active torsions:
REMARK  status: ('A' for Active; 'I' for Inactive)
REMARK    1  A    between atoms: C1_1  and  C2_2
REMARK    2  A    between atoms: C6_6  and  C21_25
REMARK    3  A    between atoms: C6_6  and  C22_26
REMARK    4  A    between atoms: C7_7  and  C20_24
REMARK    5  A    between atoms: C11_11  and  C12_13
REMARK    6  A    between atoms: C12_13  and  C13_14
REMARK    7  A    between atoms: C13_14  and  C14_15
REMARK    8  A    between atoms: C15_16  and  C16_17
REMARK    9  A    between atoms: C15_16  and  C18_20
REMARK   10  A    between atoms: C16_17  and  C17_18
REMARK                            x       y       z     vdW  Elec       q    Type
REMARK                         _______ _______ _______ _____ _____    ______ ____
ROOT
ATOM      1  C   UNL     1      -0.171   1.511   0.581  0.00  0.00    +0.018 C 
ATOM      2  C   UNL     1      -0.020  -0.002   0.318  0.00  0.00    -0.022 C 
ATOM      3  C   UNL     1      -1.385  -0.643   0.534  0.00  0.00    -0.001 C 
ATOM      4  C   UNL     1      -1.938  -0.582   1.963  0.00  0.00    +0.016 C 
ATOM      5  C   UNL     1      -0.967  -1.315   2.871  0.00  0.00    +0.010 C 
ATOM      6  C   UNL     1       0.457  -0.688   2.750  0.00  0.00    -0.050 C 
ATOM      7  C   UNL     1       0.407   0.663   3.462  0.00  0.00    +0.017 C 
ATOM      8  C   UNL     1       1.363  -1.549   3.592  0.00  0.00    +0.015 C 
ATOM      9  C   UNL     1       0.392  -0.074  -1.107  0.00  0.00    +0.012 C 
ATOM     19  C   UNL     1       0.899  -1.455  -1.485  0.00  0.00    +0.030 C 
ATOM     20  C   UNL     1       0.963  -1.867  -2.939  0.00  0.00    +0.175 C 
ATOM     21  O   UNL     1       0.044  -2.377  -1.990  0.00  0.00    -0.318 OA
ATOM     22  C   UNL     1       1.963  -1.987  -0.507  0.00  0.00    +0.036 C 
ATOM     23  C   UNL     1       1.388  -1.987   0.932  0.00  0.00    +0.032 C 
ATOM     24  C   UNL     1       0.951  -0.614   1.333  0.00  0.00    -0.015 C 
ATOM     25  C   UNL     1       2.272   0.306   1.458  0.00  0.00    +0.014 C 
ENDROOT
BRANCH   9  10
ATOM     10  C   UNL     1       1.262   1.006  -1.526  0.00  0.00    +0.055 C 
BRANCH  10  11
ATOM     11  C   UNL     1       1.525   0.895  -3.029  0.00  0.00    +0.047 C 
BRANCH  11  12
ATOM     12  C   UNL     1       2.430   2.018  -3.465  0.00  0.00    +0.083 C 
ATOM     13  C   UNL     1       2.019   2.886  -4.391  0.00  0.00    -0.225 C 
BRANCH  13  14
ATOM     14  C   UNL     1       0.641   2.836  -4.880  0.00  0.00    +0.465 C 
ATOM     15  O   UNL     1       0.287   3.575  -5.774  0.00  0.00    -0.450 OA
ENDBRANCH  13  14
BRANCH  13  16
ATOM     16  C   UNL     1       2.973   3.919  -4.933  0.00  0.00    +0.061 C 
BRANCH  16  17
ATOM     17  C   UNL     1       3.596   3.407  -6.206  0.00  0.00    +0.443 C 
ATOM     18  O   UNL     1       3.524   4.061  -7.219  0.00  0.00    -0.450 OA
ENDBRANCH  16  17
ENDBRANCH  13  16
ENDBRANCH  11  12
ENDBRANCH  10  11
ENDBRANCH   9  10
TORSDOF 6
