REMARK  Name = ZINC00120283
REMARK  0 active torsions:
REMARK  status: ('A' for Active; 'I' for Inactive)
REMARK                            x       y       z     vdW  Elec       q    Type
REMARK                         _______ _______ _______ _____ _____    ______ ____
ROOT
ATOM      1  C   UNL     1      -0.018   1.462   0.010  0.00  0.00    +0.162 A 
ATOM      2  C   UNL     1       1.169   2.120   0.002  0.00  0.00    -0.079 A 
ATOM      3  C   UNL     1       2.377   1.389  -0.013  0.00  0.00    +0.511 A 
ATOM      4  O   UNL     1       2.390   0.048  -0.020  0.00  0.00    -0.270 OA
ATOM      5  C   UNL     1       1.245  -0.671  -0.013  0.00  0.00    +0.170 A 
ATOM      6  C   UNL     1       1.288  -2.054  -0.022  0.00  0.00    +0.025 A 
ATOM      7  C   UNL     1       0.110  -2.788  -0.015  0.00  0.00    +0.107 A 
ATOM      8  O   UNL     1      -0.149  -4.111  -0.020  0.00  0.00    -0.189 OA
ATOM      9  C   UNL     1      -1.474  -4.342  -0.010  0.00  0.00    +0.230 A 
ATOM     10  C   UNL     1      -2.147  -3.184   0.003  0.00  0.00    -0.036 A 
ATOM     11  C   UNL     1      -1.132  -2.121   0.001  0.00  0.00    -0.153 A 
ATOM     12  C   UNL     1      -1.186  -0.734   0.009  0.00  0.00    +0.150 A 
ATOM     13  O   UNL     1       3.434   1.993  -0.020  0.00  0.00    -0.457 OA
ATOM     14  C   UNL     1       0.002  -0.004   0.002  0.00  0.00    -0.171 A 
ENDROOT
TORSDOF 0
