REMARK  Name = ZINC04098248
REMARK  9 active torsions:
REMARK  status: ('A' for Active; 'I' for Inactive)
REMARK    1  A    between atoms: C1_1  and  C2_2
REMARK    2  A    between atoms: C2_2  and  O2_4
REMARK    3  A    between atoms: O2_4  and  C3_5
REMARK    4  A    between atoms: C5_8  and  C17_23
REMARK    5  A    between atoms: C6_9  and  C16_20
REMARK    6  A    between atoms: C6_9  and  O4_22
REMARK    7  A    between atoms: C7_10  and  C15_19
REMARK    8  A    between atoms: C9_13  and  C13_17
REMARK    9  A    between atoms: C9_13  and  C14_18
REMARK                            x       y       z     vdW  Elec       q    Type
REMARK                         _______ _______ _______ _____ _____    ______ ____
ROOT
ATOM      4  C   UNL     1       1.056   3.413  -0.200  0.00  0.00    +0.223 C 
ATOM      5  C   UNL     1       2.362   4.146  -0.041  0.00  0.00    +0.075 C 
ATOM      6  C   UNL     1       3.536   3.569  -0.195  0.00  0.00    -0.224 C 
ATOM      9  C   UNL     1       3.734   2.123  -0.530  0.00  0.00    +0.125 C 
ATOM     14  C   UNL     1       2.433   1.480  -1.050  0.00  0.00    -0.015 C 
ATOM     15  C   UNL     1       2.238   1.901  -2.507  0.00  0.00    +0.052 C 
ATOM     16  C   UNL     1       2.635  -0.040  -0.981  0.00  0.00    +0.034 C 
ATOM     17  C   UNL     1       1.327  -0.772  -1.275  0.00  0.00    +0.010 C 
ATOM     18  C   UNL     1       0.306  -0.402  -0.201  0.00  0.00    +0.022 C 
ATOM     19  C   UNL     1       0.015   1.103  -0.257  0.00  0.00    -0.049 C 
ATOM     20  C   UNL     1      -0.885   1.424   0.955  0.00  0.00    +0.017 C 
ATOM     21  C   UNL     1      -0.791   1.393  -1.520  0.00  0.00    +0.033 C 
ATOM     22  C   UNL     1       1.292   1.910  -0.140  0.00  0.00    +0.043 C 
ENDROOT
BRANCH   6   7
ATOM      7  C   UNL     1       4.731   4.398  -0.019  0.00  0.00    +0.475 C 
ATOM      8  O   UNL     1       5.833   3.909  -0.150  0.00  0.00    -0.447 OA
ENDBRANCH   6   7
BRANCH   9  10
ATOM     10  O   UNL     1       4.175   1.430   0.638  0.00  0.00    -0.528 OA
ATOM     11  H   UNL     1       4.991   1.783   1.020  0.00  0.00    +0.383 HD
ENDBRANCH   9  10
BRANCH   9  12
ATOM     12  C   UNL     1       4.794   2.015  -1.599  0.00  0.00    +0.423 C 
ATOM     13  O   UNL     1       5.771   1.331  -1.413  0.00  0.00    -0.428 OA
ENDBRANCH   9  12
BRANCH   4   3
ATOM      3  O   UNL     1       0.436   3.855  -1.428  0.00  0.00    -0.328 OA
BRANCH   3   2
ATOM      1  C   UNL     1      -1.025   5.464  -2.600  0.00  0.00    +0.157 C 
ATOM      2  C   UNL     1      -0.345   4.944  -1.359  0.00  0.00    +0.455 C 
ATOM     23  O   UNL     1      -0.504   5.507  -0.302  0.00  0.00    -0.509 OA
ENDBRANCH   3   2
ENDBRANCH   4   3
TORSDOF 5
