REMARK  Name = ZINC95486005
REMARK  15 active torsions:
REMARK  status: ('A' for Active; 'I' for Inactive)
REMARK    1  A    between atoms: C1_1  and  C2_2
REMARK    2  A    between atoms: C6_7  and  C34_63
REMARK    3  A    between atoms: C7_9  and  C33_62
REMARK    4  A    between atoms: C16_23  and  C32_60
REMARK    5  A    between atoms: C19_26  and  C21_29
REMARK    6  A    between atoms: C22_31  and  O6_44
REMARK    7  A    between atoms: C23_33  and  O5_43
REMARK    8  A    between atoms: C24_35  and  O4_42
REMARK    9  A    between atoms: C25_37  and  C26_40
REMARK   10  A    between atoms: C26_40  and  O3_41
REMARK   11  A    between atoms: O6_44  and  C27_45
REMARK   12  A    between atoms: C28_47  and  O11_59
REMARK   13  A    between atoms: C29_49  and  O10_58
REMARK   14  A    between atoms: C30_51  and  O9_57
REMARK   15  A    between atoms: C31_53  and  O8_56
REMARK                            x       y       z     vdW  Elec       q    Type
REMARK                         _______ _______ _______ _____ _____    ______ ____
ROOT
ATOM     21  C   UNL     1      -7.503  -4.962   6.460  0.00  0.00    +0.174 C 
ATOM     22  C   UNL     1      -8.545  -3.876   6.740  0.00  0.00    +0.160 C 
ATOM     38  C   UNL     1      -9.673  -3.983   5.709  0.00  0.00    +0.161 C 
ATOM     41  C   UNL     1     -10.272  -5.392   5.769  0.00  0.00    +0.117 C 
ATOM     44  C   UNL     1      -9.163  -6.419   5.526  0.00  0.00    +0.129 C 
ATOM     48  O   UNL     1      -8.131  -6.244   6.499  0.00  0.00    -0.337 OA
ENDROOT
BRANCH  21  20
ATOM      1  C   UNL     1       0.019   1.447  -0.024  0.00  0.00    +0.026 C 
ATOM      2  C   UNL     1       0.031  -0.083  -0.024  0.00  0.00    -0.050 C 
ATOM      3  C   UNL     1      -1.408  -0.606  -0.007  0.00  0.00    +0.025 C 
ATOM      4  C   UNL     1      -1.381  -2.137   0.058  0.00  0.00    +0.000 C 
ATOM      5  C   UNL     1      -0.576  -2.574   1.279  0.00  0.00    +0.270 C 
ATOM      6  O   UNL     1       0.734  -2.017   1.243  0.00  0.00    -0.353 OA
ATOM      7  C   UNL     1      -0.485  -4.118   1.311  0.00  0.00    -0.006 C 
ATOM      8  C   UNL     1       0.974  -4.576   1.276  0.00  0.00    +0.051 C 
ATOM      9  C   UNL     1      -1.137  -4.472   2.653  0.00  0.00    -0.092 C 
ATOM     10  C   UNL     1      -0.086  -4.522   3.764  0.00  0.00    +0.049 C 
ATOM     11  C   UNL     1      -2.001  -5.720   2.657  0.00  0.00    +0.035 C 
ATOM     12  C   UNL     1      -2.647  -5.833   4.049  0.00  0.00    +0.033 C 
ATOM     13  C   UNL     1      -3.461  -4.588   4.374  0.00  0.00    +0.008 C 
ATOM     14  C   UNL     1      -2.600  -3.317   4.265  0.00  0.00    -0.005 C 
ATOM     15  C   UNL     1      -3.482  -2.135   4.589  0.00  0.00    +0.362 C 
ATOM     16  O   UNL     1      -3.571  -1.196   3.835  0.00  0.00    -0.437 OA
ATOM     17  C   UNL     1      -4.252  -2.170   5.891  0.00  0.00    +0.021 C 
ATOM     18  C   UNL     1      -5.021  -3.493   5.987  0.00  0.00    +0.000 C 
ATOM     19  C   UNL     1      -5.658  -3.593   7.375  0.00  0.00    +0.041 C 
ATOM     20  C   UNL     1      -6.403  -4.899   7.521  0.00  0.00    +0.027 C 
ATOM     49  C   UNL     1      -5.435  -6.068   7.323  0.00  0.00    +0.030 C 
ATOM     50  C   UNL     1      -4.819  -5.982   5.926  0.00  0.00    +0.023 C 
ATOM     51  C   UNL     1      -4.054  -4.664   5.778  0.00  0.00    -0.048 C 
ATOM     52  C   UNL     1      -2.929  -4.603   6.813  0.00  0.00    +0.033 C 
ATOM     53  C   UNL     1      -2.084  -3.253   2.846  0.00  0.00    +0.163 C 
ATOM     54  O   UNL     1      -1.256  -2.154   2.485  0.00  0.00    -0.358 OA
ATOM     55  C   UNL     1       0.766  -0.588   1.221  0.00  0.00    +0.218 C 
ENDBRANCH  21  20
BRANCH  38  39
ATOM     39  O   UNL     1     -10.686  -3.019   6.006  0.00  0.00    -0.550 OA
ATOM     40  H   UNL     1     -11.433  -3.031   5.392  0.00  0.00    +0.380 HD
ENDBRANCH  38  39
BRANCH  41  42
ATOM     42  O   UNL     1     -10.853  -5.610   7.056  0.00  0.00    -0.523 OA
ATOM     43  H   UNL     1     -11.252  -6.484   7.165  0.00  0.00    +0.370 HD
ENDBRANCH  41  42
BRANCH  22  23
ATOM     23  O   UNL     1      -9.078  -4.053   8.054  0.00  0.00    -0.306 OA
BRANCH  23  24
ATOM     24  C   UNL     1      -9.495  -2.838   8.681  0.00  0.00    +0.314 C 
ATOM     25  C   UNL     1     -10.159  -3.159  10.023  0.00  0.00    +0.182 C 
ATOM     28  C   UNL     1     -10.548  -1.849  10.716  0.00  0.00    +0.201 C 
ATOM     31  C   UNL     1      -9.297  -0.980  10.879  0.00  0.00    +0.128 C 
ATOM     34  C   UNL     1      -8.667  -0.744   9.505  0.00  0.00    +0.308 C 
ATOM     37  O   UNL     1      -8.357  -2.002   8.901  0.00  0.00    -0.417 OA
BRANCH  25  26
ATOM     26  O   UNL     1      -9.244  -3.884  10.848  0.00  0.00    -0.516 OA
ATOM     27  H   UNL     1      -8.952  -4.723  10.467  0.00  0.00    +0.375 HD
ENDBRANCH  25  26
BRANCH  28  29
ATOM     29  O   UNL     1     -11.104  -2.136  12.001  0.00  0.00    -0.533 OA
ATOM     30  H   UNL     1     -11.373  -1.351  12.497  0.00  0.00    +0.379 HD
ENDBRANCH  28  29
BRANCH  31  32
ATOM     32  O   UNL     1      -8.360  -1.645  11.728  0.00  0.00    -0.512 OA
ATOM     33  H   UNL     1      -7.543  -1.150  11.876  0.00  0.00    +0.375 HD
ENDBRANCH  31  32
BRANCH  34  35
ATOM     35  O   UNL     1      -7.469   0.020   9.655  0.00  0.00    -0.539 OA
ATOM     36  H   UNL     1      -7.015   0.208   8.822  0.00  0.00    +0.391 HD
ENDBRANCH  34  35
ENDBRANCH  23  24
ENDBRANCH  22  23
BRANCH  44  45
ATOM     45  C   UNL     1      -9.741  -7.831   5.643  0.00  0.00    +0.201 C 
BRANCH  45  46
ATOM     46  O   UNL     1      -8.735  -8.787   5.303  0.00  0.00    -0.561 OA
ATOM     47  H   UNL     1      -9.032  -9.706   5.355  0.00  0.00    +0.383 HD
ENDBRANCH  45  46
ENDBRANCH  44  45
TORSDOF 11
