REMARK  Name = ZINC95486214
REMARK  5 active torsions:
REMARK  status: ('A' for Active; 'I' for Inactive)
REMARK    1  A    between atoms: C1_1  and  C2_2
REMARK    2  A    between atoms: C2_2  and  C3_3
REMARK    3  A    between atoms: C4_4  and  C5_5
REMARK    4  A    between atoms: C5_5  and  C6_6
REMARK    5  A    between atoms: C6_6  and  C7_7
REMARK                            x       y       z     vdW  Elec       q    Type
REMARK                         _______ _______ _______ _____ _____    ______ ____
ROOT
ATOM      7  C   UNL     1       4.640  -1.973  -3.527  0.00  0.00    -0.017 C 
ATOM      8  C   UNL     1       4.160  -1.171  -4.744  0.00  0.00    +0.036 C 
ATOM      9  C   UNL     1       4.747  -1.826  -5.993  0.00  0.00    +0.107 C 
ATOM     10  C   UNL     1       6.239  -2.010  -5.845  0.00  0.00    +0.219 A 
ATOM     11  C   UNL     1       6.946  -2.121  -7.000  0.00  0.00    -0.187 A 
ATOM     12  C   UNL     1       8.338  -2.347  -6.986  0.00  0.00    +0.418 A 
ATOM     13  C   UNL     1       8.984  -2.511  -5.672  0.00  0.00    -0.194 A 
ATOM     14  C   UNL     1      10.344  -2.799  -5.557  0.00  0.00    +0.108 A 
ATOM     15  C   UNL     1      10.899  -2.949  -4.316  0.00  0.00    -0.026 A 
ATOM     16  C   UNL     1      10.119  -2.819  -3.175  0.00  0.00    +0.074 A 
ATOM     17  C   UNL     1       8.774  -2.532  -3.269  0.00  0.00    -0.042 A 
ATOM     18  C   UNL     1       8.192  -2.370  -4.524  0.00  0.00    +0.186 A 
ATOM     19  O   UNL     1       8.982  -2.404  -8.020  0.00  0.00    -0.502 OA
ATOM     20  N   UNL     1       6.844  -2.064  -4.635  0.00  0.00    -0.492 N 
ATOM     21  C   UNL     1       6.144  -1.759  -3.382  0.00  0.00    +0.275 C 
ENDROOT
BRANCH   7   6
ATOM      6  C   UNL     1       3.924  -1.480  -2.268  0.00  0.00    +0.034 C 
BRANCH   6   5
ATOM      5  C   UNL     1       2.430  -1.795  -2.374  0.00  0.00    +0.052 C 
BRANCH   5   4
ATOM      3  C   UNL     1       0.707  -0.490  -1.238  0.00  0.00    -0.046 C 
ATOM      4  C   UNL     1       1.725  -1.309  -1.134  0.00  0.00    -0.056 C 
BRANCH   3   2
ATOM      1  C   UNL     1      -0.019   1.526   0.010  0.00  0.00    +0.017 C 
ATOM      2  C   UNL     1       0.002  -0.004   0.002  0.00  0.00    +0.037 C 
ENDBRANCH   3   2
ENDBRANCH   5   4
ENDBRANCH   6   5
ENDBRANCH   7   6
TORSDOF 4
