REMARK  Name = ZINC95485954
REMARK  8 active torsions:
REMARK  status: ('A' for Active; 'I' for Inactive)
REMARK    1  A    between atoms: C1_1  and  O1_2
REMARK    2  A    between atoms: O1_2  and  C2_3
REMARK    3  A    between atoms: C3_4  and  C17_24
REMARK    4  A    between atoms: C18_26  and  O12_39
REMARK    5  A    between atoms: C19_28  and  O11_38
REMARK    6  A    between atoms: C20_30  and  O10_37
REMARK    7  A    between atoms: C21_32  and  C22_35
REMARK    8  A    between atoms: C22_35  and  O9_36
REMARK                            x       y       z     vdW  Elec       q    Type
REMARK                         _______ _______ _______ _____ _____    ______ ____
ROOT
ATOM      3  C   UNL     1       0.636  -0.245  -1.379  0.00  0.00    +0.172 A 
ATOM      4  C   UNL     1      -0.292  -0.835  -2.233  0.00  0.00    -0.066 A 
ATOM     20  C   UNL     1       0.070  -1.817  -3.136  0.00  0.00    +0.154 A 
ATOM     21  C   UNL     1       1.395  -2.233  -3.191  0.00  0.00    -0.141 A 
ATOM     22  C   UNL     1       2.331  -1.631  -2.324  0.00  0.00    -0.058 A 
ATOM     23  C   UNL     1       3.724  -2.089  -2.404  0.00  0.00    -0.071 A 
ATOM     24  C   UNL     1       4.123  -2.943  -3.429  0.00  0.00    +0.152 A 
ATOM     25  O   UNL     1       3.227  -3.312  -4.378  0.00  0.00    -0.267 OA
ATOM     26  C   UNL     1       5.450  -3.360  -3.454  0.00  0.00    +0.070 A 
ATOM     27  C   UNL     1       6.348  -2.902  -2.487  0.00  0.00    +0.071 A 
ATOM     28  O   UNL     1       7.574  -3.450  -2.743  0.00  0.00    -0.291 OA
ATOM     29  C   UNL     1       7.323  -4.563  -3.619  0.00  0.00    +0.454 C 
ATOM     30  C   UNL     1       5.951  -2.020  -1.492  0.00  0.00    +0.136 A 
ATOM     31  O   UNL     1       6.115  -4.191  -4.307  0.00  0.00    -0.286 OA
ATOM     32  C   UNL     1       4.627  -1.610  -1.433  0.00  0.00    -0.119 A 
ATOM     33  C   UNL     1       4.077  -0.717  -0.401  0.00  0.00    +0.542 A 
ATOM     34  O   UNL     1       4.643  -0.584   0.667  0.00  0.00    -0.410 OA
ATOM     35  O   UNL     1       2.928  -0.045  -0.659  0.00  0.00    -0.261 OA
ATOM     36  C   UNL     1       1.902  -3.282  -4.089  0.00  0.00    +0.539 A 
ATOM     37  O   UNL     1       1.147  -4.108  -4.564  0.00  0.00    -0.411 OA
ATOM     38  C   UNL     1       1.973  -0.629  -1.426  0.00  0.00    +0.105 A 
ENDROOT
BRANCH   4   5
ATOM      5  C   UNL     1      -1.730  -0.391  -2.171  0.00  0.00    +0.239 C 
ATOM      6  C   UNL     1      -2.031   0.531  -3.355  0.00  0.00    +0.173 C 
ATOM      9  C   UNL     1      -3.510   0.930  -3.319  0.00  0.00    +0.123 C 
ATOM     12  C   UNL     1      -4.370  -0.338  -3.336  0.00  0.00    +0.129 C 
ATOM     15  C   UNL     1      -3.978  -1.226  -2.152  0.00  0.00    +0.183 C 
ATOM     19  O   UNL     1      -2.585  -1.534  -2.230  0.00  0.00    -0.341 OA
BRANCH   6   7
ATOM      7  O   UNL     1      -1.218   1.703  -3.268  0.00  0.00    -0.549 OA
ATOM      8  H   UNL     1      -1.294   2.292  -4.030  0.00  0.00    +0.392 HD
ENDBRANCH   6   7
BRANCH   9  10
ATOM     10  O   UNL     1      -3.817   1.733  -4.461  0.00  0.00    -0.556 OA
ATOM     11  H   UNL     1      -4.739   2.022  -4.503  0.00  0.00    +0.384 HD
ENDBRANCH   9  10
BRANCH  12  13
ATOM     13  O   UNL     1      -5.749   0.019  -3.231  0.00  0.00    -0.551 OA
ATOM     14  H   UNL     1      -6.064   0.587  -3.948  0.00  0.00    +0.384 HD
ENDBRANCH  12  13
BRANCH  15  16
ATOM     16  C   UNL     1      -4.791  -2.522  -2.196  0.00  0.00    +0.221 C 
BRANCH  16  17
ATOM     17  O   UNL     1      -4.511  -3.299  -1.030  0.00  0.00    -0.565 OA
ATOM     18  H   UNL     1      -4.993  -4.137  -0.991  0.00  0.00    +0.385 HD
ENDBRANCH  16  17
ENDBRANCH  15  16
ENDBRANCH   4   5
BRANCH   3   2
ATOM      1  C   UNL     1       0.452   2.072  -0.882  0.00  0.00    +0.257 C 
ATOM      2  O   UNL     1       0.236   0.712  -0.501  0.00  0.00    -0.321 OA
ENDBRANCH   3   2
TORSDOF 7
