REMARK  Name = ZINC95486300
REMARK  5 active torsions:
REMARK  status: ('A' for Active; 'I' for Inactive)
REMARK    1  A    between atoms: C1_1  and  C2_2
REMARK    2  A    between atoms: C3_3  and  C4_4
REMARK    3  A    between atoms: C5_5  and  C6_6
REMARK    4  A    between atoms: C7_7  and  C8_8
REMARK    5  A    between atoms: C13_13  and  O1_14
REMARK                            x       y       z     vdW  Elec       q    Type
REMARK                         _______ _______ _______ _____ _____    ______ ____
ROOT
ATOM      8  C   UNL     1       0.107  -7.711  -0.040  0.00  0.00    -0.007 A 
ATOM      9  C   UNL     1       1.325  -8.398  -0.050  0.00  0.00    +0.080 A 
ATOM     10  C   UNL     1       1.335  -9.778  -0.058  0.00  0.00    -0.046 A 
ATOM     11 CL   UNL     1       2.848 -10.630  -0.070  0.00  0.00    -0.055 Cl
ATOM     12  C   UNL     1       0.144 -10.486  -0.056  0.00  0.00    +0.068 A 
ATOM     13  C   UNL     1      -1.066  -9.818  -0.046  0.00  0.00    +0.018 A 
ATOM     14  C   UNL     1      -1.097  -8.434  -0.033  0.00  0.00    +0.143 A 
ENDROOT
BRANCH   8   7
ATOM      6  C   UNL     1       0.071  -5.106  -0.026  0.00  0.00    -0.041 C 
ATOM      7  C   UNL     1       0.087  -6.279  -0.033  0.00  0.00    -0.067 C 
BRANCH   6   5
ATOM      4  C   UNL     1       0.037  -2.555  -0.012  0.00  0.00    -0.001 C 
ATOM      5  C   UNL     1       0.053  -3.729  -0.018  0.00  0.00    -0.034 C 
BRANCH   4   3
ATOM      1  C   UNL     1      -0.018   1.468   0.010  0.00  0.00    +0.228 C 
ATOM      2  C   UNL     1       0.002  -0.004   0.002  0.00  0.00    -0.091 C 
ATOM      3  C   UNL     1       0.018  -1.178  -0.004  0.00  0.00    -0.108 C 
ENDBRANCH   4   3
ENDBRANCH   6   5
ENDBRANCH   8   7
BRANCH  14  15
ATOM     15  O   UNL     1      -2.286  -7.777  -0.018  0.00  0.00    -0.488 OA
ATOM     16  H   UNL     1      -2.639  -7.583  -0.897  0.00  0.00    +0.399 HD
ENDBRANCH  14  15
TORSDOF 4
