REMARK  Name = ZINC95485920
REMARK  6 active torsions:
REMARK  status: ('A' for Active; 'I' for Inactive)
REMARK    1  A    between atoms: C1_1  and  O1_2
REMARK    2  A    between atoms: O1_2  and  C2_3
REMARK    3  A    between atoms: C10_12  and  O5_22
REMARK    4  A    between atoms: C12_14  and  O4_21
REMARK    5  A    between atoms: C13_15  and  C15_18
REMARK    6  A    between atoms: C15_18  and  C16_19
REMARK                            x       y       z     vdW  Elec       q    Type
REMARK                         _______ _______ _______ _____ _____    ______ ____
ROOT
ATOM      3  C   UNL     1       0.626  -0.619   1.042  0.00  0.00    +0.103 A 
ATOM      4  C   UNL     1       1.204   0.141   2.054  0.00  0.00    +0.003 A 
ATOM      5  C   UNL     1       1.842  -0.466   3.113  0.00  0.00    +0.050 A 
ATOM      6  C   UNL     1       1.915  -1.854   3.184  0.00  0.00    +0.116 A 
ATOM      7  C   UNL     1       1.327  -2.619   2.165  0.00  0.00    -0.182 A 
ATOM      8  C   UNL     1       1.398  -4.094   2.261  0.00  0.00    +0.443 A 
ATOM      9  C   UNL     1       1.827  -4.634   3.562  0.00  0.00    -0.268 A 
ATOM     10  C   UNL     1       1.684  -5.996   3.861  0.00  0.00    +0.218 A 
ATOM     13  C   UNL     1       2.085  -6.467   5.098  0.00  0.00    -0.055 A 
ATOM     14  C   UNL     1       2.628  -5.593   6.032  0.00  0.00    +0.196 A 
ATOM     17  C   UNL     1       2.779  -4.246   5.739  0.00  0.00    -0.146 A 
ATOM     21  C   UNL     1       2.385  -3.751   4.504  0.00  0.00    +0.200 A 
ATOM     22  O   UNL     1       1.117  -4.816   1.321  0.00  0.00    -0.429 OA
ATOM     23  O   UNL     1       2.547  -2.443   4.220  0.00  0.00    -0.217 OA
ATOM     24  C   UNL     1       0.682  -1.999   1.097  0.00  0.00    +0.087 A 
ENDROOT
BRANCH   3   2
ATOM      1  C   UNL     1      -0.017   1.425   0.010  0.00  0.00    +0.246 C 
ATOM      2  O   UNL     1       0.002  -0.004   0.002  0.00  0.00    -0.311 OA
ENDBRANCH   3   2
BRANCH  10  11
ATOM     11  O   UNL     1       1.156  -6.845   2.944  0.00  0.00    -0.476 OA
ATOM     12  H   UNL     1       1.811  -7.247   2.357  0.00  0.00    +0.405 HD
ENDBRANCH  10  11
BRANCH  14  15
ATOM     15  O   UNL     1       3.016  -6.063   7.245  0.00  0.00    -0.484 OA
ATOM     16  H   UNL     1       3.936  -6.358   7.276  0.00  0.00    +0.402 HD
ENDBRANCH  14  15
BRANCH  17  18
ATOM     18  C   UNL     1       3.371  -3.316   6.766  0.00  0.00    +0.133 C 
BRANCH  18  19
ATOM     19  C   UNL     1       4.867  -3.263   6.593  0.00  0.00    -0.048 C 
ATOM     20  C   UNL     1       5.466  -2.111   6.424  0.00  0.00    +0.016 C 
ENDBRANCH  18  19
ENDBRANCH  17  18
TORSDOF 5
