REMARK  Name = ZINC14811038
REMARK  6 active torsions:
REMARK  status: ('A' for Active; 'I' for Inactive)
REMARK    1  A    between atoms: C3_3  and  O6_23
REMARK    2  A    between atoms: C6_6  and  C7_7
REMARK    3  A    between atoms: C7_7  and  C8_8
REMARK    4  A    between atoms: C12_14  and  O5_22
REMARK    5  A    between atoms: C13_15  and  O4_21
REMARK    6  A    between atoms: C14_16  and  O3_20
REMARK                            x       y       z     vdW  Elec       q    Type
REMARK                         _______ _______ _______ _____ _____    ______ ____
ROOT
ATOM     10  C   UNL     1      -0.733   1.582   1.271  0.00  0.00    -0.048 C 
ATOM     11  C   UNL     1      -0.013   1.086   0.008  0.00  0.00    +0.276 C 
ATOM     12  O   UNL     1      -0.704   1.559  -1.148  0.00  0.00    -0.299 OA
ATOM     13  C   UNL     1      -0.967   2.884  -1.250  0.00  0.00    +0.204 A 
ATOM     14  C   UNL     1      -1.194   3.448  -2.493  0.00  0.00    -0.034 A 
ATOM     15  C   UNL     1      -1.470   4.804  -2.606  0.00  0.00    +0.171 A 
ATOM     18  C   UNL     1      -1.524   5.614  -1.475  0.00  0.00    +0.008 A 
ATOM     21  C   UNL     1      -1.298   5.069  -0.221  0.00  0.00    +0.193 A 
ATOM     24  C   UNL     1      -1.013   3.699  -0.104  0.00  0.00    -0.275 A 
ATOM     25  C   UNL     1      -0.754   3.099   1.209  0.00  0.00    +0.401 C 
ATOM     26  O   UNL     1      -0.565   3.779   2.196  0.00  0.00    -0.411 OA
ENDROOT
BRANCH  15  16
ATOM     16  O   UNL     1      -1.690   5.346  -3.832  0.00  0.00    -0.479 OA
ATOM     17  H   UNL     1      -2.616   5.333  -4.107  0.00  0.00    +0.399 HD
ENDBRANCH  15  16
BRANCH  18  19
ATOM     19  O   UNL     1      -1.800   6.942  -1.601  0.00  0.00    -0.469 OA
ATOM     20  H   UNL     1      -2.742   7.154  -1.555  0.00  0.00    +0.383 HD
ENDBRANCH  18  19
BRANCH  21  22
ATOM     22  O   UNL     1      -1.352   5.853   0.886  0.00  0.00    -0.463 OA
ATOM     23  H   UNL     1      -2.230   5.907   1.287  0.00  0.00    +0.395 HD
ENDBRANCH  21  22
BRANCH  10   9
ATOM      9  C   UNL     1      -2.164   1.042   1.300  0.00  0.00    +0.111 C 
BRANCH   9   8
ATOM      1  C   UNL     1      -2.735   0.594   3.695  0.00  0.00    +0.034 A 
ATOM      2  C   UNL     1      -3.332   0.951   4.888  0.00  0.00    -0.011 A 
ATOM      3  C   UNL     1      -4.028   2.147   4.983  0.00  0.00    +0.107 A 
ATOM      6  C   UNL     1      -4.119   2.984   3.880  0.00  0.00    -0.011 A 
ATOM      7  C   UNL     1      -3.515   2.624   2.691  0.00  0.00    +0.024 A 
ATOM      8  C   UNL     1      -2.821   1.432   2.599  0.00  0.00    -0.100 A 
BRANCH   3   4
ATOM      4  O   UNL     1      -4.622   2.498   6.154  0.00  0.00    -0.499 OA
ATOM      5  H   UNL     1      -5.534   2.188   6.241  0.00  0.00    +0.392 HD
ENDBRANCH   3   4
ENDBRANCH   9   8
ENDBRANCH  10   9
TORSDOF 6
