REMARK  Name = ZINC44431354
REMARK  16 active torsions:
REMARK  status: ('A' for Active; 'I' for Inactive)
REMARK    1  A    between atoms: C1_1  and  C2_2
REMARK    2  A    between atoms: C2_2  and  C3_3
REMARK    3  A    between atoms: C2_2  and  C4_4
REMARK    4  A    between atoms: C4_4  and  C5_5
REMARK    5  A    between atoms: C5_5  and  C6_6
REMARK    6  A    between atoms: C6_6  and  C7_8
REMARK    7  A    between atoms: C6_6  and  O7_41
REMARK    8  A    between atoms: C7_8  and  C8_9
REMARK    9  A    between atoms: C7_8  and  C9_10
REMARK   10  A    between atoms: C7_8  and  O6_40
REMARK   11  A    between atoms: C12_14  and  O5_39
REMARK   12  A    between atoms: C13_15  and  C27_38
REMARK   13  A    between atoms: C15_17  and  O4_37
REMARK   14  A    between atoms: C21_27  and  C26_36
REMARK   15  A    between atoms: C23_29  and  O3_35
REMARK   16  A    between atoms: C24_31  and  O2_34
REMARK                            x       y       z     vdW  Elec       q    Type
REMARK                         _______ _______ _______ _____ _____    ______ ____
ROOT
ATOM     11  C   UNL     1      -4.531  -4.602  -0.768  0.00  0.00    +0.002 C 
ATOM     12  C   UNL     1      -5.471  -4.297  -1.964  0.00  0.00    +0.024 C 
ATOM     13  C   UNL     1      -5.873  -5.674  -2.565  0.00  0.00    +0.012 C 
ATOM     14  C   UNL     1      -5.685  -6.626  -1.382  0.00  0.00    +0.151 C 
ATOM     17  C   UNL     1      -5.458  -8.073  -1.712  0.00  0.00    -0.040 C 
ATOM     18  C   UNL     1      -5.682  -8.515  -2.944  0.00  0.00    -0.084 C 
ATOM     19  C   UNL     1      -5.474  -9.931  -3.266  0.00  0.00    +0.394 C 
ATOM     20  C   UNL     1      -5.487 -10.900  -2.102  0.00  0.00    -0.010 C 
ATOM     21  C   UNL     1      -4.568 -10.340  -1.007  0.00  0.00    -0.032 C 
ATOM     22  C   UNL     1      -3.140 -10.276  -1.553  0.00  0.00    +0.033 C 
ATOM     23  C   UNL     1      -4.572 -11.285   0.199  0.00  0.00    +0.081 C 
ATOM     24  C   UNL     1      -5.996 -11.404   0.744  0.00  0.00    +0.142 C 
ATOM     27  C   UNL     1      -6.917 -11.961  -0.343  0.00  0.00    +0.134 C 
ATOM     30  C   UNL     1      -6.916 -11.038  -1.575  0.00  0.00    +0.063 C 
ATOM     31  O   UNL     1      -5.299 -10.307  -4.406  0.00  0.00    -0.446 OA
ATOM     32  C   UNL     1      -4.988  -8.947  -0.573  0.00  0.00    +0.056 C 
ATOM     33  C   UNL     1      -3.854  -8.297   0.219  0.00  0.00    +0.181 C 
ATOM     36  C   UNL     1      -4.139  -6.820   0.535  0.00  0.00    +0.019 C 
ATOM     37  C   UNL     1      -4.344  -6.111  -0.785  0.00  0.00    -0.036 C 
ATOM     38  C   UNL     1      -3.194  -6.474  -1.726  0.00  0.00    +0.050 C 
ENDROOT
BRANCH  11   8
ATOM      8  C   UNL     1      -3.186  -3.897  -0.956  0.00  0.00    +0.111 C 
ATOM     39  C   UNL     1      -2.251  -4.267   0.197  0.00  0.00    +0.057 C 
BRANCH   8   9
ATOM      9  O   UNL     1      -2.602  -4.308  -2.194  0.00  0.00    -0.542 OA
ATOM     10  H   UNL     1      -3.142  -4.105  -2.970  0.00  0.00    +0.371 HD
ENDBRANCH   8   9
BRANCH   8   5
ATOM      5  C   UNL     1      -3.402  -2.382  -0.972  0.00  0.00    +0.181 C 
BRANCH   5   6
ATOM      6  O   UNL     1      -3.986  -1.972   0.266  0.00  0.00    -0.551 OA
ATOM      7  H   UNL     1      -3.446  -2.175   1.042  0.00  0.00    +0.372 HD
ENDBRANCH   5   6
BRANCH   5   4
ATOM      4  C   UNL     1      -2.057  -1.678  -1.160  0.00  0.00    -0.003 C 
BRANCH   4   3
ATOM      3  C   UNL     1      -2.286  -0.172  -1.301  0.00  0.00    +0.015 C 
BRANCH   3   2
ATOM      1  C   UNL     1      -1.178   2.021  -1.754  0.00  0.00    +0.012 C 
ATOM      2  C   UNL     1      -0.941   0.533  -1.489  0.00  0.00    -0.030 C 
ATOM     40  C   UNL     1      -0.097   0.368  -0.223  0.00  0.00    +0.012 C 
ENDBRANCH   3   2
ENDBRANCH   4   3
ENDBRANCH   5   4
ENDBRANCH   8   5
ENDBRANCH  11   8
BRANCH  14  15
ATOM     15  O   UNL     1      -6.761  -6.487  -0.452  0.00  0.00    -0.536 OA
ATOM     16  H   UNL     1      -7.629  -6.702  -0.819  0.00  0.00    +0.378 HD
ENDBRANCH  14  15
BRANCH  24  25
ATOM     25  O   UNL     1      -6.003 -12.284   1.870  0.00  0.00    -0.561 OA
ATOM     26  H   UNL     1      -6.875 -12.407   2.268  0.00  0.00    +0.376 HD
ENDBRANCH  24  25
BRANCH  27  28
ATOM     28  O   UNL     1      -6.453 -13.253  -0.743  0.00  0.00    -0.556 OA
ATOM     29  H   UNL     1      -6.432 -13.902  -0.027  0.00  0.00    +0.381 HD
ENDBRANCH  27  28
BRANCH  33  34
ATOM     34  O   UNL     1      -3.680  -9.008   1.446  0.00  0.00    -0.557 OA
ATOM     35  H   UNL     1      -2.950  -8.682   1.990  0.00  0.00    +0.378 HD
ENDBRANCH  33  34
TORSDOF 11
