REMARK  Name = ZINC35570685
REMARK  11 active torsions:
REMARK  status: ('A' for Active; 'I' for Inactive)
REMARK    1  A    between atoms: C1_1  and  C2_2
REMARK    2  A    between atoms: C6_7  and  C30_40
REMARK    3  A    between atoms: C11_13  and  C23_28
REMARK    4  A    between atoms: C14_16  and  C22_25
REMARK    5  A    between atoms: C17_20  and  C20_23
REMARK    6  A    between atoms: C17_20  and  C21_24
REMARK    7  A    between atoms: C25_30  and  O5_39
REMARK    8  A    between atoms: C26_32  and  O4_38
REMARK    9  A    between atoms: C27_34  and  C28_35
REMARK   10  A    between atoms: C27_34  and  C29_36
REMARK   11  A    between atoms: C29_36  and  O3_37
REMARK                            x       y       z     vdW  Elec       q    Type
REMARK                         _______ _______ _______ _____ _____    ______ ____
ROOT
ATOM      1  C   UNL     1      -1.385   0.328   1.452  0.00  0.00    +0.008 C 
ATOM      2  C   UNL     1      -0.943  -1.058   0.887  0.00  0.00    -0.024 C 
ATOM      3  C   UNL     1       0.088  -0.728  -0.190  0.00  0.00    +0.014 C 
ATOM      4  C   UNL     1       1.002  -1.865  -0.581  0.00  0.00    -0.001 C 
ATOM      5  C   UNL     1       1.595  -2.655   0.579  0.00  0.00    +0.019 C 
ATOM      6  C   UNL     1       0.642  -2.940   1.713  0.00  0.00    -0.017 C 
ATOM      7  C   UNL     1       1.505  -3.127   3.001  0.00  0.00    +0.011 C 
ATOM      8  C   UNL     1      -0.211  -4.189   1.575  0.00  0.00    +0.062 C 
ATOM      9  C   UNL     1       0.487  -5.385   0.961  0.00  0.00    +0.125 C 
ATOM     12  C   UNL     1       1.293  -5.009  -0.269  0.00  0.00    +0.147 C 
ATOM     15  C   UNL     1       2.293  -3.896   0.021  0.00  0.00    -0.028 C 
ATOM     19  C   UNL     1       3.409  -4.388   0.942  0.00  0.00    +0.044 C 
ATOM     20  C   UNL     1      -2.177  -1.739   0.343  0.00  0.00    +0.011 C 
ATOM     21  C   UNL     1      -1.790  -2.584  -0.874  0.00  0.00    +0.013 C 
ATOM     22  C   UNL     1      -3.212  -0.738  -0.198  0.00  0.00    +0.018 C 
ATOM     23  C   UNL     1      -4.393  -1.507  -0.804  0.00  0.00    +0.007 C 
ATOM     24  C   UNL     1      -5.111  -2.354   0.239  0.00  0.00    -0.110 C 
ATOM     28  C   UNL     1      -4.183  -3.313   0.959  0.00  0.00    +0.057 C 
ATOM     29  C   UNL     1      -3.899  -4.615   0.246  0.00  0.00    +0.007 C 
ATOM     30  C   UNL     1      -5.167  -5.281  -0.291  0.00  0.00    -0.063 C 
ATOM     31  C   UNL     1      -4.763  -6.506  -1.123  0.00  0.00    +0.008 C 
ATOM     32  C   UNL     1      -6.058  -5.734   0.861  0.00  0.00    +0.019 C 
ATOM     33  C   UNL     1      -5.899  -4.287  -1.192  0.00  0.00    +0.002 C 
ATOM     34  C   UNL     1      -6.307  -3.054  -0.402  0.00  0.00    +0.018 C 
ATOM     35  C   UNL     1      -2.893  -2.606   1.339  0.00  0.00    -0.064 C 
ATOM     36  C   UNL     1      -2.485  -2.767   2.563  0.00  0.00    -0.062 C 
ATOM     37  C   UNL     1      -1.266  -2.115   3.138  0.00  0.00    +0.049 C 
ATOM     38  C   UNL     1      -0.264  -1.754   2.047  0.00  0.00    -0.001 C 
ENDROOT
BRANCH  24  25
ATOM     25  C   UNL     1      -5.691  -1.405   1.284  0.00  0.00    +0.502 C 
ATOM     26  O   UNL     1      -5.346  -1.498   2.449  0.00  0.00    -0.686 OA
ATOM     27  O   UNL     1      -6.498  -0.553   0.953  0.00  0.00    -0.705 OA
ENDBRANCH  24  25
BRANCH   9  10
ATOM     10  O   UNL     1       1.278  -6.073   1.925  0.00  0.00    -0.552 OA
ATOM     11  H   UNL     1       1.742  -6.845   1.574  0.00  0.00    +0.373 HD
ENDBRANCH   9  10
BRANCH  12  13
ATOM     13  O   UNL     1       1.995  -6.160  -0.754  0.00  0.00    -0.540 OA
ATOM     14  H   UNL     1       1.419  -6.895  -1.006  0.00  0.00    +0.363 HD
ENDBRANCH  12  13
BRANCH  15  16
ATOM     16  C   UNL     1       2.983  -3.535  -1.315  0.00  0.00    +0.158 C 
BRANCH  16  17
ATOM     17  O   UNL     1       3.637  -4.692  -1.840  0.00  0.00    -0.546 OA
ATOM     18  H   UNL     1       4.092  -4.540  -2.680  0.00  0.00    +0.364 HD
ENDBRANCH  16  17
ENDBRANCH  15  16
TORSDOF 5
