REMARK  Name = ZINC04804529
REMARK  8 active torsions:
REMARK  status: ('A' for Active; 'I' for Inactive)
REMARK    1  A    between atoms: C1_1  and  C2_2
REMARK    2  A    between atoms: C2_2  and  C3_3
REMARK    3  A    between atoms: C17_21  and  C18_23
REMARK    4  A    between atoms: C18_23  and  C21_27
REMARK    5  A    between atoms: C19_24  and  O1_25
REMARK    6  A    between atoms: O1_25  and  C20_26
REMARK    7  A    between atoms: C21_27  and  O3_29
REMARK    8  A    between atoms: O3_29  and  C22_30
REMARK                            x       y       z     vdW  Elec       q    Type
REMARK                         _______ _______ _______ _____ _____    ______ ____
ROOT
ATOM      3  C   UNL     1      -0.727   1.580   1.269  0.00  0.00    -0.002 C 
ATOM      4  C   UNL     1       0.055   1.132   2.507  0.00  0.00    +0.272 C 
ATOM      5  N   UNL     1       1.412   1.713   2.434  0.00  0.00    -0.388 N 
ATOM      6  H   UNL     1       1.331   2.730   2.316  0.00  0.00    +0.431 HD
ATOM      7  C   UNL     1       2.136   1.155   1.270  0.00  0.00    +0.268 C 
ATOM      8  C   UNL     1       1.424   1.617  -0.003  0.00  0.00    +0.071 C 
ATOM      9  C   UNL     1       3.546   1.689   1.294  0.00  0.00    +0.022 A 
ATOM     10  N   UNL     1       4.440   1.722   0.259  0.00  0.00    -0.563 N 
ATOM     11  H   UNL     1       4.266   1.397  -0.639  0.00  0.00    +0.422 HD
ATOM     12  C   UNL     1       5.613   2.280   0.679  0.00  0.00    +0.112 A 
ATOM     13  C   UNL     1       6.815   2.534   0.021  0.00  0.00    +0.006 A 
ATOM     14  C   UNL     1       7.824   3.125   0.761  0.00  0.00    +0.049 A 
ATOM     15  C   UNL     1       7.663   3.454   2.097  0.00  0.00    -0.009 A 
ATOM     16  C   UNL     1       6.492   3.216   2.772  0.00  0.00    +0.070 A 
ATOM     17  C   UNL     1       5.454   2.620   2.048  0.00  0.00    -0.101 A 
ATOM     18  C   UNL     1       4.110   2.223   2.402  0.00  0.00    -0.157 A 
ATOM     19  C   UNL     1       3.396   2.343   3.725  0.00  0.00    +0.149 C 
ATOM     20  C   UNL     1       2.158   1.436   3.685  0.00  0.00    +0.270 C 
ATOM     21  C   UNL     1      -0.013   1.086   0.008  0.00  0.00    +0.079 C 
ENDROOT
BRANCH   3   2
ATOM      1  C   UNL     1      -2.896   1.584   2.509  0.00  0.00    +0.020 C 
ATOM      2  C   UNL     1      -2.139   0.993   1.318  0.00  0.00    +0.039 C 
ENDBRANCH   3   2
BRANCH  21  22
ATOM     22  C   UNL     1      -0.742   1.585  -1.212  0.00  0.00    -0.275 C 
ATOM     27  C   UNL     1      -1.251   0.709  -2.098  0.00  0.00    +0.327 C 
BRANCH  22  23
ATOM     23  C   UNL     1      -0.893   2.977  -1.427  0.00  0.00    +0.504 C 
ATOM     26  O   UNL     1      -1.482   3.380  -2.412  0.00  0.00    -0.487 OA
BRANCH  23  24
ATOM     24  O   UNL     1      -0.383   3.855  -0.539  0.00  0.00    -0.370 OA
ATOM     25  C   UNL     1      -0.571   5.244  -0.819  0.00  0.00    +0.257 C 
ENDBRANCH  23  24
ENDBRANCH  22  23
BRANCH  27  28
ATOM     28  O   UNL     1      -1.904   1.156  -3.189  0.00  0.00    -0.280 OA
ATOM     29  C   UNL     1      -2.426   0.154  -4.101  0.00  0.00    +0.264 C 
ENDBRANCH  27  28
ENDBRANCH  21  22
TORSDOF 5
