REMARK  Name = ZINC95486179
REMARK  10 active torsions:
REMARK  status: ('A' for Active; 'I' for Inactive)
REMARK    1  A    between atoms: C1_1  and  C2_2
REMARK    2  A    between atoms: C2_2  and  O2_4
REMARK    3  A    between atoms: O2_4  and  C3_5
REMARK    4  A    between atoms: C6_10  and  C28_43
REMARK    5  A    between atoms: C10_16  and  C11_17
REMARK    6  A    between atoms: C10_16  and  C12_18
REMARK    7  A    between atoms: C14_21  and  C27_42
REMARK    8  A    between atoms: C18_29  and  C23_37
REMARK    9  A    between atoms: C19_31  and  C22_36
REMARK   10  A    between atoms: C21_33  and  O8_35
REMARK                            x       y       z     vdW  Elec       q    Type
REMARK                         _______ _______ _______ _____ _____    ______ ____
ROOT
ATOM      4  C   UNL     1       0.570  -1.588  -0.652  0.00  0.00    +0.200 C 
ATOM      5  C   UNL     1      -0.897  -1.876  -0.365  0.00  0.00    +0.045 C 
ATOM      6  C   UNL     1      -1.221  -3.365  -0.330  0.00  0.00    -0.004 C 
ATOM      7  C   UNL     1      -0.791  -4.023  -1.617  0.00  0.00    -0.010 C 
ATOM      8  C   UNL     1      -1.733  -3.446  -2.694  0.00  0.00    +0.040 C 
ATOM      9  C   UNL     1       0.645  -3.711  -1.995  0.00  0.00    +0.028 C 
ATOM     10  C   UNL     1       1.063  -4.366  -3.301  0.00  0.00    +0.190 C 
ATOM     13  C   UNL     1       2.414  -3.885  -3.804  0.00  0.00    +0.033 C 
ATOM     14  C   UNL     1       3.302  -3.293  -2.720  0.00  0.00    -0.056 C 
ATOM     15  C   UNL     1       3.676  -4.402  -1.726  0.00  0.00    +0.064 C 
ATOM     16  C   UNL     1       4.626  -2.866  -3.348  0.00  0.00    +0.323 C 
ATOM     22  O   UNL     1       4.649  -1.504  -3.749  0.00  0.00    -0.343 OA
ATOM     23  C   UNL     1       4.471  -0.604  -2.755  0.00  0.00    +0.505 C 
ATOM     24  O   UNL     1       5.265   0.276  -2.532  0.00  0.00    -0.413 OA
ATOM     25  C   UNL     1       3.199  -0.775  -1.950  0.00  0.00    +0.107 C 
ATOM     26  O   UNL     1       3.237  -1.633  -0.813  0.00  0.00    -0.295 OA
ATOM     27  C   UNL     1       2.595  -2.184  -1.964  0.00  0.00    +0.058 C 
ATOM     28  C   UNL     1      -1.044  -5.486  -1.736  0.00  0.00    +0.082 C 
ATOM     29  C   UNL     1      -1.073  -6.452  -0.900  0.00  0.00    -0.085 C 
ATOM     30  C   UNL     1      -0.991  -6.385   0.561  0.00  0.00    +0.536 C 
ATOM     31  O   UNL     1      -1.512  -5.303   1.149  0.00  0.00    -0.383 OA
ATOM     32  O   UNL     1      -0.518  -7.289   1.208  0.00  0.00    -0.448 OA
ATOM     33  C   UNL     1      -0.926  -4.027   0.972  0.00  0.00    +0.163 C 
ATOM     34  C   UNL     1      -1.498  -3.175   2.123  0.00  0.00    +0.073 C 
ATOM     35  C   UNL     1       0.574  -4.171   1.223  0.00  0.00    +0.021 C 
ATOM     36  C   UNL     1       1.050  -2.251  -1.941  0.00  0.00    -0.001 C 
ATOM     37  C   UNL     1       0.547  -1.447  -3.145  0.00  0.00    +0.070 C 
ENDROOT
BRANCH  16  17
ATOM     17  C   UNL     1       5.731  -3.118  -2.355  0.00  0.00    -0.222 A 
ATOM     18  C   UNL     1       6.564  -4.259  -2.294  0.00  0.00    -0.041 A 
ATOM     19  C   UNL     1       7.408  -4.070  -1.263  0.00  0.00    +0.175 A 
ATOM     20  O   UNL     1       7.131  -2.883  -0.700  0.00  0.00    -0.166 OA
ATOM     21  C   UNL     1       6.119  -2.298  -1.362  0.00  0.00    +0.175 A 
ENDBRANCH  16  17
BRANCH  10  11
ATOM     11  O   UNL     1       1.141  -5.785  -3.116  0.00  0.00    -0.561 OA
ATOM     12  H   UNL     1       1.403  -6.271  -3.910  0.00  0.00    +0.381 HD
ENDBRANCH  10  11
BRANCH   4   3
ATOM      3  O   UNL     1       0.712  -0.162  -0.783  0.00  0.00    -0.354 OA
BRANCH   3   2
ATOM      1  C   UNL     1       1.131   2.027   0.279  0.00  0.00    +0.155 C 
ATOM      2  C   UNL     1       0.969   0.530   0.338  0.00  0.00    +0.457 C 
ATOM     38  O   UNL     1       1.071  -0.048   1.395  0.00  0.00    -0.499 OA
ENDBRANCH   3   2
ENDBRANCH   4   3
TORSDOF 4
