REMARK  Name = ZINC95486117
REMARK  9 active torsions:
REMARK  status: ('A' for Active; 'I' for Inactive)
REMARK    1  A    between atoms: C1_1  and  C2_2
REMARK    2  A    between atoms: C2_2  and  C4_4
REMARK    3  A    between atoms: C7_8  and  C30_37
REMARK    4  A    between atoms: C13_17  and  C29_36
REMARK    5  A    between atoms: C16_20  and  O1_35
REMARK    6  A    between atoms: C17_22  and  C27_33
REMARK    7  A    between atoms: C17_22  and  C28_34
REMARK    8  A    between atoms: C21_27  and  C26_32
REMARK    9  A    between atoms: C22_28  and  C25_31
REMARK                            x       y       z     vdW  Elec       q    Type
REMARK                         _______ _______ _______ _____ _____    ______ ____
ROOT
ATOM      3  C   UNL     1      -0.530  -2.029  -1.467  0.00  0.00    +0.034 C 
ATOM      4  C   UNL     1      -1.863  -1.995  -2.252  0.00  0.00    +0.010 C 
ATOM      5  C   UNL     1      -1.478  -2.105  -3.733  0.00  0.00    +0.004 C 
ATOM      6  C   UNL     1      -0.001  -1.634  -3.859  0.00  0.00    -0.044 C 
ATOM      7  C   UNL     1       0.051  -0.312  -4.657  0.00  0.00    +0.024 C 
ATOM      8  C   UNL     1       0.711  -2.739  -4.632  0.00  0.00    +0.005 C 
ATOM      9  C   UNL     1       2.200  -2.852  -4.336  0.00  0.00    +0.015 C 
ATOM     10  C   UNL     1       2.401  -3.053  -2.832  0.00  0.00    -0.029 C 
ATOM     11  C   UNL     1       1.576  -4.265  -2.382  0.00  0.00    +0.019 C 
ATOM     12  C   UNL     1       3.873  -3.340  -2.507  0.00  0.00    -0.029 C 
ATOM     13  C   UNL     1       4.229  -4.640  -3.243  0.00  0.00    +0.017 C 
ATOM     14  C   UNL     1       4.048  -3.574  -1.003  0.00  0.00    +0.018 C 
ATOM     15  C   UNL     1       5.490  -3.972  -0.716  0.00  0.00    +0.010 C 
ATOM     16  C   UNL     1       6.504  -2.928  -1.166  0.00  0.00    -0.002 C 
ATOM     17  C   UNL     1       6.931  -2.048  -0.012  0.00  0.00    -0.037 C 
ATOM     18  C   UNL     1       5.755  -1.605   0.862  0.00  0.00    +0.033 C 
ATOM     19  C   UNL     1       7.876  -2.877   0.894  0.00  0.00    +0.017 C 
ATOM     20  C   UNL     1       7.719  -0.814  -0.449  0.00  0.00    +0.167 C 
ATOM     23  C   UNL     1       6.944  -0.094  -1.551  0.00  0.00    -0.014 C 
ATOM     24  C   UNL     1       6.933  -0.993  -2.775  0.00  0.00    +0.013 C 
ATOM     25  C   UNL     1       6.239  -2.340  -2.520  0.00  0.00    -0.028 C 
ATOM     26  C   UNL     1       6.915  -3.276  -3.566  0.00  0.00    +0.008 C 
ATOM     27  C   UNL     1       4.769  -2.181  -2.910  0.00  0.00    +0.014 C 
ATOM     28  C   UNL     1       4.262  -0.879  -2.276  0.00  0.00    +0.008 C 
ATOM     29  C   UNL     1       2.804  -0.616  -2.625  0.00  0.00    -0.002 C 
ATOM     30  C   UNL     1       1.927  -1.783  -2.143  0.00  0.00    +0.014 C 
ATOM     31  C   UNL     1       0.490  -1.424  -2.434  0.00  0.00    +0.001 C 
ENDROOT
BRANCH   3   2
ATOM      1  C   UNL     1      -1.002   0.292  -0.352  0.00  0.00    +0.069 C 
ATOM      2  C   UNL     1      -0.652  -1.168  -0.225  0.00  0.00    -0.114 C 
ATOM     32  C   UNL     1      -0.454  -1.694   0.958  0.00  0.00    -0.010 C 
ENDBRANCH   3   2
BRANCH  20  21
ATOM     21  O   UNL     1       7.895   0.062   0.666  0.00  0.00    -0.563 OA
ATOM     22  H   UNL     1       8.384   0.870   0.458  0.00  0.00    +0.375 HD
ENDBRANCH  20  21
TORSDOF 2
