REMARK  Name = ZINC95485958
REMARK  9 active torsions:
REMARK  status: ('A' for Active; 'I' for Inactive)
REMARK    1  A    between atoms: C1_1  and  C2_2
REMARK    2  A    between atoms: C9_9  and  O4_17
REMARK    3  A    between atoms: C10_10  and  O3_15
REMARK    4  A    between atoms: O3_15  and  C13_16
REMARK    5  A    between atoms: C16_22  and  O7_23
REMARK    6  A    between atoms: O7_23  and  C17_24
REMARK    7  A    between atoms: C18_26  and  O11_36
REMARK    8  A    between atoms: C19_28  and  O10_35
REMARK    9  A    between atoms: C20_30  and  O9_34
REMARK                            x       y       z     vdW  Elec       q    Type
REMARK                         _______ _______ _______ _____ _____    ______ ____
ROOT
ATOM      1  C   UNL     1      -0.018   1.503   0.010  0.00  0.00    +0.137 C 
ATOM      2  C   UNL     1       0.002  -0.004   0.002  0.00  0.00    -0.046 A 
ATOM      3  C   UNL     1       0.005  -0.670  -1.210  0.00  0.00    +0.119 A 
ATOM      4  C   UNL     1       0.020  -2.058  -1.222  0.00  0.00    -0.125 A 
ATOM      5  C   UNL     1       0.044  -2.747   0.010  0.00  0.00    -0.081 A 
ATOM      6  C   UNL     1       0.071  -4.214  -0.031  0.00  0.00    -0.076 A 
ATOM      7  C   UNL     1      -0.104  -4.904   1.188  0.00  0.00    -0.122 A 
ATOM      8  C   UNL     1      -0.323  -4.082   2.388  0.00  0.00    +0.537 A 
ATOM      9  O   UNL     1       0.096  -2.793   2.385  0.00  0.00    -0.263 OA
ATOM     10  O   UNL     1      -0.870  -4.552   3.368  0.00  0.00    -0.411 OA
ATOM     11  C   UNL     1      -0.081  -6.292   1.178  0.00  0.00    +0.107 A 
ATOM     12  C   UNL     1       0.093  -6.959  -0.026  0.00  0.00    +0.124 A 
ATOM     15  C   UNL     1       0.253  -6.269  -1.229  0.00  0.00    +0.110 A 
ATOM     18  C   UNL     1       0.251  -4.878  -1.242  0.00  0.00    +0.127 A 
ATOM     19  O   UNL     1       0.449  -4.160  -2.376  0.00  0.00    -0.261 OA
ATOM     20  C   UNL     1       0.045  -2.080   1.232  0.00  0.00    +0.123 A 
ATOM     21  C   UNL     1       0.000  -2.882  -2.440  0.00  0.00    +0.535 A 
ATOM     22  O   UNL     1      -0.413  -2.425  -3.489  0.00  0.00    -0.413 OA
ATOM     23  C   UNL     1       0.023  -0.687   1.214  0.00  0.00    +0.125 A 
ENDROOT
BRANCH  12  13
ATOM     13  O   UNL     1       0.107  -8.318  -0.035  0.00  0.00    -0.470 OA
ATOM     14  H   UNL     1      -0.764  -8.720  -0.159  0.00  0.00    +0.399 HD
ENDBRANCH  12  13
BRANCH  15  16
ATOM     16  O   UNL     1       0.412  -6.958  -2.389  0.00  0.00    -0.311 OA
ATOM     17  C   UNL     1      -0.774  -7.291  -3.114  0.00  0.00    +0.243 C 
ENDBRANCH  15  16
BRANCH  23  24
ATOM     24  O   UNL     1       0.016   0.006   2.382  0.00  0.00    -0.293 OA
BRANCH  24  25
ATOM     25  C   UNL     1      -1.261   0.311   2.947  0.00  0.00    +0.303 C 
ATOM     26  C   UNL     1      -1.069   0.979   4.311  0.00  0.00    +0.192 C 
ATOM     29  C   UNL     1      -2.438   1.357   4.883  0.00  0.00    +0.198 C 
ATOM     32  C   UNL     1      -3.162   2.268   3.887  0.00  0.00    +0.122 C 
ATOM     35  C   UNL     1      -3.273   1.550   2.539  0.00  0.00    +0.220 C 
ATOM     36  O   UNL     1      -1.967   1.199   2.079  0.00  0.00    -0.386 OA
BRANCH  26  27
ATOM     27  O   UNL     1      -0.413   0.071   5.199  0.00  0.00    -0.538 OA
ATOM     28  H   UNL     1       0.460  -0.214   4.896  0.00  0.00    +0.392 HD
ENDBRANCH  26  27
BRANCH  29  30
ATOM     30  O   UNL     1      -2.265   2.045   6.124  0.00  0.00    -0.544 OA
ATOM     31  H   UNL     1      -3.093   2.315   6.543  0.00  0.00    +0.391 HD
ENDBRANCH  29  30
BRANCH  32  33
ATOM     33  O   UNL     1      -4.469   2.570   4.378  0.00  0.00    -0.555 OA
ATOM     34  H   UNL     1      -4.985   3.144   3.796  0.00  0.00    +0.391 HD
ENDBRANCH  32  33
ENDBRANCH  24  25
ENDBRANCH  23  24
TORSDOF 7
