REMARK  Name = ZINC15043216
REMARK  16 active torsions:
REMARK  status: ('A' for Active; 'I' for Inactive)
REMARK    1  A    between atoms: C2_2  and  C7_10
REMARK    2  A    between atoms: C4_4  and  O3_9
REMARK    3  A    between atoms: C5_5  and  O2_8
REMARK    4  A    between atoms: C6_6  and  O1_7
REMARK    5  A    between atoms: C7_10  and  O5_12
REMARK    6  A    between atoms: O5_12  and  C8_13
REMARK    7  A    between atoms: C8_13  and  C9_14
REMARK    8  A    between atoms: C10_16  and  O14_39
REMARK    9  A    between atoms: C11_18  and  O13_38
REMARK   10  A    between atoms: C12_20  and  O12_37
REMARK   11  A    between atoms: C13_22  and  O7_25
REMARK   12  A    between atoms: O7_25  and  C14_26
REMARK   13  A    between atoms: C14_26  and  C15_28
REMARK   14  A    between atoms: C17_30  and  O11_36
REMARK   15  A    between atoms: C18_31  and  O10_35
REMARK   16  A    between atoms: C19_32  and  O9_34
REMARK                            x       y       z     vdW  Elec       q    Type
REMARK                         _______ _______ _______ _____ _____    ______ ____
ROOT
ATOM      6  C   UNL     1       7.363  -2.326   1.233  0.00  0.00    +0.209 C 
ATOM      7  C   UNL     1       8.611  -1.443   1.153  0.00  0.00    +0.180 C 
ATOM     10  C   UNL     1       8.573  -0.636  -0.149  0.00  0.00    +0.167 C 
ATOM     13  C   UNL     1       7.278   0.181  -0.193  0.00  0.00    +0.155 C 
ATOM     16  C   UNL     1       6.082  -0.765  -0.061  0.00  0.00    +0.326 C 
ATOM     32  O   UNL     1       6.195  -1.507   1.155  0.00  0.00    -0.364 OA
ENDROOT
BRANCH   7   8
ATOM      8  O   UNL     1       8.637  -0.550   2.268  0.00  0.00    -0.545 OA
ATOM      9  H   UNL     1       9.400   0.044   2.278  0.00  0.00    +0.392 HD
ENDBRANCH   7   8
BRANCH  10  11
ATOM     11  O   UNL     1       9.697   0.245  -0.200  0.00  0.00    -0.552 OA
ATOM     12  H   UNL     1       9.732   0.791  -0.997  0.00  0.00    +0.397 HD
ENDBRANCH  10  11
BRANCH  13  14
ATOM     14  O   UNL     1       7.198   0.882  -1.436  0.00  0.00    -0.556 OA
ATOM     15  H   UNL     1       6.399   1.417  -1.534  0.00  0.00    +0.394 HD
ENDBRANCH  13  14
BRANCH   6   5
ATOM      5  C   UNL     1       7.363  -3.091   2.558  0.00  0.00    +0.276 C 
BRANCH   5   4
ATOM      4  O   UNL     1       6.244  -4.016   2.584  0.00  0.00    -0.342 OA
BRANCH   4   3
ATOM      3  C   UNL     1       6.100  -4.771   3.690  0.00  0.00    +0.515 C 
ATOM     33  O   UNL     1       6.888  -4.660   4.609  0.00  0.00    -0.497 OA
BRANCH   3   2
ATOM      1  C   UNL     1       4.835  -6.517   4.934  0.00  0.00    +0.080 A 
ATOM      2  C   UNL     1       4.986  -5.733   3.787  0.00  0.00    -0.103 A 
ATOM     34  C   UNL     1       4.076  -5.858   2.733  0.00  0.00    +0.078 A 
ATOM     35  C   UNL     1       3.036  -6.763   2.824  0.00  0.00    +0.086 A 
ATOM     38  C   UNL     1       2.888  -7.544   3.968  0.00  0.00    +0.094 A 
ATOM     41  C   UNL     1       3.790  -7.417   5.021  0.00  0.00    +0.086 A 
BRANCH  35  36
ATOM     36  O   UNL     1       2.153  -6.889   1.797  0.00  0.00    -0.478 OA
ATOM     37  H   UNL     1       1.389  -6.300   1.861  0.00  0.00    +0.393 HD
ENDBRANCH  35  36
BRANCH  38  39
ATOM     39  O   UNL     1       1.862  -8.430   4.056  0.00  0.00    -0.473 OA
ATOM     40  H   UNL     1       1.056  -8.061   4.443  0.00  0.00    +0.391 HD
ENDBRANCH  38  39
BRANCH  41  42
ATOM     42  O   UNL     1       3.643  -8.181   6.137  0.00  0.00    -0.478 OA
ATOM     43  H   UNL     1       3.092  -7.777   6.821  0.00  0.00    +0.393 HD
ENDBRANCH  41  42
ENDBRANCH   3   2
ENDBRANCH   4   3
ENDBRANCH   5   4
ENDBRANCH   6   5
BRANCH  16  17
ATOM     17  O   UNL     1       4.853   0.007  -0.045  0.00  0.00    -0.338 OA
BRANCH  17  18
ATOM     18  C   UNL     1       3.696  -0.683  -0.037  0.00  0.00    +0.517 C 
ATOM     31  O   UNL     1       3.714  -1.898  -0.044  0.00  0.00    -0.474 OA
BRANCH  18  19
ATOM     19  C   UNL     1       2.408   0.035  -0.021  0.00  0.00    -0.103 A 
ATOM     20  C   UNL     1       1.208  -0.680  -0.013  0.00  0.00    +0.081 A 
ATOM     21  C   UNL     1       0.002  -0.004   0.002  0.00  0.00    +0.089 A 
ATOM     24  C   UNL     1      -0.017   1.388   0.010  0.00  0.00    +0.095 A 
ATOM     27  C   UNL     1       1.178   2.103   0.002  0.00  0.00    +0.086 A 
ATOM     30  C   UNL     1       2.386   1.433  -0.013  0.00  0.00    +0.071 A 
BRANCH  21  22
ATOM     22  O   UNL     1      -1.167  -0.699   0.009  0.00  0.00    -0.484 OA
ATOM     23  H   UNL     1      -1.513  -0.896  -0.872  0.00  0.00    +0.400 HD
ENDBRANCH  21  22
BRANCH  24  25
ATOM     25  O   UNL     1      -1.203   2.050   0.019  0.00  0.00    -0.477 OA
ATOM     26  H   UNL     1      -1.543   2.237   0.905  0.00  0.00    +0.398 HD
ENDBRANCH  24  25
BRANCH  27  28
ATOM     28  O   UNL     1       1.156   3.463   0.010  0.00  0.00    -0.480 OA
ATOM     29  H   UNL     1       1.158   3.852   0.895  0.00  0.00    +0.394 HD
ENDBRANCH  27  28
ENDBRANCH  18  19
ENDBRANCH  17  18
ENDBRANCH  16  17
TORSDOF 16
