REMARK  Name = ZINC53229570
REMARK  8 active torsions:
REMARK  status: ('A' for Active; 'I' for Inactive)
REMARK    1  A    between atoms: C1_1  and  C2_2
REMARK    2  A    between atoms: C6_8  and  O3_18
REMARK    3  A    between atoms: C8_11  and  C12_16
REMARK    4  A    between atoms: C8_11  and  O2_17
REMARK    5  A    between atoms: O3_18  and  C13_19
REMARK    6  A    between atoms: C13_19  and  C14_21
REMARK    7  A    between atoms: C14_21  and  C15_22
REMARK    8  A    between atoms: C14_21  and  C16_23
REMARK                            x       y       z     vdW  Elec       q    Type
REMARK                         _______ _______ _______ _____ _____    ______ ____
ROOT
ATOM      1  C   UNL     1      -0.018   1.482   0.010  0.00  0.00    +0.118 C 
ATOM      2  C   UNL     1       0.002  -0.004   0.002  0.00  0.00    -0.126 C 
ATOM      3  C   UNL     1      -1.103  -0.747   0.077  0.00  0.00    +0.045 C 
ATOM      4  C   UNL     1      -2.471  -0.258   0.358  0.00  0.00    +0.233 C 
ATOM      5  C   UNL     1      -3.285  -1.480   0.879  0.00  0.00    +0.024 C 
ATOM      6  C   UNL     1      -4.692  -0.919   0.774  0.00  0.00    -0.217 C 
ATOM      7  C   UNL     1      -4.566   0.077  -0.314  0.00  0.00    +0.505 C 
ATOM      8  O   UNL     1      -5.492   0.719  -0.758  0.00  0.00    -0.442 OA
ATOM      9  C   UNL     1      -5.775  -1.234   1.473  0.00  0.00    +0.197 C 
ATOM     10  C   UNL     1      -2.800  -1.929   2.238  0.00  0.00    +0.209 C 
ATOM     17  C   UNL     1      -1.606  -2.868   2.070  0.00  0.00    +0.051 C 
ATOM     18  C   UNL     1      -0.239  -2.289   2.384  0.00  0.00    +0.167 C 
ATOM     21  C   UNL     1       0.179  -2.805   3.777  0.00  0.00    +0.014 C 
ATOM     22  C   UNL     1       0.787  -2.789   1.402  0.00  0.00    +0.012 C 
ATOM     23  C   UNL     1       1.389  -2.138   0.435  0.00  0.00    -0.066 C 
ATOM     24  O   UNL     1      -3.277   0.198  -0.748  0.00  0.00    -0.320 OA
ATOM     25  C   UNL     1       1.241  -0.775  -0.014  0.00  0.00    +0.413 C 
ATOM     26  O   UNL     1       2.239  -0.210  -0.448  0.00  0.00    -0.455 OA
ENDROOT
BRANCH  18  19
ATOM     19  O   UNL     1      -0.224  -0.872   2.430  0.00  0.00    -0.527 OA
ATOM     20  H   UNL     1       0.644  -0.494   2.629  0.00  0.00    +0.374 HD
ENDBRANCH  18  19
BRANCH  10  11
ATOM     11  O   UNL     1      -2.523  -0.823   3.084  0.00  0.00    -0.307 OA
BRANCH  11  12
ATOM     12  C   UNL     1      -2.690  -1.007   4.402  0.00  0.00    +0.468 C 
ATOM     16  O   UNL     1      -3.060  -2.079   4.820  0.00  0.00    -0.508 OA
BRANCH  12  13
ATOM     13  C   UNL     1      -2.415   0.122   5.362  0.00  0.00    +0.027 C 
ATOM     14  C   UNL     1      -2.681  -0.349   6.793  0.00  0.00    +0.058 C 
ATOM     15  C   UNL     1      -3.331   1.303   5.036  0.00  0.00    +0.055 C 
ENDBRANCH  12  13
ENDBRANCH  11  12
ENDBRANCH  10  11
TORSDOF 4
