REMARK  Name = ZINC00057733
REMARK  3 active torsions:
REMARK  status: ('A' for Active; 'I' for Inactive)
REMARK    1  A    between atoms: C1_1  and  O1_2
REMARK    2  A    between atoms: O1_2  and  C2_3
REMARK    3  A    between atoms: C10_13  and  O4_14
REMARK                            x       y       z     vdW  Elec       q    Type
REMARK                         _______ _______ _______ _____ _____    ______ ____
ROOT
ATOM      3  C   UNL     1       0.626  -0.619   1.042  0.00  0.00    +0.087 A 
ATOM      4  C   UNL     1       1.198   0.136   2.044  0.00  0.00    +0.012 A 
ATOM      5  C   UNL     1       1.839  -0.503   3.112  0.00  0.00    -0.128 A 
ATOM      6  C   UNL     1       2.455   0.272   4.192  0.00  0.00    +0.152 A 
ATOM      7  C   UNL     1       3.062  -0.405   5.202  0.00  0.00    -0.070 A 
ATOM      8  C   UNL     1       3.084  -1.814   5.188  0.00  0.00    +0.506 A 
ATOM      9  O   UNL     1       2.517  -2.518   4.195  0.00  0.00    -0.267 OA
ATOM     10  O   UNL     1       3.631  -2.409   6.099  0.00  0.00    -0.460 OA
ATOM     11  C   UNL     1       1.898  -1.908   3.162  0.00  0.00    +0.129 A 
ATOM     12  C   UNL     1       1.318  -2.653   2.146  0.00  0.00    +0.034 A 
ATOM     13  C   UNL     1       0.681  -2.015   1.096  0.00  0.00    +0.140 A 
ENDROOT
BRANCH   3   2
ATOM      1  C   UNL     1      -0.017   1.425   0.010  0.00  0.00    +0.245 C 
ATOM      2  O   UNL     1       0.002  -0.004   0.002  0.00  0.00    -0.302 OA
ENDBRANCH   3   2
BRANCH  13  14
ATOM     14  O   UNL     1       0.111  -2.750   0.107  0.00  0.00    -0.477 OA
ATOM     15  H   UNL     1       0.706  -2.950  -0.628  0.00  0.00    +0.399 HD
ENDBRANCH  13  14
TORSDOF 2
