REMARK  Name = ZINC06018563
REMARK  5 active torsions:
REMARK  status: ('A' for Active; 'I' for Inactive)
REMARK    1  A    between atoms: C1_1  and  O1_2
REMARK    2  A    between atoms: O1_2  and  C2_3
REMARK    3  A    between atoms: C5_6  and  C8_10
REMARK    4  A    between atoms: C7_8  and  O2_9
REMARK    5  A    between atoms: C12_15  and  O5_21
REMARK                            x       y       z     vdW  Elec       q    Type
REMARK                         _______ _______ _______ _____ _____    ______ ____
ROOT
ATOM      7  C   UNL     1       2.582  -2.539   4.299  0.00  0.00    -0.239 A 
ATOM      8  C   UNL     1       1.889  -3.317   5.171  0.00  0.00    +0.333 A 
ATOM      9  O   UNL     1       2.468  -3.946   6.196  0.00  0.00    -0.216 OA
ATOM     10  C   UNL     1       3.703  -3.619   6.622  0.00  0.00    +0.159 A 
ATOM     11  C   UNL     1       4.161  -4.048   7.861  0.00  0.00    -0.019 A 
ATOM     12  C   UNL     1       5.437  -3.710   8.278  0.00  0.00    +0.173 A 
ATOM     15  C   UNL     1       6.270  -2.942   7.467  0.00  0.00    -0.027 A 
ATOM     16  C   UNL     1       5.834  -2.508   6.248  0.00  0.00    +0.133 A 
ATOM     17  C   UNL     1       4.549  -2.837   5.816  0.00  0.00    -0.229 A 
ATOM     18  C   UNL     1       4.034  -2.380   4.510  0.00  0.00    +0.431 A 
ATOM     19  O   UNL     1       4.762  -1.899   3.659  0.00  0.00    -0.447 OA
ENDROOT
BRANCH   7   6
ATOM      3  C   UNL     1       0.626  -0.619   1.042  0.00  0.00    +0.110 A 
ATOM      4  C   UNL     1       1.202   0.140   2.050  0.00  0.00    -0.056 A 
ATOM      5  C   UNL     1       1.837  -0.480   3.107  0.00  0.00    +0.067 A 
ATOM      6  C   UNL     1       1.900  -1.872   3.164  0.00  0.00    -0.048 A 
ATOM     20  C   UNL     1       1.321  -2.635   2.151  0.00  0.00    +0.048 A 
ATOM     21  C   UNL     1       0.681  -2.009   1.096  0.00  0.00    +0.076 A 
BRANCH   3   2
ATOM      1  C   UNL     1      -0.017   1.425   0.010  0.00  0.00    +0.241 C 
ATOM      2  O   UNL     1       0.002  -0.004   0.002  0.00  0.00    -0.306 OA
ENDBRANCH   3   2
BRANCH  21  22
ATOM     22  O   UNL     1       0.111  -2.751   0.110  0.00  0.00    -0.485 OA
ATOM     23  H   UNL     1       0.707  -2.953  -0.625  0.00  0.00    +0.389 HD
ENDBRANCH  21  22
ENDBRANCH   7   6
BRANCH  12  13
ATOM     13  O   UNL     1       5.881  -4.131   9.490  0.00  0.00    -0.491 OA
ATOM     14  H   UNL     1       6.327  -4.989   9.469  0.00  0.00    +0.403 HD
ENDBRANCH  12  13
TORSDOF 4
