REMARK  Name = ZINC95486114
REMARK  9 active torsions:
REMARK  status: ('A' for Active; 'I' for Inactive)
REMARK    1  A    between atoms: C1_1  and  C2_2
REMARK    2  A    between atoms: C5_5  and  O4_37
REMARK    3  A    between atoms: C6_7  and  C29_35
REMARK    4  A    between atoms: C6_7  and  O3_36
REMARK    5  A    between atoms: C10_12  and  C28_34
REMARK    6  A    between atoms: C14_17  and  C27_33
REMARK    7  A    between atoms: C18_21  and  C26_30
REMARK    8  A    between atoms: C21_25  and  C24_28
REMARK    9  A    between atoms: C21_25  and  C25_29
REMARK                            x       y       z     vdW  Elec       q    Type
REMARK                         _______ _______ _______ _____ _____    ______ ____
ROOT
ATOM      1  C   UNL     1      -0.848   1.366  -0.873  0.00  0.00    +0.034 C 
ATOM      2  C   UNL     1      -0.883  -0.152  -0.921  0.00  0.00    -0.036 C 
ATOM      3  C   UNL     1      -2.350  -0.584  -1.112  0.00  0.00    +0.015 C 
ATOM      4  C   UNL     1      -3.184  -0.137   0.085  0.00  0.00    -0.012 C 
ATOM      5  C   UNL     1      -2.663  -0.777   1.366  0.00  0.00    +0.136 C 
ATOM      8  C   UNL     1      -1.187  -0.434   1.590  0.00  0.00    +0.161 C 
ATOM     11  C   UNL     1      -0.706  -1.273   2.790  0.00  0.00    +0.002 C 
ATOM     12  C   UNL     1      -0.064  -0.728  -2.077  0.00  0.00    -0.001 C 
ATOM     13  C   UNL     1      -0.567  -0.326  -3.443  0.00  0.00    +0.004 C 
ATOM     14  C   UNL     1       0.161  -1.013  -4.591  0.00  0.00    +0.016 C 
ATOM     15  C   UNL     1       1.308  -1.921  -4.161  0.00  0.00    +0.015 C 
ATOM     16  C   UNL     1       0.697  -3.204  -3.584  0.00  0.00    +0.005 C 
ATOM     17  C   UNL     1       2.128  -1.262  -3.096  0.00  0.00    -0.115 C 
ATOM     18  C   UNL     1       3.435  -1.237  -3.094  0.00  0.00    -0.015 C 
ATOM     19  C   UNL     1       4.232  -1.809  -4.238  0.00  0.00    +0.048 C 
ATOM     20  C   UNL     1       3.415  -1.553  -5.510  0.00  0.00    -0.113 C 
ATOM     24  C   UNL     1       4.219  -1.990  -6.733  0.00  0.00    +0.015 C 
ATOM     25  C   UNL     1       4.553  -3.472  -6.639  0.00  0.00    +0.002 C 
ATOM     26  C   UNL     1       3.272  -4.294  -6.555  0.00  0.00    -0.065 C 
ATOM     27  C   UNL     1       2.486  -4.191  -7.865  0.00  0.00    +0.016 C 
ATOM     28  C   UNL     1       3.650  -5.768  -6.331  0.00  0.00    +0.006 C 
ATOM     29  C   UNL     1       2.398  -3.842  -5.384  0.00  0.00    +0.017 C 
ATOM     30  C   UNL     1       2.119  -2.346  -5.389  0.00  0.00    +0.019 C 
ATOM     31  C   UNL     1       1.435  -0.542  -1.940  0.00  0.00    +0.003 C 
ATOM     32  C   UNL     1       1.882   0.927  -2.025  0.00  0.00    +0.032 C 
ATOM     33  C   UNL     1       1.905  -1.142  -0.615  0.00  0.00    +0.013 C 
ATOM     34  C   UNL     1       1.122  -0.513   0.546  0.00  0.00    +0.021 C 
ATOM     35  C   UNL     1      -0.366  -0.797   0.367  0.00  0.00    +0.014 C 
ENDROOT
BRANCH  20  21
ATOM     21  C   UNL     1       3.135  -0.073  -5.644  0.00  0.00    +0.514 C 
ATOM     22  O   UNL     1       2.386   0.329  -6.518  0.00  0.00    -0.704 OA
ATOM     23  O   UNL     1       3.658   0.718  -4.878  0.00  0.00    -0.686 OA
ENDBRANCH  20  21
BRANCH   5   6
ATOM      6  O   UNL     1      -3.427  -0.306   2.479  0.00  0.00    -0.570 OA
ATOM      7  H   UNL     1      -4.371  -0.508   2.423  0.00  0.00    +0.378 HD
ENDBRANCH   5   6
BRANCH   8   9
ATOM      9  O   UNL     1      -1.055   0.945   1.933  0.00  0.00    -0.541 OA
ATOM     10  H   UNL     1      -1.527   1.197   2.738  0.00  0.00    +0.375 HD
ENDBRANCH   8   9
TORSDOF 3
