REMARK  Name = ZINC38143792
REMARK  11 active torsions:
REMARK  status: ('A' for Active; 'I' for Inactive)
REMARK    1  A    between atoms: C1_1  and  C2_2
REMARK    2  A    between atoms: C5_6  and  C30_39
REMARK    3  A    between atoms: C8_9  and  C29_38
REMARK    4  A    between atoms: C13_15  and  C25_32
REMARK    5  A    between atoms: C17_20  and  C24_31
REMARK    6  A    between atoms: C19_22  and  O2_30
REMARK    7  A    between atoms: C20_24  and  O1_29
REMARK    8  A    between atoms: C21_26  and  C22_27
REMARK    9  A    between atoms: C21_26  and  C23_28
REMARK   10  A    between atoms: C27_35  and  C28_36
REMARK   11  A    between atoms: C27_35  and  O3_37
REMARK                            x       y       z     vdW  Elec       q    Type
REMARK                         _______ _______ _______ _____ _____    ______ ____
ROOT
ATOM      1  C   UNL     1      -1.254   0.514   1.004  0.00  0.00    +0.011 C 
ATOM      2  C   UNL     1      -1.302  -1.002   1.189  0.00  0.00    -0.050 C 
ATOM      3  C   UNL     1      -2.734  -1.438   1.509  0.00  0.00    +0.003 C 
ATOM      4  C   UNL     1      -2.778  -2.957   1.622  0.00  0.00    +0.020 C 
ATOM      5  C   UNL     1      -1.827  -3.484   2.692  0.00  0.00    -0.110 C 
ATOM      9  C   UNL     1      -2.370  -3.214   4.089  0.00  0.00    +0.012 C 
ATOM     10  C   UNL     1      -1.510  -3.898   5.152  0.00  0.00    +0.021 C 
ATOM     11  C   UNL     1      -0.052  -3.467   5.083  0.00  0.00    +0.025 C 
ATOM     12  C   UNL     1       0.050  -2.074   5.715  0.00  0.00    +0.012 C 
ATOM     13  C   UNL     1       0.455  -3.379   3.676  0.00  0.00    -0.013 C 
ATOM     14  C   UNL     1       1.670  -3.740   3.342  0.00  0.00    -0.121 C 
ATOM     15  C   UNL     1       2.695  -4.298   4.282  0.00  0.00    +0.052 C 
ATOM     16  C   UNL     1       2.284  -4.027   5.729  0.00  0.00    +0.005 C 
ATOM     17  C   UNL     1       3.263  -4.673   6.712  0.00  0.00    -0.028 C 
ATOM     18  C   UNL     1       3.476  -6.149   6.402  0.00  0.00    +0.024 C 
ATOM     19  C   UNL     1       4.616  -3.955   6.561  0.00  0.00    +0.042 C 
ATOM     20  C   UNL     1       5.602  -4.499   7.592  0.00  0.00    +0.141 C 
ATOM     23  C   UNL     1       5.101  -4.213   9.002  0.00  0.00    +0.137 C 
ATOM     26  C   UNL     1       3.702  -4.777   9.246  0.00  0.00    -0.036 C 
ATOM     27  C   UNL     1       3.785  -6.277   9.529  0.00  0.00    +0.030 C 
ATOM     28  C   UNL     1       3.182  -4.102  10.540  0.00  0.00    +0.026 C 
ATOM     29  C   UNL     1       2.745  -4.443   8.126  0.00  0.00    +0.006 C 
ATOM     30  C   UNL     1       1.381  -5.113   8.284  0.00  0.00    +0.007 C 
ATOM     31  C   UNL     1       0.390  -4.361   7.382  0.00  0.00    +0.009 C 
ATOM     32  C   UNL     1       0.826  -4.415   5.924  0.00  0.00    -0.027 C 
ATOM     33  C   UNL     1       0.584  -5.838   5.395  0.00  0.00    +0.036 C 
ATOM     34  C   UNL     1      -0.426  -2.904   2.540  0.00  0.00    +0.058 C 
ATOM     35  C   UNL     1      -0.415  -1.395   2.383  0.00  0.00    +0.155 C 
ATOM     38  C   UNL     1       1.008  -0.898   2.103  0.00  0.00    -0.004 C 
ENDROOT
BRANCH   5   6
ATOM      6  C   UNL     1      -1.735  -4.988   2.490  0.00  0.00    +0.495 C 
ATOM      7  O   UNL     1      -1.031  -5.660   3.223  0.00  0.00    -0.668 OA
ATOM      8  O   UNL     1      -2.366  -5.522   1.593  0.00  0.00    -0.707 OA
ENDBRANCH   5   6
BRANCH  20  21
ATOM     21  O   UNL     1       6.867  -3.843   7.407  0.00  0.00    -0.571 OA
ATOM     22  H   UNL     1       7.553  -4.132   8.024  0.00  0.00    +0.370 HD
ENDBRANCH  20  21
BRANCH  23  24
ATOM     24  O   UNL     1       5.087  -2.799   9.227  0.00  0.00    -0.553 OA
ATOM     25  H   UNL     1       5.954  -2.379   9.142  0.00  0.00    +0.373 HD
ENDBRANCH  23  24
BRANCH  35  36
ATOM     36  O   UNL     1      -0.925  -0.722   3.531  0.00  0.00    -0.536 OA
ATOM     37  H   UNL     1      -0.924   0.242   3.455  0.00  0.00    +0.356 HD
ENDBRANCH  35  36
TORSDOF 4
