REMARK  Name = ZINC95486195
REMARK  9 active torsions:
REMARK  status: ('A' for Active; 'I' for Inactive)
REMARK    1  A    between atoms: C1_1  and  C2_2
REMARK    2  A    between atoms: C4_4  and  O4_30
REMARK    3  A    between atoms: C7_7  and  C8_8
REMARK    4  A    between atoms: C9_9  and  O2_23
REMARK    5  A    between atoms: C11_11  and  O1_22
REMARK    6  A    between atoms: C15_15  and  C18_21
REMARK    7  A    between atoms: C16_18  and  C17_20
REMARK    8  A    between atoms: C22_27  and  O3_28
REMARK    9  A    between atoms: O3_28  and  C23_29
REMARK                            x       y       z     vdW  Elec       q    Type
REMARK                         _______ _______ _______ _____ _____    ______ ____
ROOT
ATOM     16  C   UNL     1       0.253  -0.186   2.934  0.00  0.00    -0.050 A 
ATOM     17  C   UNL     1       1.382   0.141   3.692  0.00  0.00    +0.171 A 
ATOM     20  C   UNL     1       1.234   0.865   4.861  0.00  0.00    -0.016 A 
ATOM     21  C   UNL     1      -0.027   1.260   5.275  0.00  0.00    +0.160 A 
ATOM     24  C   UNL     1      -1.155   0.936   4.523  0.00  0.00    -0.164 A 
ATOM     25  C   UNL     1      -2.503   1.386   5.021  0.00  0.00    +0.239 C 
ATOM     26  C   UNL     1      -2.390   2.812   5.565  0.00  0.00    +0.093 C 
ATOM     27  N   UNL     1      -3.485   1.375   3.928  0.00  0.00    -0.504 N 
ATOM     28  H   UNL     1      -4.401   1.583   4.297  0.00  0.00    +0.432 HD
ATOM     29  H   UNL     1      -3.235   2.062   3.233  0.00  0.00    +0.429 HD
ATOM     30  C   UNL     1      -3.493   0.037   3.317  0.00  0.00    +0.180 C 
ATOM     31  C   UNL     1      -3.558  -1.031   4.410  0.00  0.00    +0.089 C 
ATOM     32  C   UNL     1      -2.208  -0.136   2.505  0.00  0.00    +0.132 C 
ATOM     33  C   UNL     1      -1.016   0.223   3.355  0.00  0.00    -0.041 A 
ENDROOT
BRANCH  16  15
ATOM      1  C   UNL     1       0.656   1.199   0.448  0.00  0.00    +0.095 C 
ATOM      2  C   UNL     1       0.597  -0.307   0.477  0.00  0.00    -0.029 A 
ATOM      3  C   UNL     1       0.744  -1.023  -0.705  0.00  0.00    -0.033 A 
ATOM      4  C   UNL     1       0.694  -2.400  -0.708  0.00  0.00    +0.171 A 
ATOM      7  C   UNL     1       0.491  -3.098   0.499  0.00  0.00    -0.107 A 
ATOM      8  C   UNL     1       0.341  -2.375   1.706  0.00  0.00    +0.027 A 
ATOM      9  C   UNL     1       0.141  -3.070   2.908  0.00  0.00    -0.041 A 
ATOM     10  C   UNL     1       0.092  -4.432   2.906  0.00  0.00    +0.075 A 
ATOM     11  C   UNL     1       0.239  -5.153   1.725  0.00  0.00    -0.098 A 
ATOM     12  C   UNL     1       0.437  -4.505   0.525  0.00  0.00    +0.165 A 
ATOM     15  C   UNL     1       0.402  -0.961   1.681  0.00  0.00    -0.082 A 
BRANCH   4   5
ATOM      5  O   UNL     1       0.839  -3.083  -1.873  0.00  0.00    -0.480 OA
ATOM      6  H   UNL     1       1.755  -3.312  -2.083  0.00  0.00    +0.399 HD
ENDBRANCH   4   5
BRANCH  12  13
ATOM     13  O   UNL     1       0.579  -5.218  -0.622  0.00  0.00    -0.294 OA
ATOM     14  C   UNL     1       0.511  -6.641  -0.514  0.00  0.00    +0.248 C 
ENDBRANCH  12  13
ENDBRANCH  16  15
BRANCH  17  18
ATOM     18  O   UNL     1       2.616  -0.251   3.282  0.00  0.00    -0.480 OA
ATOM     19  H   UNL     1       3.062   0.387   2.708  0.00  0.00    +0.402 HD
ENDBRANCH  17  18
BRANCH  21  22
ATOM     22  O   UNL     1      -0.167   1.971   6.425  0.00  0.00    -0.490 OA
ATOM     23  H   UNL     1      -0.034   2.923   6.318  0.00  0.00    +0.402 HD
ENDBRANCH  21  22
TORSDOF 5
