REMARK  Name = ZINC95486342
REMARK  9 active torsions:
REMARK  status: ('A' for Active; 'I' for Inactive)
REMARK    1  A    between atoms: C3_3  and  O10_36
REMARK    2  A    between atoms: C4_4  and  O9_35
REMARK    3  A    between atoms: C6_6  and  C7_7
REMARK    4  A    between atoms: C8_9  and  C16_22
REMARK    5  A    between atoms: C11_14  and  O4_21
REMARK    6  A    between atoms: C13_16  and  O3_20
REMARK    7  A    between atoms: C17_24  and  O8_34
REMARK    8  A    between atoms: C18_26  and  O7_33
REMARK    9  A    between atoms: C19_28  and  O6_32
REMARK                            x       y       z     vdW  Elec       q    Type
REMARK                         _______ _______ _______ _____ _____    ______ ____
ROOT
ATOM     11  C   UNL     1      -1.294  -0.774   0.010  0.00  0.00    +0.244 C 
ATOM     12  C   UNL     1      -1.813  -0.918  -1.428  0.00  0.00    -0.024 C 
ATOM     25  C   UNL     1      -3.132  -1.667  -1.356  0.00  0.00    +0.432 C 
ATOM     26  C   UNL     1      -4.030  -1.311  -0.252  0.00  0.00    -0.265 A 
ATOM     27  C   UNL     1      -5.362  -1.754  -0.241  0.00  0.00    +0.223 A 
ATOM     30  C   UNL     1      -6.184  -1.414   0.818  0.00  0.00    -0.085 A 
ATOM     31  C   UNL     1      -5.692  -0.638   1.861  0.00  0.00    +0.190 A 
ATOM     34  C   UNL     1      -4.376  -0.193   1.853  0.00  0.00    -0.063 A 
ATOM     35  C   UNL     1      -3.537  -0.519   0.802  0.00  0.00    +0.229 A 
ATOM     36  O   UNL     1      -3.427  -2.517  -2.170  0.00  0.00    -0.416 OA
ATOM     37  O   UNL     1      -2.259  -0.073   0.794  0.00  0.00    -0.283 OA
ENDROOT
BRANCH  11  10
ATOM      1  C   UNL     1      -0.017   1.378   0.010  0.00  0.00    +0.056 A 
ATOM      2  C   UNL     1       1.170   2.089   0.002  0.00  0.00    +0.006 A 
ATOM      3  C   UNL     1       2.380   1.415  -0.013  0.00  0.00    +0.092 A 
ATOM      6  C   UNL     1       2.399   0.024  -0.021  0.00  0.00    +0.083 A 
ATOM      9  C   UNL     1       1.207  -0.682  -0.013  0.00  0.00    +0.026 A 
ATOM     10  C   UNL     1       0.002  -0.004   0.002  0.00  0.00    -0.085 A 
BRANCH   3   4
ATOM      4  O   UNL     1       3.548   2.113  -0.021  0.00  0.00    -0.487 OA
ATOM      5  H   UNL     1       3.894   2.310   0.860  0.00  0.00    +0.391 HD
ENDBRANCH   3   4
BRANCH   6   7
ATOM      7  O   UNL     1       3.585  -0.642  -0.036  0.00  0.00    -0.485 OA
ATOM      8  H   UNL     1       3.937  -0.839   0.843  0.00  0.00    +0.390 HD
ENDBRANCH   6   7
ENDBRANCH  11  10
BRANCH  12  13
ATOM     13  C   UNL     1      -2.031   0.466  -2.044  0.00  0.00    +0.203 C 
ATOM     14  C   UNL     1      -2.549   0.310  -3.476  0.00  0.00    +0.162 C 
ATOM     17  C   UNL     1      -2.821   1.698  -4.066  0.00  0.00    +0.153 C 
ATOM     20  C   UNL     1      -3.816   2.437  -3.165  0.00  0.00    +0.124 C 
ATOM     23  C   UNL     1      -3.249   2.510  -1.744  0.00  0.00    +0.196 C 
ATOM     24  O   UNL     1      -2.989   1.188  -1.268  0.00  0.00    -0.342 OA
BRANCH  14  15
ATOM     15  O   UNL     1      -3.758  -0.452  -3.467  0.00  0.00    -0.534 OA
ATOM     16  H   UNL     1      -4.143  -0.589  -4.343  0.00  0.00    +0.387 HD
ENDBRANCH  14  15
BRANCH  17  18
ATOM     18  O   UNL     1      -3.373   1.560  -5.377  0.00  0.00    -0.559 OA
ATOM     19  H   UNL     1      -3.570   2.402  -5.811  0.00  0.00    +0.392 HD
ENDBRANCH  17  18
BRANCH  20  21
ATOM     21  O   UNL     1      -4.023   3.759  -3.666  0.00  0.00    -0.564 OA
ATOM     22  H   UNL     1      -4.643   4.285  -3.143  0.00  0.00    +0.386 HD
ENDBRANCH  20  21
ENDBRANCH  12  13
BRANCH  27  28
ATOM     28  O   UNL     1      -5.839  -2.508  -1.262  0.00  0.00    -0.476 OA
ATOM     29  H   UNL     1      -5.731  -3.460  -1.131  0.00  0.00    +0.398 HD
ENDBRANCH  27  28
BRANCH  31  32
ATOM     32  O   UNL     1      -6.505  -0.312   2.897  0.00  0.00    -0.493 OA
ATOM     33  H   UNL     1      -6.490  -0.950   3.624  0.00  0.00    +0.400 HD
ENDBRANCH  31  32
TORSDOF 9
