REMARK  Name = ZINC13480351
REMARK  11 active torsions:
REMARK  status: ('A' for Active; 'I' for Inactive)
REMARK    1  A    between atoms: C1_1  and  C2_2
REMARK    2  A    between atoms: C2_2  and  C22_28
REMARK    3  A    between atoms: C3_3  and  C4_4
REMARK    4  A    between atoms: C4_4  and  O1_5
REMARK    5  A    between atoms: O1_5  and  C5_6
REMARK    6  A    between atoms: C11_12  and  O3_17
REMARK    7  A    between atoms: C13_14  and  O2_16
REMARK    8  A    between atoms: C17_21  and  C19_23
REMARK    9  A    between atoms: C17_21  and  O5_24
REMARK   10  A    between atoms: O5_24  and  C20_25
REMARK   11  A    between atoms: C20_25  and  C21_27
REMARK                            x       y       z     vdW  Elec       q    Type
REMARK                         _______ _______ _______ _____ _____    ______ ____
ROOT
ATOM      7  C   UNL     1      -2.433   0.919   6.087  0.00  0.00    +0.174 A 
ATOM      8  C   UNL     1      -2.128   0.440   4.830  0.00  0.00    -0.031 A 
ATOM      9  C   UNL     1      -2.556   1.140   3.693  0.00  0.00    +0.046 A 
ATOM     10  C   UNL     1      -2.251   0.671   2.400  0.00  0.00    +0.004 A 
ATOM     11  C   UNL     1      -2.668   1.351   1.299  0.00  0.00    -0.003 A 
ATOM     12  C   UNL     1      -3.418   2.535   1.442  0.00  0.00    -0.224 A 
ATOM     13  C   UNL     1      -3.876   3.263   0.252  0.00  0.00    +0.409 C 
ATOM     14  C   UNL     1      -3.297   2.860  -1.088  0.00  0.00    +0.030 C 
ATOM     15  C   UNL     1      -3.263   1.327  -1.131  0.00  0.00    +0.137 C 
ATOM     20  C   UNL     1      -4.667   0.778  -0.868  0.00  0.00    +0.045 C 
ATOM     21  O   UNL     1      -4.691   4.158   0.339  0.00  0.00    -0.435 OA
ATOM     22  C   UNL     1      -3.736   3.031   2.710  0.00  0.00    +0.226 A 
ATOM     25  C   UNL     1      -2.306   0.811  -0.060  0.00  0.00    +0.126 C 
ATOM     26  C   UNL     1      -3.304   2.333   3.852  0.00  0.00    -0.156 A 
ATOM     27  C   UNL     1      -3.602   2.803   5.147  0.00  0.00    +0.190 A 
ATOM     30  C   UNL     1      -3.167   2.095   6.245  0.00  0.00    -0.095 A 
ENDROOT
BRANCH  22  23
ATOM     23  O   UNL     1      -4.454   4.171   2.838  0.00  0.00    -0.463 OA
ATOM     24  H   UNL     1      -5.411   4.032   2.871  0.00  0.00    +0.398 HD
ENDBRANCH  22  23
BRANCH  27  28
ATOM     28  O   UNL     1      -4.315   3.946   5.310  0.00  0.00    -0.477 OA
ATOM     29  H   UNL     1      -5.271   3.810   5.354  0.00  0.00    +0.395 HD
ENDBRANCH  27  28
BRANCH   7   6
ATOM      6  O   UNL     1      -2.016   0.236   7.184  0.00  0.00    -0.303 OA
BRANCH   6   5
ATOM      5  C   UNL     1      -2.363   0.781   8.459  0.00  0.00    +0.233 C 
BRANCH   5   4
ATOM      1  C   UNL     1      -1.172   1.924  10.745  0.00  0.00    +0.078 C 
ATOM      2  C   UNL     1      -1.215   0.426  10.584  0.00  0.00    -0.102 C 
ATOM      3  C   UNL     1      -0.563  -0.461  11.613  0.00  0.00    +0.086 C 
ATOM      4  C   UNL     1      -1.819  -0.104   9.549  0.00  0.00    -0.057 C 
ENDBRANCH   5   4
ENDBRANCH   6   5
ENDBRANCH   7   6
BRANCH  15  16
ATOM     16  O   UNL     1      -2.809   0.888  -2.438  0.00  0.00    -0.345 OA
BRANCH  16  17
ATOM     17  C   UNL     1      -3.546   1.261  -3.496  0.00  0.00    +0.461 C 
ATOM     18  C   UNL     1      -3.137   0.843  -4.885  0.00  0.00    +0.156 C 
ATOM     19  O   UNL     1      -4.539   1.931  -3.335  0.00  0.00    -0.504 OA
ENDBRANCH  16  17
ENDBRANCH  15  16
TORSDOF 7
