REMARK  Name = ZINC95486226
REMARK  6 active torsions:
REMARK  status: ('A' for Active; 'I' for Inactive)
REMARK    1  A    between atoms: C1_1  and  C2_2
REMARK    2  A    between atoms: C2_2  and  C3_3
REMARK    3  A    between atoms: C5_6  and  C18_29
REMARK    4  A    between atoms: C6_8  and  C17_26
REMARK    5  A    between atoms: C6_8  and  O6_28
REMARK    6  A    between atoms: C17_26  and  O5_27
REMARK                            x       y       z     vdW  Elec       q    Type
REMARK                         _______ _______ _______ _____ _____    ______ ____
ROOT
ATOM      3  C   UNL     1       0.797  -0.451  -1.232  0.00  0.00    +0.028 C 
ATOM      4  C   UNL     1       0.668  -1.973  -1.313  0.00  0.00    +0.055 C 
ATOM      5  C   UNL     1       1.303  -2.605  -0.072  0.00  0.00    +0.029 C 
ATOM      6  C   UNL     1       0.228  -3.336   0.734  0.00  0.00    +0.050 C 
ATOM      7  C   UNL     1       2.382  -3.599  -0.505  0.00  0.00    +0.163 C 
ATOM     13  C   UNL     1       3.623  -3.385   0.323  0.00  0.00    +0.469 C 
ATOM     14  O   UNL     1       4.807  -3.190  -0.278  0.00  0.00    -0.330 OA
ATOM     15  C   UNL     1       5.665  -2.199   0.291  0.00  0.00    +0.289 C 
ATOM     16  C   UNL     1       6.036  -1.188  -0.766  0.00  0.00    -0.148 C 
ATOM     17  C   UNL     1       6.472  -1.485  -1.964  0.00  0.00    -0.003 C 
ATOM     18  C   UNL     1       6.739  -0.212  -2.702  0.00  0.00    +0.194 C 
ATOM     19  N   UNL     1       6.207   0.947  -1.928  0.00  0.00    -0.434 NA
ATOM     20  C   UNL     1       4.832   1.187  -2.508  0.00  0.00    +0.152 C 
ATOM     21  C   UNL     1       3.978   1.556  -1.280  0.00  0.00    +0.213 C 
ATOM     22  O   UNL     1       2.621   1.184  -1.496  0.00  0.00    -0.333 OA
ATOM     23  C   UNL     1       4.577   0.755  -0.109  0.00  0.00    +0.015 C 
ATOM     24  C   UNL     1       5.953   0.304  -0.607  0.00  0.00    +0.174 C 
ATOM     25  O   UNL     1       3.551  -3.389   1.529  0.00  0.00    -0.488 OA
ATOM     26  C   UNL     1       2.255  -0.070  -1.187  0.00  0.00    +0.462 C 
ATOM     27  O   UNL     1       3.087  -0.887  -0.874  0.00  0.00    -0.478 OA
ENDROOT
BRANCH   3   2
ATOM      1  C   UNL     1       0.117   1.583   0.049  0.00  0.00    +0.022 C 
ATOM      2  C   UNL     1       0.098   0.053   0.032  0.00  0.00    +0.038 C 
ENDBRANCH   3   2
BRANCH   7   8
ATOM      8  O   UNL     1       1.906  -4.932  -0.313  0.00  0.00    -0.530 OA
ATOM      9  H   UNL     1       2.540  -5.617  -0.567  0.00  0.00    +0.386 HD
ENDBRANCH   7   8
BRANCH   7  10
ATOM     10  C   UNL     1       2.712  -3.383  -1.983  0.00  0.00    +0.186 C 
BRANCH  10  11
ATOM     11  O   UNL     1       3.823  -4.204  -2.348  0.00  0.00    -0.560 OA
ATOM     12  H   UNL     1       4.088  -4.118  -3.274  0.00  0.00    +0.380 HD
ENDBRANCH  10  11
ENDBRANCH   7  10
TORSDOF 4
