REMARK  Name = ZINC95486256
REMARK  20 active torsions:
REMARK  status: ('A' for Active; 'I' for Inactive)
REMARK    1  A    between atoms: C3_3  and  O9_37
REMARK    2  A    between atoms: C4_4  and  O8_36
REMARK    3  A    between atoms: C6_6  and  C7_7
REMARK    4  A    between atoms: C8_8  and  C9_9
REMARK    5  A    between atoms: C9_9  and  C10_10
REMARK    6  A    between atoms: C11_11  and  C12_12
REMARK    7  A    between atoms: C15_15  and  O2_19
REMARK    8  A    between atoms: C16_16  and  O1_18
REMARK    9  A    between atoms: O2_19  and  C18_20
REMARK   10  A    between atoms: C19_22  and  O7_35
REMARK   11  A    between atoms: C20_24  and  O6_34
REMARK   12  A    between atoms: C21_26  and  O5_33
REMARK   13  A    between atoms: C22_28  and  C23_31
REMARK   14  A    between atoms: C23_31  and  O4_32
REMARK   15  A    between atoms: O9_37  and  C24_38
REMARK   16  A    between atoms: C26_41  and  O14_51
REMARK   17  A    between atoms: C27_43  and  O13_50
REMARK   18  A    between atoms: C28_45  and  C29_47
REMARK   19  A    between atoms: C28_45  and  O12_49
REMARK   20  A    between atoms: C29_47  and  O11_48
REMARK                            x       y       z     vdW  Elec       q    Type
REMARK                         _______ _______ _______ _____ _____    ______ ____
ROOT
ATOM     27  C   UNL     1      -3.718  -0.889   0.034  0.00  0.00    +0.221 C 
ENDROOT
BRANCH  27  26
ATOM     25  C   UNL     1      -1.267  -0.762   0.011  0.00  0.00    +0.019 C 
ATOM     26  C   UNL     1      -2.425  -0.116   0.026  0.00  0.00    -0.031 C 
BRANCH  25  24
ATOM      1  C   UNL     1      -0.017   1.391   0.010  0.00  0.00    +0.047 A 
ATOM      2  C   UNL     1       1.169   2.097   0.002  0.00  0.00    -0.044 A 
ATOM      3  C   UNL     1       2.380   1.424  -0.013  0.00  0.00    +0.111 A 
ATOM     20  C   UNL     1       2.406   0.031  -0.021  0.00  0.00    +0.079 A 
ATOM     23  C   UNL     1       1.222  -0.683  -0.014  0.00  0.00    +0.035 A 
ATOM     24  C   UNL     1       0.002  -0.004   0.002  0.00  0.00    -0.080 A 
BRANCH  20  21
ATOM     21  O   UNL     1       3.596  -0.627  -0.037  0.00  0.00    -0.479 OA
ATOM     22  H   UNL     1       3.949  -0.823   0.842  0.00  0.00    +0.382 HD
ENDBRANCH  20  21
BRANCH   3   4
ATOM      4  O   UNL     1       3.546   2.124  -0.020  0.00  0.00    -0.285 OA
BRANCH   4   5
ATOM      5  C   UNL     1       3.446   3.549  -0.012  0.00  0.00    +0.355 C 
ATOM      6  C   UNL     1       4.846   4.158   0.103  0.00  0.00    +0.024 C 
ATOM      7  C   UNL     1       5.671   3.757  -1.123  0.00  0.00    +0.143 C 
ATOM     10  C   UNL     1       4.940   4.216  -2.389  0.00  0.00    +0.186 C 
ATOM     13  C   UNL     1       3.537   3.605  -2.408  0.00  0.00    +0.309 C 
ATOM     19  O   UNL     1       2.834   3.991  -1.225  0.00  0.00    -0.383 OA
BRANCH   7   8
ATOM      8  O   UNL     1       5.830   2.337  -1.149  0.00  0.00    -0.519 OA
ATOM      9  H   UNL     1       6.281   1.978  -0.373  0.00  0.00    +0.375 HD
ENDBRANCH   7   8
BRANCH  10  11
ATOM     11  O   UNL     1       4.842   5.641  -2.393  0.00  0.00    -0.544 OA
ATOM     12  H   UNL     1       5.696   6.095  -2.378  0.00  0.00    +0.388 HD
ENDBRANCH  10  11
BRANCH  13  14
ATOM     14  O   UNL     1       3.638   2.180  -2.458  0.00  0.00    -0.522 OA
ATOM     15  H   UNL     1       2.784   1.725  -2.472  0.00  0.00    +0.383 HD
ENDBRANCH  13  14
BRANCH  13  16
ATOM     16  C   UNL     1       2.778   4.106  -3.639  0.00  0.00    +0.200 C 
BRANCH  16  17
ATOM     17  O   UNL     1       1.468   3.535  -3.656  0.00  0.00    -0.564 OA
ATOM     18  H   UNL     1       0.930   3.810  -4.411  0.00  0.00    +0.384 HD
ENDBRANCH  16  17
ENDBRANCH  13  16
ENDBRANCH   4   5
ENDBRANCH   3   4
ENDBRANCH  25  24
ENDBRANCH  27  26
BRANCH  27  28
ATOM     28  C   UNL     1      -4.536  -0.463   1.182  0.00  0.00    -0.151 C 
ATOM     29  C   UNL     1      -5.189  -0.123   2.097  0.00  0.00    -0.139 C 
BRANCH  29  30
ATOM     30  C   UNL     1      -5.985   0.291   3.213  0.00  0.00    -0.000 A 
ATOM     31  C   UNL     1      -5.513   1.277   4.080  0.00  0.00    +0.067 A 
ATOM     32  C   UNL     1      -6.281   1.675   5.155  0.00  0.00    -0.029 A 
ATOM     33  C   UNL     1      -7.522   1.097   5.377  0.00  0.00    +0.114 A 
ATOM     50  C   UNL     1      -7.998   0.112   4.515  0.00  0.00    +0.081 A 
ATOM     53  C   UNL     1      -7.236  -0.287   3.432  0.00  0.00    +0.048 A 
BRANCH  50  51
ATOM     51  O   UNL     1      -9.215  -0.454   4.735  0.00  0.00    -0.480 OA
ATOM     52  H   UNL     1      -9.946   0.003   4.299  0.00  0.00    +0.385 HD
ENDBRANCH  50  51
BRANCH  33  34
ATOM     34  O   UNL     1      -8.275   1.492   6.437  0.00  0.00    -0.302 OA
BRANCH  34  35
ATOM     35  C   UNL     1      -7.725   2.507   7.281  0.00  0.00    +0.322 C 
ATOM     36  C   UNL     1      -8.758   2.906   8.338  0.00  0.00    +0.141 C 
ATOM     39  C   UNL     1      -9.074   1.692   9.217  0.00  0.00    +0.155 C 
ATOM     42  C   UNL     1      -7.774   1.175   9.840  0.00  0.00    +0.166 C 
ATOM     45  C   UNL     1      -6.779   0.842   8.725  0.00  0.00    +0.202 C 
ATOM     49  O   UNL     1      -6.553   2.006   7.927  0.00  0.00    -0.354 OA
BRANCH  36  37
ATOM     37  O   UNL     1      -8.230   3.958   9.148  0.00  0.00    -0.523 OA
ATOM     38  H   UNL     1      -8.004   4.759   8.654  0.00  0.00    +0.382 HD
ENDBRANCH  36  37
BRANCH  39  40
ATOM     40  O   UNL     1      -9.665   0.664   8.418  0.00  0.00    -0.532 OA
ATOM     41  H   UNL     1     -10.490   0.926   7.987  0.00  0.00    +0.385 HD
ENDBRANCH  39  40
BRANCH  42  43
ATOM     43  O   UNL     1      -7.220   2.180  10.692  0.00  0.00    -0.529 OA
ATOM     44  H   UNL     1      -7.800   2.442  11.419  0.00  0.00    +0.378 HD
ENDBRANCH  42  43
BRANCH  45  46
ATOM     46  C   UNL     1      -5.457   0.381   9.341  0.00  0.00    +0.211 C 
BRANCH  46  47
ATOM     47  O   UNL     1      -4.568  -0.039   8.304  0.00  0.00    -0.565 OA
ATOM     48  H   UNL     1      -3.708  -0.345   8.623  0.00  0.00    +0.381 HD
ENDBRANCH  46  47
ENDBRANCH  45  46
ENDBRANCH  34  35
ENDBRANCH  33  34
ENDBRANCH  29  30
ENDBRANCH  27  28
TORSDOF 20
