REMARK  Name = ZINC15121564
REMARK  9 active torsions:
REMARK  status: ('A' for Active; 'I' for Inactive)
REMARK    1  A    between atoms: C1_1  and  C2_2
REMARK    2  A    between atoms: C4_4  and  O3_28
REMARK    3  A    between atoms: C7_7  and  C8_8
REMARK    4  A    between atoms: C13_13  and  O1_14
REMARK    5  A    between atoms: O1_14  and  C14_15
REMARK    6  A    between atoms: C15_16  and  C19_22
REMARK    7  A    between atoms: C16_18  and  C18_21
REMARK    8  A    between atoms: C23_26  and  O2_27
REMARK    9  A    between atoms: O3_28  and  C24_29
REMARK                            x       y       z     vdW  Elec       q    Type
REMARK                         _______ _______ _______ _____ _____    ______ ____
ROOT
ATOM     16  C   UNL     1       1.182   2.104   0.002  0.00  0.00    -0.022 A 
ATOM     17  C   UNL     1       2.394   1.417  -0.015  0.00  0.00    +0.072 A 
ATOM     18  C   UNL     1       2.399   0.039  -0.022  0.00  0.00    +0.032 A 
ATOM     19  C   UNL     1       1.208  -0.673  -0.012  0.00  0.00    -0.078 A 
ATOM     20  C   UNL     1       0.002  -0.004   0.002  0.00  0.00    -0.147 A 
ATOM     21  C   UNL     1      -1.314  -0.736   0.006  0.00  0.00    +0.230 C 
ATOM     22  N   UNL     1      -1.126  -2.136   0.411  0.00  0.00    -0.511 N 
ATOM     23  H   UNL     1      -0.844  -2.170   1.398  0.00  0.00    +0.432 HD
ATOM     24  H   UNL     1      -2.008  -2.647   0.289  0.00  0.00    +0.435 HD
ATOM     25  C   UNL     1      -0.080  -2.762  -0.419  0.00  0.00    +0.171 C 
ATOM     26  C   UNL     1      -0.080  -4.274  -0.185  0.00  0.00    +0.094 C 
ATOM     27  C   UNL     1      -1.921  -0.693  -1.398  0.00  0.00    +0.101 C 
ATOM     28  C   UNL     1       1.274  -2.180  -0.015  0.00  0.00    +0.131 C 
ATOM     29  C   UNL     1      -0.017   1.386   0.010  0.00  0.00    +0.134 A 
ENDROOT
BRANCH  16  15
ATOM      1  C   UNL     1       1.139   3.541  -2.487  0.00  0.00    +0.097 C 
ATOM      2  C   UNL     1       1.143   4.289  -1.179  0.00  0.00    +0.007 A 
ATOM      3  C   UNL     1       1.125   5.678  -1.182  0.00  0.00    -0.099 A 
ATOM      4  C   UNL     1       1.127   6.389  -0.002  0.00  0.00    +0.179 A 
ATOM      7  C   UNL     1       1.149   5.704   1.229  0.00  0.00    -0.109 A 
ATOM      8  C   UNL     1       1.162   4.289   1.241  0.00  0.00    +0.025 A 
ATOM      9  C   UNL     1       1.190   3.608   2.466  0.00  0.00    -0.026 A 
ATOM     10  C   UNL     1       1.193   4.309   3.635  0.00  0.00    +0.059 A 
ATOM     11  C   UNL     1       1.175   5.700   3.636  0.00  0.00    -0.033 A 
ATOM     12  C   UNL     1       1.153   6.404   2.452  0.00  0.00    +0.159 A 
ATOM     15  C   UNL     1       1.164   3.585   0.012  0.00  0.00    -0.115 A 
BRANCH   4   5
ATOM      5  O   UNL     1       1.109   7.747  -0.025  0.00  0.00    -0.292 OA
ATOM      6  C   UNL     1       1.087   8.373  -1.309  0.00  0.00    +0.248 C 
ENDBRANCH   4   5
BRANCH  12  13
ATOM     13  O   UNL     1       1.135   7.762   2.463  0.00  0.00    -0.479 OA
ATOM     14  H   UNL     1       0.247   8.144   2.476  0.00  0.00    +0.396 HD
ENDBRANCH  12  13
ENDBRANCH  16  15
BRANCH  29  30
ATOM     30  O   UNL     1      -1.203   2.047   0.019  0.00  0.00    -0.327 OA
ATOM     31  C   UNL     1      -1.764   2.356   1.297  0.00  0.00    +0.234 C 
ENDBRANCH  29  30
TORSDOF 4
