REMARK  Name = ZINC95486328
REMARK  6 active torsions:
REMARK  status: ('A' for Active; 'I' for Inactive)
REMARK    1  A    between atoms: C1_1  and  O1_2
REMARK    2  A    between atoms: O1_2  and  C2_3
REMARK    3  A    between atoms: C8_10  and  C9_12
REMARK    4  A    between atoms: C15_18  and  O6_27
REMARK    5  A    between atoms: C16_19  and  C17_20
REMARK    6  A    between atoms: O6_27  and  C22_28
REMARK                            x       y       z     vdW  Elec       q    Type
REMARK                         _______ _______ _______ _____ _____    ______ ____
ROOT
ATOM      3  C   UNL     1      -1.199  -0.637   0.010  0.00  0.00    +0.223 A 
ATOM      4  C   UNL     1      -2.367   0.107   0.020  0.00  0.00    -0.089 A 
ATOM      5  C   UNL     1      -3.599  -0.530   0.028  0.00  0.00    +0.209 A 
ATOM      6  C   UNL     1      -3.656  -1.935   0.027  0.00  0.00    -0.282 A 
ATOM      7  C   UNL     1      -2.478  -2.690   0.018  0.00  0.00    +0.242 A 
ATOM     10  C   UNL     1      -4.978  -2.585   0.037  0.00  0.00    +0.425 A 
ATOM     11  C   UNL     1      -6.117  -1.744   0.047  0.00  0.00    -0.143 A 
ATOM     12  C   UNL     1      -5.953  -0.394   0.047  0.00  0.00    +0.203 A 
ATOM     19  O   UNL     1      -5.087  -3.800   0.036  0.00  0.00    -0.453 OA
ATOM     20  O   UNL     1      -4.744   0.186   0.038  0.00  0.00    -0.218 OA
ATOM     21  C   UNL     1      -1.247  -2.037   0.003  0.00  0.00    -0.093 A 
ENDROOT
BRANCH  21  22
ATOM     22  C   UNL     1       0.011  -2.823  -0.013  0.00  0.00    -0.274 C 
ATOM     23  C   UNL     1       0.706  -3.264   1.065  0.00  0.00    +0.363 C 
ATOM     24  O   UNL     1       1.799  -3.944   0.699  0.00  0.00    -0.219 OA
ATOM     25  C   UNL     1       1.912  -4.008  -0.651  0.00  0.00    -0.059 C 
ATOM     26  C   UNL     1       2.884  -4.611  -1.347  0.00  0.00    +0.199 C 
ATOM     27  C   UNL     1       0.746  -3.283  -1.202  0.00  0.00    +0.401 C 
ATOM     28  O   UNL     1       0.460  -3.105  -2.374  0.00  0.00    -0.427 OA
ENDBRANCH  21  22
BRANCH  12  13
ATOM     13  C   UNL     1      -7.154   0.466   0.057  0.00  0.00    -0.073 A 
ATOM     14  C   UNL     1      -8.427  -0.107   0.072  0.00  0.00    +0.056 A 
ATOM     15  C   UNL     1      -9.544   0.703   0.083  0.00  0.00    +0.014 A 
ATOM     16  C   UNL     1      -9.405   2.079   0.078  0.00  0.00    +0.037 A 
ATOM     17  C   UNL     1      -8.146   2.654   0.063  0.00  0.00    +0.009 A 
ATOM     18  C   UNL     1      -7.020   1.856   0.058  0.00  0.00    +0.054 A 
ENDBRANCH  12  13
BRANCH   3   2
ATOM      1  C   UNL     1      -0.017   1.425   0.010  0.00  0.00    +0.255 C 
ATOM      2  O   UNL     1       0.002  -0.004   0.002  0.00  0.00    -0.294 OA
ENDBRANCH   3   2
BRANCH   7   8
ATOM      8  O   UNL     1      -2.533  -4.046   0.016  0.00  0.00    -0.313 OA
ATOM      9  C   UNL     1      -2.569  -4.692  -1.257  0.00  0.00    +0.248 C 
ENDBRANCH   7   8
TORSDOF 4
