REMARK  Name = ZINC95486071
REMARK  1 active torsions:
REMARK  status: ('A' for Active; 'I' for Inactive)
REMARK    1  A    between atoms: C9_13  and  O4_29
REMARK                            x       y       z     vdW  Elec       q    Type
REMARK                         _______ _______ _______ _____ _____    ______ ____
ROOT
ATOM      1  C   UNL     1      -0.017   1.392   0.010  0.00  0.00    +0.120 A 
ATOM      2  C   UNL     1       1.236   1.983   0.001  0.00  0.00    -0.142 A 
ATOM      3  C   UNL     1       2.436   1.267   0.019  0.00  0.00    +0.142 A 
ATOM      4  N   UNL     1       3.524   2.124   0.128  0.00  0.00    -0.547 N 
ATOM      5  C   UNL     1       4.836   1.849   0.017  0.00  0.00    +0.496 C 
ATOM      6  C   UNL     1       5.816   2.987   0.001  0.00  0.00    +0.204 C 
ATOM      9  C   UNL     1       5.205   4.300   0.480  0.00  0.00    -0.025 C 
ATOM     10  C   UNL     1       4.791   4.211   1.953  0.00  0.00    +0.093 C 
ATOM     11  C   UNL     1       3.304   3.707   1.936  0.00  0.00    +0.080 C 
ATOM     12  C   UNL     1       6.113   5.411   0.055  0.00  0.00    +0.069 C 
ATOM     13  C   UNL     1       5.977   5.840  -1.180  0.00  0.00    -0.035 C 
ATOM     14  C   UNL     1       4.941   5.377  -2.162  0.00  0.00    +0.317 C 
ATOM     15  N   UNL     1       3.789   4.779  -1.561  0.00  0.00    -0.359 N 
ATOM     16  H   UNL     1       3.154   5.564  -1.584  0.00  0.00    +0.412 HD
ATOM     17  C   UNL     1       2.969   3.778  -2.208  0.00  0.00    +0.263 C 
ATOM     18  C   UNL     1       1.571   3.811  -1.571  0.00  0.00    +0.092 C 
ATOM     19  C   UNL     1       3.843   4.587  -0.165  0.00  0.00    +0.148 C 
ATOM     20  O   UNL     1       5.221   0.702  -0.070  0.00  0.00    -0.479 OA
ATOM     21  C   UNL     1       3.010   3.471   0.445  0.00  0.00    +0.163 C 
ATOM     22  C   UNL     1       2.453  -0.136  -0.009  0.00  0.00    +0.062 A 
ATOM     23  C   UNL     1       1.196  -0.738  -0.016  0.00  0.00    +0.070 A 
ATOM     24  O   UNL     1       0.895  -2.059  -0.041  0.00  0.00    -0.300 OA
ATOM     25  C   UNL     1      -0.494  -2.132  -0.424  0.00  0.00    +0.445 C 
ATOM     26  O   UNL     1      -1.042  -0.867   0.004  0.00  0.00    -0.299 OA
ATOM     27  C   UNL     1       1.588   3.462  -0.066  0.00  0.00    +0.107 C 
ATOM     28  C   UNL     1       0.002  -0.004   0.002  0.00  0.00    +0.024 A 
ENDROOT
BRANCH   6   7
ATOM      7  O   UNL     1       6.918   2.658   0.849  0.00  0.00    -0.525 OA
ATOM      8  H   UNL     1       7.394   1.859   0.583  0.00  0.00    +0.406 HD
ENDBRANCH   6   7
TORSDOF 1
