REMARK  Name = ZINC89455853
REMARK  21 active torsions:
REMARK  status: ('A' for Active; 'I' for Inactive)
REMARK    1  A    between atoms: C1_1  and  C2_2
REMARK    2  A    between atoms: C2_2  and  C37_44
REMARK    3  A    between atoms: C3_3  and  C4_4
REMARK    4  A    between atoms: C4_4  and  C5_5
REMARK    5  A    between atoms: C7_8  and  C32_39
REMARK    6  A    between atoms: C9_10  and  C25_28
REMARK    7  A    between atoms: C11_13  and  C20_23
REMARK    8  A    between atoms: C13_16  and  C14_17
REMARK    9  A    between atoms: C13_16  and  C15_18
REMARK   10  A    between atoms: C15_18  and  C16_19
REMARK   11  A    between atoms: C17_20  and  C18_21
REMARK   12  A    between atoms: C17_20  and  C19_22
REMARK   13  A    between atoms: C20_23  and  C21_24
REMARK   14  A    between atoms: C22_25  and  C23_26
REMARK   15  A    between atoms: C22_25  and  C24_27
REMARK   16  A    between atoms: C25_28  and  C26_30
REMARK   17  A    between atoms: C29_33  and  O5_37
REMARK   18  A    between atoms: C30_34  and  O4_36
REMARK   19  A    between atoms: C32_39  and  C33_40
REMARK   20  A    between atoms: C34_41  and  C35_42
REMARK   21  A    between atoms: C34_41  and  C36_43
REMARK                            x       y       z     vdW  Elec       q    Type
REMARK                         _______ _______ _______ _____ _____    ______ ____
ROOT
ATOM      6  C   UNL     1      -1.034  -0.403   1.214  0.00  0.00    +0.004 C 
ATOM      7  C   UNL     1       0.181  -1.320   1.222  0.00  0.00    +0.072 C 
ATOM      8  C   UNL     1       0.723  -1.469   2.650  0.00  0.00    -0.143 C 
ATOM     14  C   UNL     1       2.186  -1.054   2.647  0.00  0.00    +0.390 C 
ATOM     15  O   UNL     1       3.050  -1.793   3.039  0.00  0.00    -0.394 OA
ATOM     16  C   UNL     1       2.502   0.335   2.133  0.00  0.00    -0.077 C 
ATOM     29  C   UNL     1       1.541   1.335   2.728  0.00  0.00    +0.391 C 
ATOM     30  C   UNL     1       0.090   0.993   2.971  0.00  0.00    -0.124 C 
ATOM     36  O   UNL     1       1.950   2.446   3.024  0.00  0.00    -0.393 OA
ATOM     37  C   UNL     1       0.008  -0.433   3.506  0.00  0.00    +0.386 C 
ATOM     38  O   UNL     1      -0.578  -0.719   4.521  0.00  0.00    -0.388 OA
ATOM     39  C   UNL     1      -0.692   1.020   1.656  0.00  0.00    -0.026 C 
ATOM     45  C   UNL     1       0.107   1.733   0.565  0.00  0.00    +0.042 C 
ENDROOT
BRANCH  16  17
ATOM     17  C   UNL     1       3.910   0.702   2.544  0.00  0.00    +0.418 C 
ATOM     28  O   UNL     1       4.107   1.263   3.601  0.00  0.00    -0.407 OA
BRANCH  17  18
ATOM     18  C   UNL     1       5.040   0.379   1.663  0.00  0.00    -0.153 A 
ATOM     19  C   UNL     1       4.814  -0.264   0.439  0.00  0.00    +0.065 A 
ATOM     20  C   UNL     1       5.875  -0.565  -0.385  0.00  0.00    +0.006 A 
ATOM     21  C   UNL     1       7.170  -0.234  -0.007  0.00  0.00    +0.119 A 
ATOM     24  C   UNL     1       7.403   0.406   1.210  0.00  0.00    +0.074 A 
ATOM     27  C   UNL     1       6.345   0.717   2.041  0.00  0.00    +0.081 A 
BRANCH  21  22
ATOM     22  O   UNL     1       8.211  -0.535  -0.824  0.00  0.00    -0.484 OA
ATOM     23  H   UNL     1       8.429   0.163  -1.457  0.00  0.00    +0.395 HD
ENDBRANCH  21  22
BRANCH  24  25
ATOM     25  O   UNL     1       8.672   0.728   1.577  0.00  0.00    -0.482 OA
ATOM     26  H   UNL     1       8.955   1.606   1.287  0.00  0.00    +0.391 HD
ENDBRANCH  24  25
ENDBRANCH  17  18
ENDBRANCH  16  17
BRANCH   6   5
ATOM      5  C   UNL     1      -1.620  -0.358  -0.199  0.00  0.00    +0.069 C 
BRANCH   5   4
ATOM      1  C   UNL     1      -0.611  -1.365  -2.629  0.00  0.00    +0.069 C 
ATOM      2  C   UNL     1      -1.505  -2.223  -1.771  0.00  0.00    -0.134 C 
ATOM      3  C   UNL     1      -1.860  -3.619  -2.214  0.00  0.00    +0.068 C 
ATOM      4  C   UNL     1      -1.974  -1.755  -0.641  0.00  0.00    -0.054 C 
ENDBRANCH   5   4
ENDBRANCH   6   5
BRANCH   8   9
ATOM      9  C   UNL     1       0.536  -2.886   3.186  0.00  0.00    +0.117 C 
BRANCH   9  10
ATOM     10  C   UNL     1       1.085  -2.970   4.587  0.00  0.00    -0.070 C 
ATOM     11  C   UNL     1       0.312  -3.351   5.573  0.00  0.00    -0.105 C 
ATOM     12  C   UNL     1       0.893  -3.569   6.946  0.00  0.00    +0.070 C 
ATOM     13  C   UNL     1      -1.160  -3.571   5.334  0.00  0.00    +0.074 C 
ENDBRANCH   9  10
ENDBRANCH   8   9
BRANCH  30  31
ATOM     31  C   UNL     1      -0.528   1.971   3.986  0.00  0.00    +0.119 C 
BRANCH  31  32
ATOM     32  C   UNL     1       0.222   1.883   5.290  0.00  0.00    -0.080 C 
ATOM     33  C   UNL     1       0.787   2.952   5.794  0.00  0.00    -0.101 C 
ATOM     34  C   UNL     1       1.576   2.855   7.074  0.00  0.00    +0.070 C 
ATOM     35  C   UNL     1       0.646   4.279   5.095  0.00  0.00    +0.076 C 
ENDBRANCH  31  32
ENDBRANCH  30  31
BRANCH  39  40
ATOM     40  C   UNL     1      -1.999   1.794   1.879  0.00  0.00    +0.076 C 
BRANCH  40  41
ATOM     41  C   UNL     1      -2.701   1.986   0.560  0.00  0.00    -0.041 C 
ATOM     42  C   UNL     1      -3.947   1.606   0.419  0.00  0.00    -0.131 C 
ATOM     43  C   UNL     1      -4.646   1.788  -0.903  0.00  0.00    +0.073 C 
ATOM     44  C   UNL     1      -4.681   0.986   1.580  0.00  0.00    +0.072 C 
ENDBRANCH  40  41
ENDBRANCH  39  40
TORSDOF 12
