REMARK  Name = ZINC13359041
REMARK  11 active torsions:
REMARK  status: ('A' for Active; 'I' for Inactive)
REMARK    1  A    between atoms: C1_1  and  C2_2
REMARK    2  A    between atoms: C4_4  and  O4_30
REMARK    3  A    between atoms: C7_7  and  C8_8
REMARK    4  A    between atoms: C9_9  and  O2_23
REMARK    5  A    between atoms: C13_13  and  O1_14
REMARK    6  A    between atoms: O1_14  and  C14_15
REMARK    7  A    between atoms: C15_16  and  C19_22
REMARK    8  A    between atoms: C16_18  and  C18_21
REMARK    9  A    between atoms: C23_27  and  O3_28
REMARK   10  A    between atoms: O3_28  and  C24_29
REMARK   11  A    between atoms: O4_30  and  C25_31
REMARK                            x       y       z     vdW  Elec       q    Type
REMARK                         _______ _______ _______ _____ _____    ______ ____
ROOT
ATOM     16  C   UNL     1       1.643  -3.102   1.420  0.00  0.00    -0.053 A 
ATOM     17  C   UNL     1       2.698  -2.554   2.157  0.00  0.00    +0.164 A 
ATOM     20  C   UNL     1       2.868  -1.182   2.191  0.00  0.00    +0.004 A 
ATOM     21  C   UNL     1       2.002  -0.345   1.502  0.00  0.00    -0.059 A 
ATOM     22  C   UNL     1       0.961  -0.876   0.769  0.00  0.00    -0.162 A 
ATOM     23  C   UNL     1       0.002  -0.004   0.002  0.00  0.00    +0.231 C 
ATOM     24  N   UNL     1       0.071   1.384   0.479  0.00  0.00    -0.512 N 
ATOM     25  H   UNL     1      -0.495   1.983  -0.134  0.00  0.00    +0.435 HD
ATOM     26  H   UNL     1      -0.294   1.433   1.437  0.00  0.00    +0.432 HD
ATOM     27  C   UNL     1       1.469   1.851   0.463  0.00  0.00    +0.174 C 
ATOM     28  C   UNL     1       1.504   3.364   0.694  0.00  0.00    +0.094 C 
ATOM     29  C   UNL     1      -1.422  -0.529   0.193  0.00  0.00    +0.102 C 
ATOM     30  C   UNL     1       2.231   1.143   1.584  0.00  0.00    +0.133 C 
ATOM     31  C   UNL     1       0.776  -2.254   0.727  0.00  0.00    +0.153 A 
ENDROOT
BRANCH  16  15
ATOM      1  C   UNL     1       2.930  -4.646  -0.635  0.00  0.00    +0.091 C 
ATOM      2  C   UNL     1       2.059  -5.324   0.391  0.00  0.00    -0.007 A 
ATOM      3  C   UNL     1       1.882  -6.701   0.339  0.00  0.00    -0.112 A 
ATOM      4  C   UNL     1       1.092  -7.348   1.264  0.00  0.00    +0.192 A 
ATOM      7  C   UNL     1       0.453  -6.610   2.279  0.00  0.00    -0.103 A 
ATOM      8  C   UNL     1       0.633  -5.208   2.343  0.00  0.00    +0.055 A 
ATOM      9  C   UNL     1      -0.008  -4.473   3.350  0.00  0.00    -0.043 A 
ATOM     10  C   UNL     1      -0.791  -5.111   4.265  0.00  0.00    +0.078 A 
ATOM     11  C   UNL     1      -0.971  -6.490   4.216  0.00  0.00    -0.109 A 
ATOM     12  C   UNL     1      -0.361  -7.245   3.238  0.00  0.00    +0.175 A 
ATOM     15  C   UNL     1       1.446  -4.568   1.375  0.00  0.00    -0.104 A 
BRANCH   4   5
ATOM      5  O   UNL     1       0.931  -8.695   1.197  0.00  0.00    -0.286 OA
ATOM      6  C   UNL     1       1.610  -9.378   0.141  0.00  0.00    +0.245 C 
ENDBRANCH   4   5
BRANCH  12  13
ATOM     13  O   UNL     1      -0.543  -8.590   3.199  0.00  0.00    -0.290 OA
ATOM     14  C   UNL     1      -1.383  -9.161   4.205  0.00  0.00    +0.245 C 
ENDBRANCH  12  13
ENDBRANCH  16  15
BRANCH  17  18
ATOM     18  O   UNL     1       3.551  -3.365   2.836  0.00  0.00    -0.480 OA
ATOM     19  H   UNL     1       4.319  -3.647   2.321  0.00  0.00    +0.401 HD
ENDBRANCH  17  18
BRANCH  31  32
ATOM     32  O   UNL     1      -0.251  -2.777   0.008  0.00  0.00    -0.321 OA
ATOM     33  C   UNL     1       0.010  -3.096  -1.360  0.00  0.00    +0.235 C 
ENDBRANCH  31  32
TORSDOF 5
