REMARK  Name = ZINC95486130
REMARK  15 active torsions:
REMARK  status: ('A' for Active; 'I' for Inactive)
REMARK    1  A    between atoms: C1_1  and  O1_2
REMARK    2  A    between atoms: O1_2  and  C2_3
REMARK    3  A    between atoms: C4_5  and  C9_12
REMARK    4  A    between atoms: C6_7  and  O3_10
REMARK    5  A    between atoms: C7_8  and  O2_9
REMARK    6  A    between atoms: O3_10  and  C8_11
REMARK    7  A    between atoms: C13_17  and  O13_41
REMARK    8  A    between atoms: C15_19  and  O7_24
REMARK    9  A    between atoms: C16_20  and  O6_23
REMARK   10  A    between atoms: O7_24  and  C18_25
REMARK   11  A    between atoms: C19_27  and  O12_40
REMARK   12  A    between atoms: C20_29  and  O11_39
REMARK   13  A    between atoms: C21_31  and  O10_38
REMARK   14  A    between atoms: C22_33  and  C23_36
REMARK   15  A    between atoms: C23_36  and  O9_37
REMARK                            x       y       z     vdW  Elec       q    Type
REMARK                         _______ _______ _______ _____ _____    ______ ____
ROOT
ATOM      6  C   UNL     1      -4.856   0.232   0.038  0.00  0.00    +0.203 A 
ATOM      7  C   UNL     1      -6.044  -0.430   0.052  0.00  0.00    -0.137 A 
ATOM      8  C   UNL     1      -7.252   0.306   0.062  0.00  0.00    +0.426 A 
ATOM      9  C   UNL     1      -7.152   1.775   0.058  0.00  0.00    -0.273 A 
ATOM     10  C   UNL     1      -8.296   2.582   0.068  0.00  0.00    +0.237 A 
ATOM     13  C   UNL     1      -8.162   3.958   0.064  0.00  0.00    -0.072 A 
ATOM     14  C   UNL     1      -6.898   4.536   0.049  0.00  0.00    +0.183 A 
ATOM     31  C   UNL     1      -5.757   3.744   0.039  0.00  0.00    +0.046 A 
ATOM     34  C   UNL     1      -5.874   2.360   0.043  0.00  0.00    +0.175 A 
ATOM     35  O   UNL     1      -8.336  -0.256   0.075  0.00  0.00    -0.450 OA
ATOM     36  O   UNL     1      -4.776   1.572   0.040  0.00  0.00    -0.206 OA
ENDROOT
BRANCH   6   5
ATOM      3  C   UNL     1      -1.201  -0.638   0.010  0.00  0.00    +0.140 A 
ATOM      4  C   UNL     1      -2.370   0.100   0.020  0.00  0.00    -0.042 A 
ATOM      5  C   UNL     1      -3.606  -0.552   0.028  0.00  0.00    -0.001 A 
ATOM     37  C   UNL     1      -3.657  -1.949   0.027  0.00  0.00    -0.047 A 
ATOM     38  C   UNL     1      -2.484  -2.681   0.017  0.00  0.00    +0.142 A 
ATOM     41  C   UNL     1      -1.254  -2.029   0.003  0.00  0.00    +0.068 A 
BRANCH   3   2
ATOM      1  C   UNL     1      -0.017   1.425   0.010  0.00  0.00    +0.250 C 
ATOM      2  O   UNL     1       0.002  -0.004   0.002  0.00  0.00    -0.299 OA
ENDBRANCH   3   2
BRANCH  38  39
ATOM     39  O   UNL     1      -2.533  -4.040   0.016  0.00  0.00    -0.298 OA
ATOM     40  C   UNL     1      -3.828  -4.644   0.025  0.00  0.00    +0.249 C 
ENDBRANCH  38  39
BRANCH  41  42
ATOM     42  O   UNL     1      -0.103  -2.752  -0.012  0.00  0.00    -0.469 OA
ATOM     43  H   UNL     1       0.239  -2.966   0.867  0.00  0.00    +0.388 HD
ENDBRANCH  41  42
ENDBRANCH   6   5
BRANCH  10  11
ATOM     11  O   UNL     1      -9.531   2.016   0.081  0.00  0.00    -0.467 OA
ATOM     12  H   UNL     1      -9.880   1.854   0.968  0.00  0.00    +0.402 HD
ENDBRANCH  10  11
BRANCH  31  32
ATOM     32  O   UNL     1      -4.525   4.323   0.023  0.00  0.00    -0.465 OA
ATOM     33  H   UNL     1      -4.159   4.493   0.902  0.00  0.00    +0.386 HD
ENDBRANCH  31  32
BRANCH  14  15
ATOM     15  O   UNL     1      -6.777   5.890   0.044  0.00  0.00    -0.276 OA
BRANCH  15  16
ATOM     16  C   UNL     1      -7.987   6.649   0.055  0.00  0.00    +0.304 C 
ATOM     17  C   UNL     1      -7.655   8.139   0.173  0.00  0.00    +0.152 C 
ATOM     20  C   UNL     1      -8.954   8.949   0.124  0.00  0.00    +0.166 C 
ATOM     23  C   UNL     1      -9.698   8.621  -1.174  0.00  0.00    +0.172 C 
ATOM     26  C   UNL     1      -9.952   7.113  -1.240  0.00  0.00    +0.194 C 
ATOM     30  O   UNL     1      -8.706   6.417  -1.158  0.00  0.00    -0.370 OA
BRANCH  17  18
ATOM     18  O   UNL     1      -6.986   8.382   1.413  0.00  0.00    -0.552 OA
ATOM     19  H   UNL     1      -6.156   7.895   1.514  0.00  0.00    +0.396 HD
ENDBRANCH  17  18
BRANCH  20  21
ATOM     21  O   UNL     1      -8.648  10.345   0.162  0.00  0.00    -0.552 OA
ATOM     22  H   UNL     1      -8.170  10.621   0.956  0.00  0.00    +0.397 HD
ENDBRANCH  20  21
BRANCH  23  24
ATOM     24  O   UNL     1     -10.945   9.318  -1.198  0.00  0.00    -0.548 OA
ATOM     25  H   UNL     1     -10.859  10.280  -1.155  0.00  0.00    +0.396 HD
ENDBRANCH  23  24
BRANCH  26  27
ATOM     27  C   UNL     1     -10.642   6.769  -2.562  0.00  0.00    +0.227 C 
BRANCH  27  28
ATOM     28  O   UNL     1     -10.984   5.381  -2.574  0.00  0.00    -0.564 OA
ATOM     29  H   UNL     1     -11.426   5.092  -3.384  0.00  0.00    +0.387 HD
ENDBRANCH  27  28
ENDBRANCH  26  27
ENDBRANCH  15  16
ENDBRANCH  14  15
TORSDOF 13
