REMARK  Name = ZINC95486290
REMARK  12 active torsions:
REMARK  status: ('A' for Active; 'I' for Inactive)
REMARK    1  A    between atoms: C1_1  and  O1_2
REMARK    2  A    between atoms: O1_2  and  C2_3
REMARK    3  A    between atoms: C2_3  and  C3_5
REMARK    4  A    between atoms: C3_5  and  C5_7
REMARK    5  A    between atoms: C6_9  and  O9_34
REMARK    6  A    between atoms: C8_12  and  C20_32
REMARK    7  A    between atoms: C11_18  and  C18_30
REMARK    8  A    between atoms: C13_21  and  O5_23
REMARK    9  A    between atoms: O5_23  and  C14_24
REMARK   10  A    between atoms: C14_24  and  C15_26
REMARK   11  A    between atoms: C15_26  and  C17_28
REMARK   12  A    between atoms: C17_28  and  O7_29
REMARK                            x       y       z     vdW  Elec       q    Type
REMARK                         _______ _______ _______ _____ _____    ______ ____
ROOT
ATOM      5  C   UNL     1       0.341  -3.207   0.344  0.00  0.00    +0.026 C 
ATOM      6  C   UNL     1      -1.066  -2.624   0.191  0.00  0.00    +0.186 C 
ATOM      9  C   UNL     1      -2.045  -3.743  -0.173  0.00  0.00    +0.090 C 
ATOM     10  C   UNL     1      -3.094  -3.882   0.932  0.00  0.00    -0.030 C 
ATOM     13  C   UNL     1      -2.850  -5.157   1.698  0.00  0.00    +0.499 C 
ATOM     14  O   UNL     1      -2.392  -5.105   2.959  0.00  0.00    -0.364 OA
ATOM     15  C   UNL     1      -1.104  -5.672   3.205  0.00  0.00    +0.248 C 
ATOM     16  C   UNL     1      -0.116  -4.559   3.559  0.00  0.00    +0.008 C 
ATOM     19  C   UNL     1       0.925  -4.428   2.445  0.00  0.00    +0.021 C 
ATOM     20  O   UNL     1      -3.067  -6.225   1.178  0.00  0.00    -0.469 OA
ATOM     21  C   UNL     1       0.804  -3.048   1.793  0.00  0.00    +0.213 C 
ENDROOT
BRANCH   5   4
ATOM      4  C   UNL     1       1.289  -2.475  -0.570  0.00  0.00    -0.144 C 
ATOM     30  C   UNL     1       1.949  -3.140  -1.515  0.00  0.00    +0.173 C 
BRANCH   4   3
ATOM      3  C   UNL     1       1.486  -1.027  -0.417  0.00  0.00    +0.511 C 
ATOM     31  O   UNL     1       2.252  -0.436  -1.154  0.00  0.00    -0.503 OA
BRANCH   3   2
ATOM      1  C   UNL     1       1.058   1.053   0.632  0.00  0.00    +0.263 C 
ATOM      2  O   UNL     1       0.818  -0.353   0.541  0.00  0.00    -0.357 OA
ENDBRANCH   3   2
ENDBRANCH   4   3
ENDBRANCH   5   4
BRANCH   6   7
ATOM      7  O   UNL     1      -1.468  -2.022   1.423  0.00  0.00    -0.542 OA
ATOM      8  H   UNL     1      -0.965  -1.230   1.656  0.00  0.00    +0.389 HD
ENDBRANCH   6   7
BRANCH  10  11
ATOM     11  C   UNL     1      -4.469  -3.921   0.317  0.00  0.00    +0.469 C 
ATOM     12  O   UNL     1      -5.285  -3.080   0.609  0.00  0.00    -0.435 OA
ENDBRANCH  10  11
BRANCH  16  17
ATOM     17  C   UNL     1      -0.858  -3.257   3.709  0.00  0.00    -0.022 C 
ATOM     18  C   UNL     1      -0.695  -2.529   4.786  0.00  0.00    +0.023 C 
ENDBRANCH  16  17
BRANCH  21  22
ATOM     22  O   UNL     1       2.075  -2.396   1.818  0.00  0.00    -0.343 OA
BRANCH  22  23
ATOM     23  C   UNL     1       2.352  -1.637   2.897  0.00  0.00    +0.503 C 
ATOM     29  O   UNL     1       1.536  -1.531   3.792  0.00  0.00    -0.483 OA
BRANCH  23  24
ATOM     24  C   UNL     1       3.640  -0.936   2.991  0.00  0.00    -0.181 C 
ATOM     28  C   UNL     1       3.914  -0.186   4.056  0.00  0.00    +0.194 C 
BRANCH  24  25
ATOM     25  C   UNL     1       4.652  -1.067   1.882  0.00  0.00    +0.244 C 
BRANCH  25  26
ATOM     26  O   UNL     1       5.813  -0.299   2.204  0.00  0.00    -0.571 OA
ATOM     27  H   UNL     1       6.508  -0.337   1.532  0.00  0.00    +0.389 HD
ENDBRANCH  25  26
ENDBRANCH  24  25
ENDBRANCH  23  24
ENDBRANCH  22  23
ENDBRANCH  21  22
TORSDOF 11
