REMARK  Name = ZINC95486000
REMARK  12 active torsions:
REMARK  status: ('A' for Active; 'I' for Inactive)
REMARK    1  A    between atoms: C1_1  and  C2_2
REMARK    2  A    between atoms: C2_2  and  O2_4
REMARK    3  A    between atoms: O2_4  and  C3_5
REMARK    4  A    between atoms: C5_9  and  O6_34
REMARK    5  A    between atoms: C7_12  and  C21_29
REMARK    6  A    between atoms: C8_13  and  O3_15
REMARK    7  A    between atoms: O3_15  and  C9_16
REMARK    8  A    between atoms: C9_16  and  C10_17
REMARK    9  A    between atoms: C19_26  and  C20_27
REMARK   10  A    between atoms: C19_26  and  O4_28
REMARK   11  A    between atoms: C22_31  and  C23_32
REMARK   12  A    between atoms: C22_31  and  C24_33
REMARK                            x       y       z     vdW  Elec       q    Type
REMARK                         _______ _______ _______ _____ _____    ______ ____
ROOT
ATOM      4  C   UNL     1      -0.335  -1.749  -1.312  0.00  0.00    +0.165 C 
ATOM      5  C   UNL     1      -1.117  -2.392  -2.453  0.00  0.00    -0.037 C 
ATOM      6  C   UNL     1      -1.177  -3.919  -2.106  0.00  0.00    +0.158 C 
ATOM      9  C   UNL     1       0.289  -4.287  -2.409  0.00  0.00    +0.161 C 
ATOM     10  O   UNL     1       0.683  -3.468  -3.539  0.00  0.00    -0.327 OA
ATOM     11  C   UNL     1       1.146  -3.832  -1.228  0.00  0.00    -0.051 C 
ATOM     12  C   UNL     1       0.715  -4.446   0.106  0.00  0.00    +0.047 C 
ATOM     13  C   UNL     1       2.609  -4.205  -1.499  0.00  0.00    +0.054 C 
ATOM     14  C   UNL     1       2.728  -5.714  -1.704  0.00  0.00    +0.008 C 
ATOM     15  C   UNL     1       1.922  -6.135  -2.928  0.00  0.00    -0.003 C 
ATOM     16  C   UNL     1       0.451  -5.740  -2.792  0.00  0.00    +0.157 C 
ATOM     19  C   UNL     1      -0.258  -6.689  -1.832  0.00  0.00    +0.020 C 
ATOM     20  C   UNL     1      -0.295  -2.444  -3.755  0.00  0.00    +0.130 C 
ATOM     21  C   UNL     1       0.353  -1.107  -4.101  0.00  0.00    +0.051 C 
ATOM     22  C   UNL     1      -1.199  -2.842  -4.935  0.00  0.00    +0.023 C 
ATOM     23  C   UNL     1       1.058  -2.305  -1.097  0.00  0.00    +0.150 C 
ENDROOT
BRANCH   6   7
ATOM      7  O   UNL     1      -2.121  -4.607  -2.926  0.00  0.00    -0.520 OA
ATOM      8  H   UNL     1      -3.030  -4.295  -2.826  0.00  0.00    +0.374 HD
ENDBRANCH   6   7
BRANCH  16  17
ATOM     17  O   UNL     1      -0.147  -5.918  -4.096  0.00  0.00    -0.538 OA
ATOM     18  H   UNL     1      -0.094  -6.823  -4.432  0.00  0.00    +0.365 HD
ENDBRANCH  16  17
BRANCH   4   3
ATOM      3  O   UNL     1      -0.293  -0.325  -1.448  0.00  0.00    -0.333 OA
BRANCH   3   2
ATOM      1  C   UNL     1      -0.272   1.901  -0.381  0.00  0.00    +0.158 C 
ATOM      2  C   UNL     1      -0.314   0.396  -0.316  0.00  0.00    +0.452 C 
ATOM     32  O   UNL     1      -0.366  -0.161   0.754  0.00  0.00    -0.510 OA
ENDBRANCH   3   2
ENDBRANCH   4   3
BRANCH  23  24
ATOM     24  O   UNL     1       2.028  -1.670  -1.919  0.00  0.00    -0.331 OA
BRANCH  24  25
ATOM     25  C   UNL     1       2.636  -0.523  -1.322  0.00  0.00    +0.202 C 
BRANCH  25  26
ATOM     26  C   UNL     1       3.642   0.067  -2.276  0.00  0.00    -0.087 A 
ATOM     27  C   UNL     1       4.956  -0.363  -2.248  0.00  0.00    +0.024 A 
ATOM     28  C   UNL     1       5.879   0.178  -3.123  0.00  0.00    +0.000 A 
ATOM     29  C   UNL     1       5.489   1.148  -4.027  0.00  0.00    +0.010 A 
ATOM     30  C   UNL     1       4.175   1.577  -4.056  0.00  0.00    +0.001 A 
ATOM     31  C   UNL     1       3.251   1.034  -3.183  0.00  0.00    +0.026 A 
ENDBRANCH  25  26
ENDBRANCH  24  25
ENDBRANCH  23  24
TORSDOF 7
