REMARK  Name = ZINC13359262
REMARK  13 active torsions:
REMARK  status: ('A' for Active; 'I' for Inactive)
REMARK    1  A    between atoms: C1_1  and  C2_2
REMARK    2  A    between atoms: C4_4  and  O4_32
REMARK    3  A    between atoms: C7_7  and  C8_8
REMARK    4  A    between atoms: C9_9  and  O2_24
REMARK    5  A    between atoms: C11_11  and  O1_22
REMARK    6  A    between atoms: C15_15  and  C19_21
REMARK    7  A    between atoms: C16_17  and  C17_19
REMARK    8  A    between atoms: C18_20  and  N1_65
REMARK    9  A    between atoms: O1_22  and  C20_23
REMARK   10  A    between atoms: O2_24  and  C21_25
REMARK   11  A    between atoms: C25_29  and  O3_30
REMARK   12  A    between atoms: O3_30  and  C26_31
REMARK   13  A    between atoms: O4_32  and  C27_33
REMARK                            x       y       z     vdW  Elec       q    Type
REMARK                         _______ _______ _______ _____ _____    ______ ____
ROOT
ATOM     16  C   UNL     1       0.012   1.198  -2.249  0.00  0.00    -0.080 A 
ATOM     17  C   UNL     1      -0.575   1.517  -3.478  0.00  0.00    +0.208 A 
ATOM     20  C   UNL     1      -1.863   2.021  -3.511  0.00  0.00    -0.147 A 
ATOM     21  C   UNL     1      -2.561   2.208  -2.329  0.00  0.00    +0.201 A 
ATOM     24  C   UNL     1      -1.979   1.894  -1.102  0.00  0.00    -0.204 A 
ATOM     25  C   UNL     1      -2.784   2.123   0.150  0.00  0.00    +0.242 C 
ATOM     26  N   UNL     1      -2.211   1.353   1.266  0.00  0.00    -0.391 N 
ATOM     27  H   UNL     1      -2.309   0.350   1.067  0.00  0.00    +0.426 HD
ATOM     28  C   UNL     1      -2.930   1.666   2.521  0.00  0.00    +0.324 C 
ATOM     29  C   UNL     1      -0.779   1.679   1.407  0.00  0.00    +0.175 C 
ATOM     30  C   UNL     1      -0.258   1.116   2.730  0.00  0.00    +0.091 C 
ATOM     31  C   UNL     1      -0.032   1.029   0.242  0.00  0.00    +0.135 C 
ATOM     32  C   UNL     1      -4.224   1.660  -0.083  0.00  0.00    +0.096 C 
ATOM     33  C   UNL     1      -0.700   1.389  -1.061  0.00  0.00    -0.000 A 
ENDROOT
BRANCH  16  15
ATOM      1  C   UNL     1       2.240   3.003  -2.050  0.00  0.00    +0.093 C 
ATOM      2  C   UNL     1       2.471   1.515  -2.110  0.00  0.00    +0.003 A 
ATOM      3  C   UNL     1       3.769   1.020  -2.063  0.00  0.00    -0.111 A 
ATOM      4  C   UNL     1       4.011  -0.335  -2.122  0.00  0.00    +0.188 A 
ATOM      7  C   UNL     1       2.933  -1.237  -2.225  0.00  0.00    -0.105 A 
ATOM      8  C   UNL     1       1.609  -0.740  -2.268  0.00  0.00    +0.048 A 
ATOM      9  C   UNL     1       0.537  -1.638  -2.372  0.00  0.00    -0.050 A 
ATOM     10  C   UNL     1       0.775  -2.978  -2.430  0.00  0.00    +0.077 A 
ATOM     11  C   UNL     1       2.072  -3.478  -2.389  0.00  0.00    -0.113 A 
ATOM     12  C   UNL     1       3.151  -2.627  -2.287  0.00  0.00    +0.178 A 
ATOM     15  C   UNL     1       1.389   0.658  -2.206  0.00  0.00    -0.103 A 
BRANCH   4   5
ATOM      5  O   UNL     1       5.286  -0.801  -2.080  0.00  0.00    -0.287 OA
ATOM      6  C   UNL     1       6.328   0.171  -1.974  0.00  0.00    +0.245 C 
ENDBRANCH   4   5
BRANCH  12  13
ATOM     13  O   UNL     1       4.414  -3.125  -2.248  0.00  0.00    -0.289 OA
ATOM     14  C   UNL     1       4.554  -4.546  -2.316  0.00  0.00    +0.245 C 
ENDBRANCH  12  13
ENDBRANCH  16  15
BRANCH  17  18
ATOM     18  O   UNL     1       0.117   1.333  -4.633  0.00  0.00    -0.291 OA
ATOM     19  C   UNL     1      -0.547   1.681  -5.849  0.00  0.00    +0.252 C 
ENDBRANCH  17  18
BRANCH  21  22
ATOM     22  O   UNL     1      -3.826   2.704  -2.366  0.00  0.00    -0.308 OA
ATOM     23  C   UNL     1      -4.367   3.007  -3.654  0.00  0.00    +0.253 C 
ENDBRANCH  21  22
TORSDOF 5
