REMARK  Name = ZINC01530009
REMARK  10 active torsions:
REMARK  status: ('A' for Active; 'I' for Inactive)
REMARK    1  A    between atoms: C3_3  and  O10_36
REMARK    2  A    between atoms: C6_6  and  C7_7
REMARK    3  A    between atoms: C11_12  and  O9_35
REMARK    4  A    between atoms: C13_14  and  O3_18
REMARK    5  A    between atoms: O3_18  and  C16_19
REMARK    6  A    between atoms: C17_21  and  O8_34
REMARK    7  A    between atoms: C18_23  and  O7_33
REMARK    8  A    between atoms: C19_25  and  O6_32
REMARK    9  A    between atoms: C20_27  and  C21_30
REMARK   10  A    between atoms: C21_30  and  O5_31
REMARK                            x       y       z     vdW  Elec       q    Type
REMARK                         _______ _______ _______ _____ _____    ______ ____
ROOT
ATOM      9  C   UNL     1      -0.163   1.750  -8.339  0.00  0.00    +0.207 A 
ATOM     10  C   UNL     1      -1.119   2.709  -8.473  0.00  0.00    -0.146 A 
ATOM     11  C   UNL     1      -1.761   3.221  -7.321  0.00  0.00    +0.425 A 
ATOM     12  C   UNL     1      -1.347   2.676  -6.016  0.00  0.00    -0.285 A 
ATOM     13  C   UNL     1      -1.928   3.125  -4.824  0.00  0.00    +0.242 A 
ATOM     16  C   UNL     1      -1.512   2.588  -3.619  0.00  0.00    -0.095 A 
ATOM     17  C   UNL     1      -0.523   1.609  -3.595  0.00  0.00    +0.207 A 
ATOM     34  C   UNL     1       0.059   1.164  -4.771  0.00  0.00    -0.029 A 
ATOM     35  C   UNL     1      -0.349   1.687  -5.989  0.00  0.00    +0.201 A 
ATOM     36  O   UNL     1      -2.623   4.080  -7.404  0.00  0.00    -0.456 OA
ATOM     37  O   UNL     1       0.205   1.261  -7.144  0.00  0.00    -0.217 OA
ENDROOT
BRANCH   9   8
ATOM      1  C   UNL     1       0.129   1.714 -10.811  0.00  0.00    +0.080 A 
ATOM      2  C   UNL     1       0.748   1.227 -11.941  0.00  0.00    -0.006 A 
ATOM      3  C   UNL     1       1.727   0.247 -11.831  0.00  0.00    +0.135 A 
ATOM      6  C   UNL     1       2.090  -0.242 -10.582  0.00  0.00    -0.010 A 
ATOM      7  C   UNL     1       1.480   0.243  -9.446  0.00  0.00    +0.080 A 
ATOM      8  C   UNL     1       0.494   1.228  -9.552  0.00  0.00    -0.084 A 
BRANCH   3   4
ATOM      4  O   UNL     1       2.332  -0.234 -12.948  0.00  0.00    -0.497 OA
ATOM      5  H   UNL     1       1.887  -0.999 -13.336  0.00  0.00    +0.398 HD
ENDBRANCH   3   4
ENDBRANCH   9   8
BRANCH  13  14
ATOM     14  O   UNL     1      -2.892   4.079  -4.849  0.00  0.00    -0.470 OA
ATOM     15  H   UNL     1      -2.553   4.983  -4.792  0.00  0.00    +0.402 HD
ENDBRANCH  13  14
BRANCH  17  18
ATOM     18  O   UNL     1      -0.121   1.090  -2.407  0.00  0.00    -0.285 OA
BRANCH  18  19
ATOM     19  C   UNL     1      -0.756   1.594  -1.230  0.00  0.00    +0.305 C 
ATOM     20  C   UNL     1      -0.013   1.086   0.008  0.00  0.00    +0.151 C 
ATOM     23  C   UNL     1      -0.732   1.581   1.266  0.00  0.00    +0.166 C 
ATOM     26  C   UNL     1      -2.190   1.107   1.226  0.00  0.00    +0.172 C 
ATOM     29  C   UNL     1      -2.849   1.615  -0.059  0.00  0.00    +0.194 C 
ATOM     33  O   UNL     1      -2.111   1.144  -1.189  0.00  0.00    -0.370 OA
BRANCH  20  21
ATOM     21  O   UNL     1       1.327   1.582  -0.002  0.00  0.00    -0.553 OA
ATOM     22  H   UNL     1       1.842   1.308  -0.774  0.00  0.00    +0.396 HD
ENDBRANCH  20  21
BRANCH  23  24
ATOM     24  O   UNL     1      -0.087   1.051   2.426  0.00  0.00    -0.552 OA
ATOM     25  H   UNL     1       0.842   1.306   2.510  0.00  0.00    +0.397 HD
ENDBRANCH  23  24
BRANCH  26  27
ATOM     27  O   UNL     1      -2.892   1.623   2.358  0.00  0.00    -0.548 OA
ATOM     28  H   UNL     1      -2.528   1.341   3.209  0.00  0.00    +0.396 HD
ENDBRANCH  26  27
BRANCH  29  30
ATOM     30  C   UNL     1      -4.286   1.096  -0.136  0.00  0.00    +0.227 C 
BRANCH  30  31
ATOM     31  O   UNL     1      -4.937   1.662  -1.275  0.00  0.00    -0.564 OA
ATOM     32  H   UNL     1      -5.854   1.376  -1.386  0.00  0.00    +0.386 HD
ENDBRANCH  30  31
ENDBRANCH  29  30
ENDBRANCH  18  19
ENDBRANCH  17  18
TORSDOF 10
