REMARK  Name = ZINC00828203
REMARK  6 active torsions:
REMARK  status: ('A' for Active; 'I' for Inactive)
REMARK    1  A    between atoms: C1_1  and  O1_2
REMARK    2  A    between atoms: O1_2  and  C2_3
REMARK    3  A    between atoms: C7_8  and  O2_9
REMARK    4  A    between atoms: O2_9  and  C8_10
REMARK    5  A    between atoms: C9_11  and  O7_28
REMARK    6  A    between atoms: C12_14  and  C13_15
REMARK                            x       y       z     vdW  Elec       q    Type
REMARK                         _______ _______ _______ _____ _____    ______ ____
ROOT
ATOM      3  C   UNL     1       0.606  -0.607  -1.056  0.00  0.00    +0.131 A 
ATOM      4  C   UNL     1       1.161   0.157  -2.042  0.00  0.00    -0.020 A 
ATOM      5  C   UNL     1       1.785  -0.464  -3.135  0.00  0.00    -0.028 A 
ATOM      6  C   UNL     1       1.832  -1.878  -3.203  0.00  0.00    -0.033 A 
ATOM      7  C   UNL     1       2.458  -2.506  -4.303  0.00  0.00    +0.152 A 
ATOM     10  C   UNL     1       3.015  -1.757  -5.291  0.00  0.00    -0.142 A 
ATOM     11  C   UNL     1       2.981  -0.350  -5.245  0.00  0.00    -0.175 A 
ATOM     12  C   UNL     1       3.661   0.149  -6.450  0.00  0.00    +0.522 C 
ATOM     13  O   UNL     1       4.091  -0.881  -7.198  0.00  0.00    -0.314 OA
ATOM     14  O   UNL     1       3.813   1.323  -6.728  0.00  0.00    -0.436 OA
ATOM     15  C   UNL     1       3.740  -2.114  -6.566  0.00  0.00    +0.333 C 
ATOM     16  C   UNL     1       1.253  -2.637  -2.175  0.00  0.00    -0.026 A 
ATOM     17  C   UNL     1       2.368   0.303  -4.171  0.00  0.00    +0.066 A 
ATOM     27  C   UNL     1       0.657  -2.007  -1.120  0.00  0.00    +0.141 A 
ENDROOT
BRANCH  17  18
ATOM     18  C   UNL     1       2.330   1.780  -4.119  0.00  0.00    -0.055 A 
ATOM     19  C   UNL     1       1.107   2.451  -4.185  0.00  0.00    +0.052 A 
ATOM     20  C   UNL     1       1.073   3.828  -4.136  0.00  0.00    +0.041 A 
ATOM     21  C   UNL     1       2.251   4.552  -4.021  0.00  0.00    +0.045 A 
ATOM     22  C   UNL     1       3.476   3.888  -3.955  0.00  0.00    +0.038 A 
ATOM     23  O   UNL     1       4.470   4.817  -3.846  0.00  0.00    -0.306 OA
ATOM     24  C   UNL     1       3.878   6.063  -4.257  0.00  0.00    +0.435 C 
ATOM     25  O   UNL     1       2.481   5.896  -3.953  0.00  0.00    -0.307 OA
ATOM     26  C   UNL     1       3.516   2.507  -3.997  0.00  0.00    +0.075 A 
ENDBRANCH  17  18
BRANCH   3   2
ATOM      1  C   UNL     1      -0.017   1.425   0.010  0.00  0.00    +0.248 C 
ATOM      2  O   UNL     1       0.002  -0.004   0.002  0.00  0.00    -0.299 OA
ENDBRANCH   3   2
BRANCH   7   8
ATOM      8  O   UNL     1       2.505  -3.862  -4.372  0.00  0.00    -0.486 OA
ATOM      9  H   UNL     1       1.750  -4.259  -4.828  0.00  0.00    +0.395 HD
ENDBRANCH   7   8
BRANCH  27  28
ATOM     28  O   UNL     1       0.102  -2.745  -0.123  0.00  0.00    -0.299 OA
ATOM     29  C   UNL     1       0.185  -4.167  -0.245  0.00  0.00    +0.249 C 
ENDBRANCH  27  28
TORSDOF 4
