REMARK  Name = ZINC14642643
REMARK  12 active torsions:
REMARK  status: ('A' for Active; 'I' for Inactive)
REMARK    1  A    between atoms: C1_1  and  O1_2
REMARK    2  A    between atoms: O1_2  and  C2_3
REMARK    3  A    between atoms: C4_5  and  C8_11
REMARK    4  A    between atoms: C6_7  and  O3_10
REMARK    5  A    between atoms: C7_8  and  O2_9
REMARK    6  A    between atoms: C8_11  and  O5_13
REMARK    7  A    between atoms: O5_13  and  C9_14
REMARK    8  A    between atoms: C12_18  and  O10_35
REMARK    9  A    between atoms: C14_20  and  O9_34
REMARK   10  A    between atoms: C17_24  and  C18_26
REMARK   11  A    between atoms: C21_29  and  O8_33
REMARK   12  A    between atoms: C22_30  and  O7_32
REMARK                            x       y       z     vdW  Elec       q    Type
REMARK                         _______ _______ _______ _____ _____    ______ ____
ROOT
ATOM      8  C   UNL     1      -0.727   1.579   1.269  0.00  0.00    +0.175 C 
ATOM      9  C   UNL     1      -0.013   1.086   0.008  0.00  0.00    +0.109 C 
ATOM     10  C   UNL     1      -0.740   1.584  -1.215  0.00  0.00    -0.195 A 
ATOM     11  C   UNL     1      -0.076   1.579  -2.436  0.00  0.00    +0.161 A 
ATOM     14  C   UNL     1      -0.714   2.027  -3.581  0.00  0.00    -0.061 A 
ATOM     15  C   UNL     1      -2.022   2.482  -3.509  0.00  0.00    +0.159 A 
ATOM     18  C   UNL     1      -2.684   2.489  -2.293  0.00  0.00    -0.039 A 
ATOM     19  C   UNL     1      -2.044   2.042  -1.142  0.00  0.00    +0.171 A 
ATOM     20  O   UNL     1      -2.726   2.075   0.033  0.00  0.00    -0.291 OA
ATOM     21  C   UNL     1      -2.226   1.292   1.117  0.00  0.00    +0.254 C 
ENDROOT
BRANCH  21  22
ATOM     22  C   UNL     1      -2.946   1.665   2.387  0.00  0.00    -0.089 A 
ATOM     23  C   UNL     1      -3.329   2.976   2.603  0.00  0.00    +0.070 A 
ATOM     24  C   UNL     1      -3.995   3.323   3.764  0.00  0.00    +0.005 A 
ATOM     25  C   UNL     1      -4.270   2.358   4.719  0.00  0.00    +0.093 A 
ATOM     28  C   UNL     1      -3.880   1.039   4.505  0.00  0.00    +0.080 A 
ATOM     31  C   UNL     1      -3.217   0.698   3.337  0.00  0.00    +0.023 A 
BRANCH  25  26
ATOM     26  O   UNL     1      -4.920   2.698   5.864  0.00  0.00    -0.487 OA
ATOM     27  H   UNL     1      -4.334   2.962   6.586  0.00  0.00    +0.390 HD
ENDBRANCH  25  26
BRANCH  28  29
ATOM     29  O   UNL     1      -4.148   0.088   5.439  0.00  0.00    -0.485 OA
ATOM     30  H   UNL     1      -3.450  -0.021   6.100  0.00  0.00    +0.389 HD
ENDBRANCH  28  29
ENDBRANCH  21  22
BRANCH  11  12
ATOM     12  O   UNL     1       1.206   1.132  -2.507  0.00  0.00    -0.491 OA
ATOM     13  H   UNL     1       1.283   0.184  -2.684  0.00  0.00    +0.395 HD
ENDBRANCH  11  12
BRANCH  15  16
ATOM     16  O   UNL     1      -2.652   2.922  -4.630  0.00  0.00    -0.491 OA
ATOM     17  H   UNL     1      -3.128   2.231  -5.110  0.00  0.00    +0.397 HD
ENDBRANCH  15  16
BRANCH   8   7
ATOM      7  O   UNL     1      -0.516   3.007   1.425  0.00  0.00    -0.326 OA
BRANCH   7   6
ATOM      6  C   UNL     1       0.562   3.391   2.136  0.00  0.00    +0.515 C 
ATOM     32  O   UNL     1       1.305   2.556   2.613  0.00  0.00    -0.499 OA
BRANCH   6   5
ATOM      3  C   UNL     1       2.216   6.571   3.259  0.00  0.00    +0.109 A 
ATOM      4  C   UNL     1       1.955   5.226   3.078  0.00  0.00    +0.011 A 
ATOM      5  C   UNL     1       0.841   4.826   2.336  0.00  0.00    -0.080 A 
ATOM     33  C   UNL     1      -0.013   5.787   1.788  0.00  0.00    +0.047 A 
ATOM     34  C   UNL     1       0.250   7.131   1.977  0.00  0.00    +0.110 A 
ATOM     37  C   UNL     1       1.364   7.527   2.712  0.00  0.00    +0.088 A 
BRANCH   3   2
ATOM      1  C   UNL     1       4.136   5.928   4.507  0.00  0.00    +0.248 C 
ATOM      2  O   UNL     1       3.304   6.961   3.975  0.00  0.00    -0.300 OA
ENDBRANCH   3   2
BRANCH  34  35
ATOM     35  O   UNL     1      -0.581   8.067   1.445  0.00  0.00    -0.476 OA
ATOM     36  H   UNL     1      -1.305   8.329   2.029  0.00  0.00    +0.394 HD
ENDBRANCH  34  35
BRANCH  37  38
ATOM     38  O   UNL     1       1.620   8.848   2.897  0.00  0.00    -0.471 OA
ATOM     39  H   UNL     1       1.210   9.222   3.689  0.00  0.00    +0.391 HD
ENDBRANCH  37  38
ENDBRANCH   6   5
ENDBRANCH   7   6
ENDBRANCH   8   7
TORSDOF 11
