REMARK  Name = ZINC06922993
REMARK  11 active torsions:
REMARK  status: ('A' for Active; 'I' for Inactive)
REMARK    1  A    between atoms: C1_1  and  N1_2
REMARK    2  A    between atoms: C11_13  and  C16_21
REMARK    3  A    between atoms: C11_13  and  O7_25
REMARK    4  A    between atoms: C12_14  and  C13_15
REMARK    5  A    between atoms: C12_14  and  O4_19
REMARK    6  A    between atoms: C13_15  and  O3_17
REMARK    7  A    between atoms: O3_17  and  C14_18
REMARK    8  A    between atoms: O4_19  and  C15_20
REMARK    9  A    between atoms: C16_21  and  O6_23
REMARK   10  A    between atoms: O6_23  and  C17_24
REMARK   11  A    between atoms: O7_25  and  C18_26
REMARK                            x       y       z     vdW  Elec       q    Type
REMARK                         _______ _______ _______ _____ _____    ______ ____
ROOT
ATOM      1  C   UNL     1      -0.078  -0.167  -0.008  0.00  0.00    +0.320 C 
ATOM      2  N   UNL     1      -0.279   1.241   0.341  0.00  0.00    -0.467 N 
ATOM      3  C   UNL     1       0.793   1.971   0.792  0.00  0.00    +0.198 A 
ATOM      4  C   UNL     1       2.054   1.394   0.922  0.00  0.00    -0.028 A 
ATOM      5  C   UNL     1       3.109   2.153   1.379  0.00  0.00    +0.087 A 
ATOM      6  C   UNL     1       2.931   3.489   1.712  0.00  0.00    -0.015 A 
ATOM      7  C   UNL     1       1.702   4.075   1.592  0.00  0.00    +0.120 A 
ATOM      8  C   UNL     1       0.621   3.324   1.131  0.00  0.00    -0.183 A 
ATOM      9  C   UNL     1      -0.722   3.911   0.986  0.00  0.00    +0.451 A 
ATOM     10  C   UNL     1      -1.761   3.078   0.513  0.00  0.00    -0.268 A 
ATOM     11  C   UNL     1      -3.212   2.923   0.135  0.00  0.00    +0.188 C 
ATOM     18  C   UNL     1      -2.952   1.459  -0.215  0.00  0.00    +0.174 C 
ATOM     25  O   UNL     1      -0.931   5.080   1.265  0.00  0.00    -0.474 OA
ATOM     26  C   UNL     1      -1.526   1.784   0.200  0.00  0.00    +0.173 A 
ENDROOT
BRANCH  11  12
ATOM     12  O   UNL     1      -3.587   3.714  -0.995  0.00  0.00    -0.331 OA
ATOM     13  C   UNL     1      -4.920   3.477  -1.454  0.00  0.00    +0.236 C 
ENDBRANCH  11  12
BRANCH  11  14
ATOM     14  C   UNL     1      -4.151   3.097   1.300  0.00  0.00    +0.455 C 
ATOM     17  O   UNL     1      -4.002   2.436   2.300  0.00  0.00    -0.477 OA
BRANCH  14  15
ATOM     15  O   UNL     1      -5.154   3.986   1.228  0.00  0.00    -0.336 OA
ATOM     16  C   UNL     1      -6.019   4.100   2.388  0.00  0.00    +0.271 C 
ENDBRANCH  14  15
ENDBRANCH  11  14
BRANCH  18  19
ATOM     19  O   UNL     1      -3.097   1.155  -1.604  0.00  0.00    -0.322 OA
ATOM     20  C   UNL     1      -2.131   1.791  -2.443  0.00  0.00    +0.248 C 
ENDBRANCH  18  19
BRANCH  18  21
ATOM     21  C   UNL     1      -3.655   0.476   0.685  0.00  0.00    +0.493 C 
ATOM     24  O   UNL     1      -3.066  -0.017   1.618  0.00  0.00    -0.454 OA
BRANCH  21  22
ATOM     22  O   UNL     1      -4.935   0.147   0.450  0.00  0.00    -0.342 OA
ATOM     23  C   UNL     1      -5.548  -0.806   1.358  0.00  0.00    +0.284 C 
ENDBRANCH  21  22
ENDBRANCH  18  21
TORSDOF 6
