REMARK  Name = ZINC00134782
REMARK  3 active torsions:
REMARK  status: ('A' for Active; 'I' for Inactive)
REMARK    1  A    between atoms: C1_1  and  C2_2
REMARK    2  A    between atoms: C2_2  and  C22_26
REMARK    3  A    between atoms: C9_10  and  C16_20
REMARK                            x       y       z     vdW  Elec       q    Type
REMARK                         _______ _______ _______ _____ _____    ______ ____
ROOT
ATOM      1  C   UNL     1      -0.019   1.526   0.010  0.00  0.00    +0.035 C 
ATOM      2  C   UNL     1       0.002  -0.004   0.002  0.00  0.00    +0.142 C 
ATOM      3  C   UNL     1      -1.435  -0.530   0.022  0.00  0.00    +0.089 C 
ATOM      4  C   UNL     1       0.688  -0.486  -1.250  0.00  0.00    -0.035 C 
ATOM      5  C   UNL     1       2.008  -0.669  -1.254  0.00  0.00    +0.068 C 
ATOM      6  C   UNL     1       2.754  -0.399  -0.009  0.00  0.00    -0.031 A 
ATOM      7  C   UNL     1       4.153  -0.231  -0.015  0.00  0.00    -0.196 A 
ATOM      8  C   UNL     1       4.928  -0.316  -1.265  0.00  0.00    +0.428 A 
ATOM      9  C   UNL     1       6.329  -0.132  -1.170  0.00  0.00    -0.146 A 
ATOM     10  C   UNL     1       6.886   0.109   0.046  0.00  0.00    +0.207 A 
ATOM     17  O   UNL     1       6.173   0.182   1.176  0.00  0.00    -0.203 OA
ATOM     18  O   UNL     1       4.386  -0.534  -2.336  0.00  0.00    -0.466 OA
ATOM     19  C   UNL     1       4.836   0.022   1.179  0.00  0.00    +0.173 A 
ATOM     20  C   UNL     1       4.108   0.106   2.377  0.00  0.00    -0.124 A 
ATOM     21  C   UNL     1       4.480   0.349   3.775  0.00  0.00    -0.024 A 
ATOM     22  C   UNL     1       3.338   0.315   4.477  0.00  0.00    +0.235 A 
ATOM     23  O   UNL     1       2.300   0.076   3.658  0.00  0.00    -0.171 OA
ATOM     24  C   UNL     1       2.715  -0.058   2.381  0.00  0.00    +0.091 A 
ATOM     25  C   UNL     1       2.042  -0.310   1.186  0.00  0.00    +0.124 A 
ATOM     26  O   UNL     1       0.694  -0.474   1.160  0.00  0.00    -0.293 OA
ENDROOT
BRANCH  10  11
ATOM     11  C   UNL     1       8.349   0.297   0.124  0.00  0.00    -0.076 A 
ATOM     12  C   UNL     1       9.127   0.233  -1.034  0.00  0.00    +0.057 A 
ATOM     13  C   UNL     1      10.492   0.410  -0.954  0.00  0.00    +0.014 A 
ATOM     14  C   UNL     1      11.091   0.651   0.270  0.00  0.00    +0.038 A 
ATOM     15  C   UNL     1      10.326   0.716   1.421  0.00  0.00    +0.009 A 
ATOM     16  C   UNL     1       8.959   0.546   1.355  0.00  0.00    +0.055 A 
ENDBRANCH  10  11
TORSDOF 1
