REMARK  Name = ZINC95486004
REMARK  13 active torsions:
REMARK  status: ('A' for Active; 'I' for Inactive)
REMARK    1  A    between atoms: C1_1  and  C2_2
REMARK    2  A    between atoms: C2_2  and  O2_4
REMARK    3  A    between atoms: O2_4  and  C3_5
REMARK    4  A    between atoms: C3_5  and  C4_6
REMARK    5  A    between atoms: C7_10  and  C20_27
REMARK    6  A    between atoms: C11_15  and  C12_17
REMARK    7  A    between atoms: C15_20  and  O5_25
REMARK    8  A    between atoms: C16_21  and  O4_23
REMARK    9  A    between atoms: O4_23  and  C18_24
REMARK   10  A    between atoms: O5_25  and  C19_26
REMARK   11  A    between atoms: C21_28  and  C22_29
REMARK   12  A    between atoms: C22_29  and  O6_30
REMARK   13  A    between atoms: O6_30  and  C23_31
REMARK                            x       y       z     vdW  Elec       q    Type
REMARK                         _______ _______ _______ _____ _____    ______ ____
ROOT
ATOM      5  C   UNL     1      -2.463  -2.721   0.011  0.00  0.00    +0.044 C 
ATOM      6  C   UNL     1      -3.170  -2.470  -1.307  0.00  0.00    -0.168 A 
ATOM      7  C   UNL     1      -3.783  -1.354  -1.825  0.00  0.00    +0.089 A 
ATOM      8  C   UNL     1      -4.373  -1.409  -3.090  0.00  0.00    -0.086 A 
ATOM     14  C   UNL     1      -4.334  -2.601  -3.815  0.00  0.00    +0.063 A 
ATOM     15  C   UNL     1      -3.715  -3.712  -3.289  0.00  0.00    -0.002 A 
ATOM     16  C   UNL     1      -3.121  -3.658  -2.028  0.00  0.00    +0.109 A 
ATOM     17  O   UNL     1      -2.451  -4.623  -1.340  0.00  0.00    -0.290 OA
ATOM     18  C   UNL     1      -2.400  -4.266   0.052  0.00  0.00    +0.248 C 
ENDROOT
BRANCH  18  19
ATOM     19  C   UNL     1      -1.111  -4.732   0.677  0.00  0.00    -0.100 A 
ATOM     20  C   UNL     1       0.052  -4.749  -0.071  0.00  0.00    +0.045 A 
ATOM     21  C   UNL     1       1.238  -5.175   0.498  0.00  0.00    -0.030 A 
ATOM     22  C   UNL     1       1.263  -5.586   1.821  0.00  0.00    +0.112 A 
ATOM     25  C   UNL     1       0.093  -5.568   2.574  0.00  0.00    +0.101 A 
ATOM     28  C   UNL     1      -1.091  -5.135   1.999  0.00  0.00    -0.016 A 
BRANCH  22  23
ATOM     23  O   UNL     1       2.428  -6.006   2.382  0.00  0.00    -0.304 OA
ATOM     24  C   UNL     1       3.589  -5.998   1.548  0.00  0.00    +0.241 C 
ENDBRANCH  22  23
BRANCH  25  26
ATOM     26  O   UNL     1       0.113  -5.970   3.873  0.00  0.00    -0.304 OA
ATOM     27  C   UNL     1      -1.125  -5.925   4.585  0.00  0.00    +0.239 C 
ENDBRANCH  25  26
ENDBRANCH  18  19
BRANCH   8   9
ATOM      9  C   UNL     1      -5.035  -0.214  -3.655  0.00  0.00    +0.023 C 
ATOM     10  C   UNL     1      -5.594  -0.272  -4.856  0.00  0.00    -0.026 C 
BRANCH  10  11
ATOM     11  C   UNL     1      -6.268   0.946  -5.433  0.00  0.00    +0.208 C 
BRANCH  11  12
ATOM     12  O   UNL     1      -5.875   1.107  -6.797  0.00  0.00    -0.389 OA
ATOM     13  C   UNL     1      -6.463   2.239  -7.441  0.00  0.00    +0.203 C 
ENDBRANCH  11  12
ENDBRANCH  10  11
ENDBRANCH   8   9
BRANCH   5   4
ATOM      4  C   UNL     1      -1.057  -2.117   0.001  0.00  0.00    +0.234 C 
BRANCH   4   3
ATOM      3  O   UNL     1      -1.151  -0.691   0.009  0.00  0.00    -0.351 OA
BRANCH   3   2
ATOM      1  C   UNL     1      -0.018   1.503   0.010  0.00  0.00    +0.157 C 
ATOM      2  C   UNL     1       0.002  -0.004   0.002  0.00  0.00    +0.458 C 
ATOM     29  O   UNL     1       1.057  -0.594  -0.011  0.00  0.00    -0.509 OA
ENDBRANCH   3   2
ENDBRANCH   4   3
ENDBRANCH   5   4
TORSDOF 9
