REMARK  Name = ZINC95485894
REMARK  13 active torsions:
REMARK  status: ('A' for Active; 'I' for Inactive)
REMARK    1  A    between atoms: C1_1  and  C2_2
REMARK    2  A    between atoms: C2_2  and  C32_45
REMARK    3  A    between atoms: C3_3  and  C4_4
REMARK    4  A    between atoms: C10_11  and  O3_20
REMARK    5  A    between atoms: C11_12  and  O2_18
REMARK    6  A    between atoms: N1_14  and  C14_17
REMARK    7  A    between atoms: O2_18  and  C15_19
REMARK    8  A    between atoms: O3_20  and  C16_21
REMARK    9  A    between atoms: N2_33  and  C31_44
REMARK   10  A    between atoms: C27_38  and  O8_42
REMARK   11  A    between atoms: C28_39  and  O7_40
REMARK   12  A    between atoms: O7_40  and  C29_41
REMARK   13  A    between atoms: O8_42  and  C30_43
REMARK                            x       y       z     vdW  Elec       q    Type
REMARK                         _______ _______ _______ _____ _____    ______ ____
ROOT
ATOM      5  C   UNL     1       0.218  -2.003   2.305  0.00  0.00    +0.128 C 
ATOM      6  C   UNL     1       1.481  -2.472   2.989  0.00  0.00    -0.291 A 
ATOM      7  C   UNL     1       1.548  -2.611   4.343  0.00  0.00    +0.233 A 
ATOM      8  O   UNL     1       0.503  -2.336   5.158  0.00  0.00    -0.266 OA
ATOM      9  C   UNL     1      -0.548  -1.541   4.611  0.00  0.00    +0.230 C 
ATOM     10  C   UNL     1      -1.739  -1.503   5.527  0.00  0.00    -0.185 A 
ATOM     11  C   UNL     1      -1.533  -1.376   6.920  0.00  0.00    +0.544 A 
ATOM     12  N   UNL     1      -2.557  -1.324   7.788  0.00  0.00    -0.515 N 
ATOM     13  C   UNL     1      -2.283  -1.192   9.222  0.00  0.00    +0.324 C 
ATOM     14  C   UNL     1      -3.863  -1.395   7.347  0.00  0.00    +0.220 A 
ATOM     15  C   UNL     1      -4.125  -1.516   5.969  0.00  0.00    -0.154 A 
ATOM     16  C   UNL     1      -5.446  -1.586   5.510  0.00  0.00    +0.129 A 
ATOM     17  C   UNL     1      -6.478  -1.525   6.401  0.00  0.00    -0.077 A 
ATOM     18  C   UNL     1      -6.231  -1.394   7.765  0.00  0.00    +0.169 A 
ATOM     21  C   UNL     1      -4.927  -1.338   8.243  0.00  0.00    +0.012 A 
ATOM     24  O   UNL     1      -0.393  -1.312   7.346  0.00  0.00    -0.509 OA
ATOM     25  C   UNL     1      -2.999  -1.579   5.032  0.00  0.00    +0.007 A 
ATOM     26  C   UNL     1      -3.280  -1.732   3.562  0.00  0.00    +0.302 C 
ATOM     27  O   UNL     1      -2.109  -1.465   2.788  0.00  0.00    -0.341 OA
ATOM     28  C   UNL     1       2.810  -3.076   4.939  0.00  0.00    -0.155 A 
ATOM     29  C   UNL     1       2.934  -3.244   6.321  0.00  0.00    +0.160 A 
ATOM     30  C   UNL     1       4.117  -3.677   6.849  0.00  0.00    -0.089 A 
ATOM     31  C   UNL     1       5.203  -3.952   6.023  0.00  0.00    +0.177 A 
ATOM     34  C   UNL     1       5.100  -3.792   4.648  0.00  0.00    +0.003 A 
ATOM     37  C   UNL     1       3.900  -3.353   4.095  0.00  0.00    +0.230 A 
ATOM     38  N   UNL     1       3.763  -3.188   2.730  0.00  0.00    -0.520 N 
ATOM     39  C   UNL     1       4.900  -3.474   1.852  0.00  0.00    +0.317 C 
ATOM     40  C   UNL     1       2.605  -2.768   2.197  0.00  0.00    +0.556 A 
ATOM     41  O   UNL     1       2.525  -2.638   0.987  0.00  0.00    -0.517 OA
ATOM     42  C   UNL     1      -0.959  -2.162   3.268  0.00  0.00    +0.151 C 
ENDROOT
BRANCH   5   4
ATOM      1  C   UNL     1      -0.313  -0.744  -0.161  0.00  0.00    +0.072 C 
ATOM      2  C   UNL     1      -0.221  -2.246  -0.084  0.00  0.00    -0.101 C 
ATOM      3  C   UNL     1      -0.353  -3.074  -1.336  0.00  0.00    +0.071 C 
ATOM      4  C   UNL     1      -0.025  -2.833   1.071  0.00  0.00    -0.038 C 
ENDBRANCH   5   4
BRANCH  18  19
ATOM     19  O   UNL     1      -7.271  -1.335   8.636  0.00  0.00    -0.299 OA
ATOM     20  C   UNL     1      -8.586  -1.415   8.083  0.00  0.00    +0.251 C 
ENDBRANCH  18  19
BRANCH  21  22
ATOM     22  O   UNL     1      -4.692  -1.211   9.578  0.00  0.00    -0.312 OA
ATOM     23  C   UNL     1      -4.702  -2.410  10.355  0.00  0.00    +0.222 C 
ENDBRANCH  21  22
BRANCH  31  32
ATOM     32  O   UNL     1       6.373  -4.380   6.566  0.00  0.00    -0.299 OA
ATOM     33  C   UNL     1       6.414  -4.523   7.987  0.00  0.00    +0.250 C 
ENDBRANCH  31  32
BRANCH  34  35
ATOM     35  O   UNL     1       6.165  -4.062   3.845  0.00  0.00    -0.308 OA
ATOM     36  C   UNL     1       6.283  -5.398   3.352  0.00  0.00    +0.217 C 
ENDBRANCH  34  35
TORSDOF 5
