REMARK  Name = ZINC95485985
REMARK  7 active torsions:
REMARK  status: ('A' for Active; 'I' for Inactive)
REMARK    1  A    between atoms: C1_1  and  C2_2
REMARK    2  A    between atoms: C5_5  and  C20_24
REMARK    3  A    between atoms: C5_5  and  C21_25
REMARK    4  A    between atoms: C12_13  and  C13_15
REMARK    5  A    between atoms: C13_15  and  C14_16
REMARK    6  A    between atoms: C17_20  and  C18_21
REMARK    7  A    between atoms: C18_21  and  C19_22
REMARK                            x       y       z     vdW  Elec       q    Type
REMARK                         _______ _______ _______ _____ _____    ______ ____
ROOT
ATOM      1  C   UNL     1      -0.386   0.961  -0.225  0.00  0.00    +0.026 C 
ATOM      2  C   UNL     1      -0.417  -0.566  -0.325  0.00  0.00    -0.041 C 
ATOM      3  C   UNL     1      -1.800  -1.020  -0.797  0.00  0.00    +0.012 C 
ATOM      4  C   UNL     1      -2.861  -0.587   0.215  0.00  0.00    +0.017 C 
ATOM      5  C   UNL     1      -2.555  -1.228   1.571  0.00  0.00    -0.063 C 
ATOM      6  C   UNL     1      -2.557  -2.752   1.427  0.00  0.00    +0.019 C 
ATOM      7  C   UNL     1      -3.620  -0.809   2.586  0.00  0.00    +0.018 C 
ATOM      8  C   UNL     1      -1.181  -0.762   2.050  0.00  0.00    +0.020 C 
ATOM      9  C   UNL     1       0.633  -1.035  -1.339  0.00  0.00    +0.042 C 
ATOM     19  C   UNL     1       2.009  -0.712  -0.802  0.00  0.00    -0.111 C 
ATOM     20  C   UNL     1       2.880  -0.060  -1.531  0.00  0.00    -0.002 C 
ATOM     21  C   UNL     1       2.350  -1.164   0.601  0.00  0.00    +0.047 C 
ATOM     22  C   UNL     1       1.246  -0.679   1.545  0.00  0.00    +0.015 C 
ATOM     23  C   UNL     1      -0.113  -1.176   1.044  0.00  0.00    -0.002 C 
ENDROOT
BRANCH   9  10
ATOM     10  C   UNL     1       0.425  -0.306  -2.668  0.00  0.00    +0.105 C 
BRANCH  10  11
ATOM     11  C   UNL     1       1.241  -0.977  -3.743  0.00  0.00    -0.151 A 
ATOM     12  C   UNL     1       2.430  -0.485  -4.329  0.00  0.00    -0.054 A 
ATOM     13  C   UNL     1       2.822  -1.396  -5.237  0.00  0.00    +0.173 A 
ATOM     14  O   UNL     1       1.939  -2.408  -5.233  0.00  0.00    -0.173 OA
ATOM     15  C   UNL     1       0.981  -2.161  -4.325  0.00  0.00    -0.019 A 
BRANCH  15  16
ATOM     16  C   UNL     1      -0.190  -3.058  -4.013  0.00  0.00    +0.119 C 
BRANCH  16  17
ATOM     17  C   UNL     1      -1.350  -2.698  -4.906  0.00  0.00    +0.453 C 
ATOM     18  O   UNL     1      -1.870  -3.546  -5.591  0.00  0.00    -0.449 OA
ENDBRANCH  16  17
ENDBRANCH  15  16
ENDBRANCH  10  11
ENDBRANCH   9  10
TORSDOF 4
