REMARK  Name = ZINC13429389
REMARK  10 active torsions:
REMARK  status: ('A' for Active; 'I' for Inactive)
REMARK    1  A    between atoms: C1_1  and  N1_2
REMARK    2  A    between atoms: C11_13  and  O5_21
REMARK    3  A    between atoms: C11_13  and  O6_23
REMARK    4  A    between atoms: C12_14  and  C13_15
REMARK    5  A    between atoms: C12_14  and  O4_19
REMARK    6  A    between atoms: C13_15  and  O3_17
REMARK    7  A    between atoms: O3_17  and  C14_18
REMARK    8  A    between atoms: O4_19  and  C15_20
REMARK    9  A    between atoms: O5_21  and  C16_22
REMARK   10  A    between atoms: O6_23  and  C17_24
REMARK                            x       y       z     vdW  Elec       q    Type
REMARK                         _______ _______ _______ _____ _____    ______ ____
ROOT
ATOM      1  C   UNL     1      -1.992   1.121   3.193  0.00  0.00    +0.318 C 
ATOM      2  N   UNL     1      -0.873   0.727   2.333  0.00  0.00    -0.472 N 
ATOM      3  C   UNL     1      -0.422  -0.570   2.381  0.00  0.00    +0.199 A 
ATOM      4  C   UNL     1      -1.008  -1.507   3.227  0.00  0.00    -0.031 A 
ATOM      5  C   UNL     1      -0.531  -2.799   3.251  0.00  0.00    +0.087 A 
ATOM      6  C   UNL     1       0.529  -3.179   2.438  0.00  0.00    -0.017 A 
ATOM      7  C   UNL     1       1.119  -2.274   1.600  0.00  0.00    +0.120 A 
ATOM      8  C   UNL     1       0.652  -0.961   1.562  0.00  0.00    -0.186 A 
ATOM      9  C   UNL     1       1.256   0.047   0.675  0.00  0.00    +0.446 A 
ATOM     10  C   UNL     1       0.719   1.362   0.699  0.00  0.00    -0.264 A 
ATOM     11  C   UNL     1       0.807   2.757   0.140  0.00  0.00    +0.200 C 
ATOM     18  C   UNL     1      -0.354   3.100   1.061  0.00  0.00    +0.320 C 
ATOM     23  O   UNL     1       2.189  -0.238  -0.057  0.00  0.00    -0.472 OA
ATOM     24  C   UNL     1      -0.310   1.660   1.511  0.00  0.00    +0.172 A 
ENDROOT
BRANCH  11  12
ATOM     12  O   UNL     1       0.488   2.840  -1.251  0.00  0.00    -0.325 OA
ATOM     13  C   UNL     1       0.433   4.175  -1.756  0.00  0.00    +0.226 C 
ENDBRANCH  11  12
BRANCH  11  14
ATOM     14  C   UNL     1       2.086   3.472   0.493  0.00  0.00    +0.457 C 
ATOM     17  O   UNL     1       2.345   3.710   1.648  0.00  0.00    -0.462 OA
BRANCH  14  15
ATOM     15  O   UNL     1       2.936   3.843  -0.477  0.00  0.00    -0.343 OA
ATOM     16  C   UNL     1       4.149   4.527  -0.064  0.00  0.00    +0.269 C 
ENDBRANCH  14  15
ENDBRANCH  11  14
BRANCH  18  19
ATOM     19  O   UNL     1      -0.013   4.033   2.088  0.00  0.00    -0.351 OA
ATOM     20  C   UNL     1      -0.153   5.401   1.700  0.00  0.00    +0.232 C 
ENDBRANCH  18  19
BRANCH  18  21
ATOM     21  O   UNL     1      -1.555   3.448   0.368  0.00  0.00    -0.351 OA
ATOM     22  C   UNL     1      -2.744   3.270   1.141  0.00  0.00    +0.229 C 
ENDBRANCH  18  21
TORSDOF 5
