REMARK  Name = ZINC14641685
REMARK  14 active torsions:
REMARK  status: ('A' for Active; 'I' for Inactive)
REMARK    1  A    between atoms: C1_1  and  C2_2
REMARK    2  A    between atoms: C2_2  and  C25_33
REMARK    3  A    between atoms: C3_3  and  C4_4
REMARK    4  A    between atoms: C4_4  and  C5_5
REMARK    5  A    between atoms: C6_6  and  O7_32
REMARK    6  A    between atoms: C7_7  and  C20_27
REMARK    7  A    between atoms: C10_10  and  O1_11
REMARK    8  A    between atoms: C13_15  and  C14_18
REMARK    9  A    between atoms: C15_19  and  O6_26
REMARK   10  A    between atoms: C17_21  and  O5_25
REMARK   11  A    between atoms: C19_23  and  O4_24
REMARK   12  A    between atoms: C20_27  and  C21_28
REMARK   13  A    between atoms: C22_29  and  C23_30
REMARK   14  A    between atoms: C22_29  and  C24_31
REMARK                            x       y       z     vdW  Elec       q    Type
REMARK                         _______ _______ _______ _____ _____    ______ ____
ROOT
ATOM      6  C   UNL     1      -1.730   0.724   0.560  0.00  0.00    -0.171 A 
ATOM      7  C   UNL     1      -2.755  -0.194   0.753  0.00  0.00    +0.197 A 
ATOM     10  C   UNL     1      -3.457  -0.711  -0.328  0.00  0.00    -0.151 A 
ATOM     16  C   UNL     1      -3.143  -0.315  -1.616  0.00  0.00    +0.216 A 
ATOM     17  C   UNL     1      -2.110   0.620  -1.816  0.00  0.00    -0.285 A 
ATOM     18  C   UNL     1      -1.791   1.048  -3.182  0.00  0.00    +0.400 C 
ATOM     19  C   UNL     1      -2.407   0.239  -4.309  0.00  0.00    +0.033 C 
ATOM     20  C   UNL     1      -3.846  -0.098  -3.893  0.00  0.00    +0.254 C 
ATOM     33  O   UNL     1      -1.071   2.001  -3.400  0.00  0.00    -0.427 OA
ATOM     34  O   UNL     1      -3.825  -0.828  -2.667  0.00  0.00    -0.293 OA
ATOM     35  C   UNL     1      -1.404   1.139  -0.719  0.00  0.00    +0.220 A 
ENDROOT
BRANCH  20  21
ATOM     21  C   UNL     1      -4.498  -0.933  -4.964  0.00  0.00    -0.160 A 
ATOM     22  C   UNL     1      -4.153  -2.268  -5.108  0.00  0.00    +0.173 A 
ATOM     25  C   UNL     1      -4.756  -3.038  -6.092  0.00  0.00    -0.042 A 
ATOM     26  C   UNL     1      -5.697  -2.469  -6.938  0.00  0.00    +0.154 A 
ATOM     29  C   UNL     1      -6.038  -1.132  -6.797  0.00  0.00    -0.038 A 
ATOM     30  C   UNL     1      -5.438  -0.364  -5.811  0.00  0.00    +0.163 A 
BRANCH  22  23
ATOM     23  O   UNL     1      -3.228  -2.824  -4.283  0.00  0.00    -0.486 OA
ATOM     24  H   UNL     1      -3.600  -3.211  -3.478  0.00  0.00    +0.399 HD
ENDBRANCH  22  23
BRANCH  26  27
ATOM     27  O   UNL     1      -6.285  -3.222  -7.904  0.00  0.00    -0.493 OA
ATOM     28  H   UNL     1      -5.813  -3.217  -8.748  0.00  0.00    +0.399 HD
ENDBRANCH  26  27
BRANCH  30  31
ATOM     31  O   UNL     1      -5.772   0.946  -5.673  0.00  0.00    -0.490 OA
ATOM     32  H   UNL     1      -5.226   1.548  -6.197  0.00  0.00    +0.398 HD
ENDBRANCH  30  31
ENDBRANCH  20  21
BRANCH   7   8
ATOM      8  O   UNL     1      -3.074  -0.589   2.011  0.00  0.00    -0.482 OA
ATOM      9  H   UNL     1      -3.748  -0.041   2.437  0.00  0.00    +0.398 HD
ENDBRANCH   7   8
BRANCH  35  36
ATOM     36  O   UNL     1      -0.406   2.036  -0.912  0.00  0.00    -0.472 OA
ATOM     37  H   UNL     1       0.466   1.636  -1.034  0.00  0.00    +0.397 HD
ENDBRANCH  35  36
BRANCH   6   5
ATOM      5  C   UNL     1      -0.976   1.272   1.744  0.00  0.00    +0.128 C 
BRANCH   5   4
ATOM      1  C   UNL     1       2.610   0.009   2.272  0.00  0.00    +0.072 C 
ATOM      2  C   UNL     1       1.410   0.907   2.108  0.00  0.00    -0.131 C 
ATOM      3  C   UNL     1       1.593   2.401   2.026  0.00  0.00    +0.075 C 
ATOM      4  C   UNL     1       0.209   0.389   2.038  0.00  0.00    -0.050 C 
ENDBRANCH   5   4
ENDBRANCH   6   5
BRANCH  10  11
ATOM     11  C   UNL     1      -4.565  -1.707  -0.098  0.00  0.00    +0.133 C 
BRANCH  11  12
ATOM     12  C   UNL     1      -5.870  -0.974   0.078  0.00  0.00    -0.062 C 
ATOM     13  C   UNL     1      -6.900  -1.283  -0.671  0.00  0.00    -0.119 C 
ATOM     14  C   UNL     1      -8.164  -0.468  -0.587  0.00  0.00    +0.071 C 
ATOM     15  C   UNL     1      -6.820  -2.453  -1.617  0.00  0.00    +0.073 C 
ENDBRANCH  11  12
ENDBRANCH  10  11
TORSDOF 10
