REMARK  Name = ZINC95486344
REMARK  9 active torsions:
REMARK  status: ('A' for Active; 'I' for Inactive)
REMARK    1  A    between atoms: C1_1  and  O1_2
REMARK    2  A    between atoms: O1_2  and  C2_3
REMARK    3  A    between atoms: C7_8  and  O2_9
REMARK    4  A    between atoms: C12_15  and  O5_25
REMARK    5  A    between atoms: C13_16  and  O3_22
REMARK    6  A    between atoms: O3_22  and  C18_23
REMARK    7  A    between atoms: C18_23  and  O4_24
REMARK    8  A    between atoms: O5_25  and  C19_26
REMARK    9  A    between atoms: C19_26  and  O6_27
REMARK                            x       y       z     vdW  Elec       q    Type
REMARK                         _______ _______ _______ _____ _____    ______ ____
ROOT
ATOM      3  C   UNL     1       0.606  -0.608  -1.056  0.00  0.00    +0.114 A 
ATOM      4  C   UNL     1       1.172   0.159  -2.061  0.00  0.00    -0.011 A 
ATOM      5  C   UNL     1       1.784  -0.463  -3.143  0.00  0.00    -0.028 A 
ATOM      6  C   UNL     1       1.854  -1.855  -3.203  0.00  0.00    -0.103 A 
ATOM      7  C   UNL     1       2.581  -2.517  -4.342  0.00  0.00    +0.118 C 
ATOM      8  C   UNL     1       2.364  -1.744  -5.641  0.00  0.00    +0.246 C 
ATOM      9  C   UNL     1       2.693  -0.286  -5.459  0.00  0.00    -0.157 A 
ATOM     10  C   UNL     1       3.253   0.445  -6.485  0.00  0.00    -0.041 A 
ATOM     11  C   UNL     1       3.531  -0.159  -7.833  0.00  0.00    +0.127 C 
ATOM     12  C   UNL     1       3.021  -1.587  -7.939  0.00  0.00    +0.276 C 
ATOM     13  C   UNL     1       3.536   1.795  -6.282  0.00  0.00    -0.040 A 
ATOM     14  C   UNL     1       3.253   2.413  -5.077  0.00  0.00    +0.165 A 
ATOM     19  C   UNL     1       2.673   1.684  -4.046  0.00  0.00    +0.082 A 
ATOM     24  N   UNL     1       3.240  -2.303  -6.681  0.00  0.00    -0.502 N 
ATOM     25  H   UNL     1       3.022  -3.280  -6.815  0.00  0.00    +0.435 HD
ATOM     26  H   UNL     1       4.203  -2.209  -6.396  0.00  0.00    +0.430 HD
ATOM     27  C   UNL     1       1.282  -2.616  -2.204  0.00  0.00    +0.050 A 
ATOM     28  C   UNL     1       2.389   0.332  -4.238  0.00  0.00    +0.013 A 
ATOM     29  C   UNL     1       0.661  -1.997  -1.128  0.00  0.00    +0.097 A 
ENDROOT
BRANCH   3   2
ATOM      1  C   UNL     1      -0.017   1.425   0.010  0.00  0.00    +0.250 C 
ATOM      2  O   UNL     1       0.002  -0.004   0.002  0.00  0.00    -0.299 OA
ENDBRANCH   3   2
BRANCH  29  30
ATOM     30  O   UNL     1       0.101  -2.750  -0.144  0.00  0.00    -0.482 OA
ATOM     31  H   UNL     1      -0.826  -2.975  -0.300  0.00  0.00    +0.396 HD
ENDBRANCH  29  30
BRANCH  14  15
ATOM     15  O   UNL     1       3.542   3.730  -4.903  0.00  0.00    -0.262 OA
BRANCH  15  16
ATOM     16  C   UNL     1       4.138   4.416  -6.006  0.00  0.00    +0.403 C 
BRANCH  16  17
ATOM     17  O   UNL     1       3.145   4.668  -7.002  0.00  0.00    -0.590 OA
ATOM     18  H   UNL     1       3.479   5.132  -7.782  0.00  0.00    +0.405 HD
ENDBRANCH  16  17
ENDBRANCH  15  16
ENDBRANCH  14  15
BRANCH  19  20
ATOM     20  O   UNL     1       2.383   2.283  -2.861  0.00  0.00    -0.298 OA
BRANCH  20  21
ATOM     21  C   UNL     1       3.402   2.265  -1.859  0.00  0.00    +0.388 C 
BRANCH  21  22
ATOM     22  O   UNL     1       4.420   3.210  -2.197  0.00  0.00    -0.582 OA
ATOM     23  H   UNL     1       5.145   3.251  -1.559  0.00  0.00    +0.400 HD
ENDBRANCH  21  22
ENDBRANCH  20  21
ENDBRANCH  19  20
TORSDOF 8
