REMARK  Name = ZINC95486143
REMARK  10 active torsions:
REMARK  status: ('A' for Active; 'I' for Inactive)
REMARK    1  A    between atoms: C1_1  and  C2_2
REMARK    2  A    between atoms: C6_6  and  O3_27
REMARK    3  A    between atoms: C8_8  and  C21_26
REMARK    4  A    between atoms: C9_9  and  C10_10
REMARK    5  A    between atoms: C11_11  and  O2_25
REMARK    6  A    between atoms: C13_13  and  O1_24
REMARK    7  A    between atoms: C17_17  and  C20_23
REMARK    8  A    between atoms: C18_20  and  C19_22
REMARK    9  A    between atoms: C22_28  and  O4_30
REMARK   10  A    between atoms: O4_30  and  C24_31
REMARK                            x       y       z     vdW  Elec       q    Type
REMARK                         _______ _______ _______ _____ _____    ______ ____
ROOT
ATOM     16  C   UNL     1      -0.208  -2.295  -4.166  0.00  0.00    -0.048 A 
ATOM     17  C   UNL     1      -1.343  -2.004  -4.931  0.00  0.00    +0.171 A 
ATOM     20  C   UNL     1      -1.210  -1.283  -6.105  0.00  0.00    -0.016 A 
ATOM     21  C   UNL     1       0.043  -0.856  -6.516  0.00  0.00    +0.159 A 
ATOM     24  C   UNL     1       1.175  -1.145  -5.757  0.00  0.00    -0.164 A 
ATOM     25  C   UNL     1       2.513  -0.661  -6.251  0.00  0.00    +0.239 C 
ATOM     26  C   UNL     1       2.362   0.758  -6.806  0.00  0.00    +0.093 C 
ATOM     27  N   UNL     1       3.490  -0.639  -5.154  0.00  0.00    -0.504 N 
ATOM     28  H   UNL     1       4.401  -0.408  -5.521  0.00  0.00    +0.432 HD
ATOM     29  H   UNL     1       3.218   0.046  -4.465  0.00  0.00    +0.429 HD
ATOM     30  C   UNL     1       3.532  -1.972  -4.535  0.00  0.00    +0.179 C 
ATOM     31  C   UNL     1       3.630  -3.045  -5.621  0.00  0.00    +0.089 C 
ATOM     32  C   UNL     1       2.249  -2.175  -3.728  0.00  0.00    +0.132 C 
ATOM     33  C   UNL     1       1.051  -1.854  -4.584  0.00  0.00    -0.041 A 
ENDROOT
BRANCH  16  15
ATOM      1  C   UNL     1      -0.982   1.129  -0.390  0.00  0.00    +0.094 C 
ATOM      2  C   UNL     1      -0.878  -0.374  -0.436  0.00  0.00    -0.014 A 
ATOM      3  C   UNL     1      -0.663  -0.996  -1.629  0.00  0.00    -0.059 A 
ATOM      4  C   UNL     1      -0.564  -2.394  -1.682  0.00  0.00    +0.030 A 
ATOM      5  C   UNL     1      -0.690  -3.148  -0.491  0.00  0.00    -0.113 A 
ATOM      6  C   UNL     1      -0.911  -2.479   0.729  0.00  0.00    +0.175 A 
ATOM      9  C   UNL     1      -0.592  -4.553  -0.545  0.00  0.00    +0.172 A 
ATOM     12  C   UNL     1      -0.375  -5.180  -1.752  0.00  0.00    -0.033 A 
ATOM     13  C   UNL     1      -0.251  -4.446  -2.925  0.00  0.00    -0.012 A 
ATOM     14  C   UNL     1      -0.013  -5.161  -4.230  0.00  0.00    +0.098 C 
ATOM     15  C   UNL     1      -0.342  -3.065  -2.909  0.00  0.00    -0.090 A 
ATOM     34  C   UNL     1      -0.997  -1.105   0.742  0.00  0.00    -0.104 A 
BRANCH   6   7
ATOM      7  O   UNL     1      -1.035  -3.184   1.883  0.00  0.00    -0.293 OA
ATOM      8  C   UNL     1      -1.258  -2.436   3.080  0.00  0.00    +0.248 C 
ENDBRANCH   6   7
BRANCH   9  10
ATOM     10  O   UNL     1      -0.710  -5.287   0.592  0.00  0.00    -0.480 OA
ATOM     11  H   UNL     1      -1.617  -5.555   0.794  0.00  0.00    +0.399 HD
ENDBRANCH   9  10
ENDBRANCH  16  15
BRANCH  17  18
ATOM     18  O   UNL     1      -2.568  -2.427  -4.524  0.00  0.00    -0.482 OA
ATOM     19  H   UNL     1      -3.033  -1.797  -3.956  0.00  0.00    +0.403 HD
ENDBRANCH  17  18
BRANCH  21  22
ATOM     22  O   UNL     1       0.168  -0.150  -7.670  0.00  0.00    -0.490 OA
ATOM     23  H   UNL     1       0.008   0.798  -7.570  0.00  0.00    +0.401 HD
ENDBRANCH  21  22
TORSDOF 5
