REMARK  Name = ZINC95485901
REMARK  7 active torsions:
REMARK  status: ('A' for Active; 'I' for Inactive)
REMARK    1  A    between atoms: C1_1  and  C2_2
REMARK    2  A    between atoms: C2_2  and  O2_4
REMARK    3  A    between atoms: O2_4  and  C3_5
REMARK    4  A    between atoms: C6_9  and  C19_30
REMARK    5  A    between atoms: C6_9  and  C20_31
REMARK    6  A    between atoms: C7_10  and  O6_29
REMARK    7  A    between atoms: C18_26  and  O5_28
REMARK                            x       y       z     vdW  Elec       q    Type
REMARK                         _______ _______ _______ _____ _____    ______ ____
ROOT
ATOM      4  C   UNL     1      -1.057  -2.111   0.001  0.00  0.00    +0.181 C 
ATOM      5  C   UNL     1      -0.928  -2.632   1.432  0.00  0.00    +0.008 C 
ATOM      6  C   UNL     1      -2.239  -2.418   2.183  0.00  0.00    +0.044 C 
ATOM      7  C   UNL     1      -3.389  -3.137   1.487  0.00  0.00    -0.075 C 
ATOM      8  C   UNL     1      -3.136  -4.652   1.519  0.00  0.00    +0.030 C 
ATOM      9  C   UNL     1      -4.684  -2.871   2.269  0.00  0.00    +0.027 C 
ATOM     10  C   UNL     1      -3.546  -2.687   0.036  0.00  0.00    +0.178 C 
ATOM     13  C   UNL     1      -4.217  -1.327  -0.077  0.00  0.00    +0.173 C 
ATOM     16  C   UNL     1      -4.364  -0.928  -1.549  0.00  0.00    -0.046 C 
ATOM     17  C   UNL     1      -5.013   0.436  -1.633  0.00  0.00    +0.426 C 
ATOM     18  O   UNL     1      -5.818   0.800  -0.797  0.00  0.00    -0.475 OA
ATOM     19  C   UNL     1      -4.660   1.271  -2.706  0.00  0.00    -0.359 C 
ATOM     20  C   UNL     1      -5.122   2.675  -3.005  0.00  0.00    +0.081 C 
ATOM     21  C   UNL     1      -4.074   3.127  -4.054  0.00  0.00    +0.243 C 
ATOM     22  O   UNL     1      -3.624   1.872  -4.601  0.00  0.00    -0.292 OA
ATOM     23  C   UNL     1      -3.794   0.905  -3.689  0.00  0.00    +0.181 C 
ATOM     24  C   UNL     1      -3.135  -0.461  -3.681  0.00  0.00    +0.132 C 
ATOM     25  C   UNL     1      -2.988  -0.888  -2.212  0.00  0.00    +0.031 C 
ATOM     26  C   UNL     1      -2.342  -2.266  -2.147  0.00  0.00    +0.045 C 
ATOM     27  C   UNL     1      -2.226  -2.769  -0.711  0.00  0.00    +0.038 C 
ENDROOT
BRANCH  10  11
ATOM     11  O   UNL     1      -4.440  -3.646  -0.590  0.00  0.00    -0.560 OA
ATOM     12  H   UNL     1      -5.314  -3.695  -0.179  0.00  0.00    +0.375 HD
ENDBRANCH  10  11
BRANCH  13  14
ATOM     14  O   UNL     1      -3.517  -0.313   0.631  0.00  0.00    -0.529 OA
ATOM     15  H   UNL     1      -3.926   0.562   0.573  0.00  0.00    +0.373 HD
ENDBRANCH  13  14
BRANCH   4   3
ATOM      3  O   UNL     1      -1.151  -0.691   0.009  0.00  0.00    -0.308 OA
BRANCH   3   2
ATOM      1  C   UNL     1      -0.018   1.503   0.010  0.00  0.00    +0.146 C 
ATOM      2  C   UNL     1       0.002  -0.004   0.002  0.00  0.00    +0.452 C 
ATOM     28  O   UNL     1       1.057  -0.594  -0.011  0.00  0.00    -0.518 OA
ENDBRANCH   3   2
ENDBRANCH   4   3
TORSDOF 4
