REMARK  Name = ZINC95486193
REMARK  8 active torsions:
REMARK  status: ('A' for Active; 'I' for Inactive)
REMARK    1  A    between atoms: C1_1  and  C2_2
REMARK    2  A    between atoms: C2_2  and  C20_26
REMARK    3  A    between atoms: C3_3  and  C4_4
REMARK    4  A    between atoms: C4_4  and  C5_5
REMARK    5  A    between atoms: C10_10  and  O1_11
REMARK    6  A    between atoms: C13_15  and  C14_18
REMARK    7  A    between atoms: C17_21  and  O5_25
REMARK    8  A    between atoms: C19_23  and  O4_24
REMARK                            x       y       z     vdW  Elec       q    Type
REMARK                         _______ _______ _______ _____ _____    ______ ____
ROOT
ATOM      6  C   UNL     1      -0.864  -0.562   3.381  0.00  0.00    -0.146 A 
ATOM      7  C   UNL     1      -2.151  -0.066   3.474  0.00  0.00    +0.109 A 
ATOM      8  C   UNL     1      -3.071  -0.637   4.333  0.00  0.00    -0.024 A 
ATOM      9  C   UNL     1      -2.712  -1.723   5.117  0.00  0.00    +0.192 A 
ATOM     10  C   UNL     1      -1.408  -2.237   5.022  0.00  0.00    -0.278 A 
ATOM     11  C   UNL     1      -1.036  -3.398   5.843  0.00  0.00    +0.400 C 
ATOM     12  C   UNL     1      -2.004  -3.786   6.947  0.00  0.00    +0.033 C 
ATOM     13  C   UNL     1      -3.423  -3.625   6.384  0.00  0.00    +0.247 C 
ATOM     24  O   UNL     1      -0.010  -4.015   5.648  0.00  0.00    -0.425 OA
ATOM     25  O   UNL     1      -3.614  -2.274   5.963  0.00  0.00    -0.301 OA
ATOM     26  C   UNL     1      -0.482  -1.652   4.148  0.00  0.00    +0.206 A 
ENDROOT
BRANCH  13  14
ATOM     14  C   UNL     1      -4.430  -3.966   7.452  0.00  0.00    -0.127 A 
ATOM     15  C   UNL     1      -4.984  -2.963   8.225  0.00  0.00    +0.082 A 
ATOM     16  C   UNL     1      -5.907  -3.273   9.205  0.00  0.00    -0.016 A 
ATOM     17  C   UNL     1      -6.280  -4.593   9.416  0.00  0.00    +0.133 A 
ATOM     20  C   UNL     1      -5.726  -5.601   8.642  0.00  0.00    -0.031 A 
ATOM     21  C   UNL     1      -4.804  -5.287   7.656  0.00  0.00    +0.141 A 
BRANCH  17  18
ATOM     18  O   UNL     1      -7.188  -4.897  10.381  0.00  0.00    -0.497 OA
ATOM     19  H   UNL     1      -8.105  -4.893  10.073  0.00  0.00    +0.397 HD
ENDBRANCH  17  18
BRANCH  21  22
ATOM     22  O   UNL     1      -4.264  -6.272   6.891  0.00  0.00    -0.494 OA
ATOM     23  H   UNL     1      -3.453  -6.652   7.256  0.00  0.00    +0.396 HD
ENDBRANCH  21  22
ENDBRANCH  13  14
BRANCH  26  27
ATOM     27  O   UNL     1       0.779  -2.143   4.058  0.00  0.00    -0.474 OA
ATOM     28  H   UNL     1       1.403  -1.741   4.676  0.00  0.00    +0.395 HD
ENDBRANCH  26  27
BRANCH   6   5
ATOM      5  C   UNL     1       0.123   0.078   2.439  0.00  0.00    +0.120 C 
BRANCH   5   4
ATOM      1  C   UNL     1      -0.200   1.488   0.018  0.00  0.00    +0.073 C 
ATOM      2  C   UNL     1      -0.087  -0.015   0.009  0.00  0.00    -0.133 C 
ATOM      3  C   UNL     1      -0.213  -0.772  -1.289  0.00  0.00    +0.073 C 
ATOM      4  C   UNL     1       0.121  -0.664   1.128  0.00  0.00    -0.047 C 
ENDBRANCH   5   4
ENDBRANCH   6   5
TORSDOF 6
