REMARK  Name = ZINC15258140
REMARK  7 active torsions:
REMARK  status: ('A' for Active; 'I' for Inactive)
REMARK    1  A    between atoms: C1_1  and  C2_2
REMARK    2  A    between atoms: C2_2  and  C4_4
REMARK    3  A    between atoms: C5_5  and  C6_6
REMARK    4  A    between atoms: C11_12  and  O5_24
REMARK    5  A    between atoms: C17_19  and  O4_22
REMARK    6  A    between atoms: C18_20  and  O3_21
REMARK    7  A    between atoms: O4_22  and  C19_23
REMARK                            x       y       z     vdW  Elec       q    Type
REMARK                         _______ _______ _______ _____ _____    ______ ____
ROOT
ATOM      5  C   UNL     1       3.042   3.052   1.201  0.00  0.00    -0.094 A 
ATOM      6  C   UNL     1       3.655   3.380  -0.006  0.00  0.00    +0.139 A 
ATOM      7  C   UNL     1       3.023   3.067  -1.207  0.00  0.00    -0.221 A 
ATOM      8  C   UNL     1       3.654   3.405  -2.499  0.00  0.00    +0.441 A 
ATOM      9  C   UNL     1       2.912   3.036  -3.718  0.00  0.00    -0.263 A 
ATOM     10  C   UNL     1       3.430   3.318  -4.988  0.00  0.00    +0.205 A 
ATOM     13  C   UNL     1       2.709   2.959  -6.114  0.00  0.00    -0.037 A 
ATOM     14  C   UNL     1       1.484   2.327  -5.981  0.00  0.00    +0.116 A 
ATOM     15  C   UNL     1       0.966   2.045  -4.734  0.00  0.00    -0.009 A 
ATOM     16  C   UNL     1       1.670   2.394  -3.587  0.00  0.00    +0.179 A 
ATOM     17  O   UNL     1       1.155   2.116  -2.372  0.00  0.00    -0.217 OA
ATOM     18  O   UNL     1       4.735   3.962  -2.555  0.00  0.00    -0.431 OA
ATOM     19  C   UNL     1       1.773   2.423  -1.212  0.00  0.00    +0.160 A 
ATOM     20  C   UNL     1       1.167   2.098   0.000  0.00  0.00    +0.046 A 
ATOM     23  C   UNL     1       1.789   2.412   1.197  0.00  0.00    +0.166 A 
ENDROOT
BRANCH   5   4
ATOM      3  C   UNL     1       4.897   3.994   2.478  0.00  0.00    +0.020 C 
ATOM      4  C   UNL     1       3.700   3.378   2.477  0.00  0.00    +0.023 C 
BRANCH   3   2
ATOM      1  C   UNL     1       4.843   4.059   5.051  0.00  0.00    +0.080 C 
ATOM      2  C   UNL     1       5.502   4.418   3.744  0.00  0.00    -0.107 C 
ATOM     26  C   UNL     1       6.633   5.122   3.739  0.00  0.00    +0.036 C 
ENDBRANCH   3   2
ENDBRANCH   5   4
BRANCH  10  11
ATOM     11  O   UNL     1       4.631   3.938  -5.114  0.00  0.00    -0.476 OA
ATOM     12  H   UNL     1       5.383   3.332  -5.159  0.00  0.00    +0.401 HD
ENDBRANCH  10  11
BRANCH  20  21
ATOM     21  O   UNL     1      -0.043   1.475   0.008  0.00  0.00    -0.310 OA
ATOM     22  C   UNL     1      -0.036   0.046  -0.000  0.00  0.00    +0.227 C 
ENDBRANCH  20  21
BRANCH  23  24
ATOM     24  O   UNL     1       1.188   2.098   2.373  0.00  0.00    -0.471 OA
ATOM     25  H   UNL     1       1.418   1.221   2.710  0.00  0.00    +0.397 HD
ENDBRANCH  23  24
TORSDOF 5
