REMARK  Name = ZINC95486065
REMARK  6 active torsions:
REMARK  status: ('A' for Active; 'I' for Inactive)
REMARK    1  A    between atoms: C1_1  and  C2_2
REMARK    2  A    between atoms: C2_2  and  C19_25
REMARK    3  A    between atoms: C5_5  and  C18_24
REMARK    4  A    between atoms: C14_18  and  O2_23
REMARK    5  A    between atoms: C15_20  and  C16_21
REMARK    6  A    between atoms: C15_20  and  C17_22
REMARK                            x       y       z     vdW  Elec       q    Type
REMARK                         _______ _______ _______ _____ _____    ______ ____
ROOT
ATOM      1  C   UNL     1      -0.207   0.284  -1.216  0.00  0.00    +0.027 C 
ATOM      2  C   UNL     1       0.051  -1.208  -1.000  0.00  0.00    -0.027 C 
ATOM      5  C   UNL     1       0.766  -1.796  -2.213  0.00  0.00    +0.021 C 
ATOM      6  C   UNL     1       2.201  -1.299  -2.329  0.00  0.00    +0.014 C 
ATOM      7  C   UNL     1       2.993  -1.620  -1.050  0.00  0.00    -0.039 C 
ATOM      8  C   UNL     1       2.994  -3.132  -0.853  0.00  0.00    +0.023 C 
ATOM      9  C   UNL     1       2.291  -0.916   0.111  0.00  0.00    -0.001 C 
ATOM     10  C   UNL     1       3.082  -1.128   1.401  0.00  0.00    +0.009 C 
ATOM     11  C   UNL     1       4.458  -0.484   1.262  0.00  0.00    +0.026 C 
ATOM     12  C   UNL     1       5.236  -1.010   0.059  0.00  0.00    -0.006 C 
ATOM     13  C   UNL     1       6.150  -2.160   0.410  0.00  0.00    -0.031 C 
ATOM     14  C   UNL     1       7.280  -1.611   1.320  0.00  0.00    +0.032 C 
ATOM     15  C   UNL     1       5.452  -3.269   1.197  0.00  0.00    +0.043 C 
ATOM     16  C   UNL     1       6.852  -2.775  -0.804  0.00  0.00    +0.153 C 
ATOM     19  C   UNL     1       5.870  -2.928  -1.938  0.00  0.00    +0.338 C 
ATOM     20  O   UNL     1       5.687  -3.994  -2.473  0.00  0.00    -0.442 OA
ATOM     21  C   UNL     1       5.130  -1.690  -2.385  0.00  0.00    +0.023 C 
ATOM     22  C   UNL     1       4.403  -1.070  -1.195  0.00  0.00    +0.015 C 
ATOM     23  C   UNL     1       0.864  -1.420   0.275  0.00  0.00    +0.028 C 
ENDROOT
BRANCH   2   3
ATOM      3  C   UNL     1      -1.283  -1.906  -0.841  0.00  0.00    -0.042 C 
ATOM      4  C   UNL     1      -2.394  -1.215  -0.901  0.00  0.00    -0.002 C 
ENDBRANCH   2   3
BRANCH  16  17
ATOM     17  O   UNL     1       7.380  -4.056  -0.451  0.00  0.00    -0.543 OA
ATOM     18  H   UNL     1       7.845  -4.502  -1.172  0.00  0.00    +0.382 HD
ENDBRANCH  16  17
TORSDOF 2
