REMARK  Name = ZINC95485976
REMARK  18 active torsions:
REMARK  status: ('A' for Active; 'I' for Inactive)
REMARK    1  A    between atoms: C1_1  and  C2_2
REMARK    2  A    between atoms: C4_4  and  O9_51
REMARK    3  A    between atoms: C7_7  and  C8_8
REMARK    4  A    between atoms: C13_14  and  C23_28
REMARK    5  A    between atoms: C15_16  and  O4_27
REMARK    6  A    between atoms: C17_18  and  O3_26
REMARK    7  A    between atoms: C21_23  and  C22_24
REMARK    8  A    between atoms: C21_23  and  O2_25
REMARK    9  A    between atoms: C23_28  and  C24_29
REMARK   10  A    between atoms: C24_29  and  C25_30
REMARK   11  A    between atoms: C26_31  and  C27_32
REMARK   12  A    between atoms: C26_31  and  C28_33
REMARK   13  A    between atoms: C28_33  and  C29_34
REMARK   14  A    between atoms: C29_34  and  C30_35
REMARK   15  A    between atoms: C31_36  and  C32_37
REMARK   16  A    between atoms: C31_36  and  C33_38
REMARK   17  A    between atoms: C37_43  and  O8_50
REMARK   18  A    between atoms: C39_45  and  O7_49
REMARK                            x       y       z     vdW  Elec       q    Type
REMARK                         _______ _______ _______ _____ _____    ______ ____
ROOT
ATOM     24  C   UNL     1       1.631  -0.224  -0.576  0.00  0.00    +0.121 C 
ATOM     25  C   UNL     1       0.542   0.607   0.051  0.00  0.00    +0.013 A 
ATOM     26  C   UNL     1      -0.740   0.159  -0.022  0.00  0.00    -0.013 A 
ATOM     27  C   UNL     1      -1.793   0.896   0.553  0.00  0.00    +0.016 A 
ATOM     28  C   UNL     1      -3.118   0.438   0.480  0.00  0.00    +0.002 A 
ATOM     29  C   UNL     1      -4.123   1.166   1.044  0.00  0.00    -0.037 A 
ATOM     41  C   UNL     1      -3.863   2.366   1.696  0.00  0.00    -0.019 A 
ATOM     42  C   UNL     1      -2.576   2.851   1.788  0.00  0.00    +0.148 A 
ATOM     45  C   UNL     1      -1.517   2.118   1.215  0.00  0.00    -0.129 A 
ATOM     46  C   UNL     1      -0.190   2.579   1.287  0.00  0.00    +0.212 A 
ATOM     49  C   UNL     1       0.830   1.823   0.703  0.00  0.00    -0.205 A 
ATOM     50  C   UNL     1       2.214   2.311   0.769  0.00  0.00    +0.406 C 
ATOM     51  C   UNL     1       3.319   1.357   0.367  0.00  0.00    +0.023 C 
ATOM     52  O   UNL     1       2.464   3.441   1.135  0.00  0.00    -0.436 OA
ATOM     53  C   UNL     1       2.855   0.628  -0.901  0.00  0.00    +0.146 C 
ATOM     56  C   UNL     1       3.982  -0.273  -1.411  0.00  0.00    +0.027 C 
ENDROOT
BRANCH  24  23
ATOM      1  C   UNL     1       0.310   1.421  -2.545  0.00  0.00    +0.127 C 
ATOM      2  C   UNL     1       0.476  -0.057  -2.792  0.00  0.00    -0.006 A 
ATOM      3  C   UNL     1      -0.001  -0.613  -3.962  0.00  0.00    +0.011 A 
ATOM      4  C   UNL     1       0.145  -1.976  -4.204  0.00  0.00    +0.170 A 
ATOM      7  C   UNL     1       0.777  -2.784  -3.255  0.00  0.00    -0.159 A 
ATOM      8  C   UNL     1       1.261  -2.211  -2.064  0.00  0.00    -0.107 A 
ATOM      9  C   UNL     1       1.930  -3.057  -1.056  0.00  0.00    +0.446 C 
ATOM     10  C   UNL     1       2.090  -4.506  -1.301  0.00  0.00    -0.090 A 
ATOM     11  C   UNL     1       2.717  -5.310  -0.358  0.00  0.00    +0.051 A 
ATOM     12  C   UNL     1       2.865  -6.675  -0.595  0.00  0.00    +0.149 A 
ATOM     15  C   UNL     1       2.388  -7.239  -1.767  0.00  0.00    -0.004 A 
ATOM     16  C   UNL     1       1.759  -6.449  -2.720  0.00  0.00    +0.181 A 
ATOM     19  C   UNL     1       1.604  -5.075  -2.494  0.00  0.00    -0.158 A 
ATOM     20  O   UNL     1       2.349  -2.564  -0.027  0.00  0.00    -0.418 OA
ATOM     21  C   UNL     1       0.938  -4.230  -3.498  0.00  0.00    +0.431 C 
ATOM     22  O   UNL     1       0.519  -4.723  -4.528  0.00  0.00    -0.401 OA
ATOM     23  C   UNL     1       1.110  -0.845  -1.846  0.00  0.00    -0.028 A 
BRANCH   4   5
ATOM      5  O   UNL     1      -0.326  -2.517  -5.355  0.00  0.00    -0.476 OA
ATOM      6  H   UNL     1       0.316  -2.522  -6.078  0.00  0.00    +0.400 HD
ENDBRANCH   4   5
BRANCH  12  13
ATOM     13  O   UNL     1       3.479  -7.457   0.329  0.00  0.00    -0.489 OA
ATOM     14  H   UNL     1       2.878  -7.835   0.986  0.00  0.00    +0.402 HD
ENDBRANCH  12  13
BRANCH  16  17
ATOM     17  O   UNL     1       1.295  -7.005  -3.866  0.00  0.00    -0.472 OA
ATOM     18  H   UNL     1       0.382  -7.319  -3.810  0.00  0.00    +0.402 HD
ENDBRANCH  16  17
ENDBRANCH  24  23
BRANCH  42  43
ATOM     43  O   UNL     1      -2.330   4.024   2.425  0.00  0.00    -0.478 OA
ATOM     44  H   UNL     1      -2.149   3.928   3.370  0.00  0.00    +0.389 HD
ENDBRANCH  42  43
BRANCH  46  47
ATOM     47  O   UNL     1       0.096   3.743   1.916  0.00  0.00    -0.458 OA
ATOM     48  H   UNL     1       0.290   3.644   2.858  0.00  0.00    +0.392 HD
ENDBRANCH  46  47
BRANCH  53  54
ATOM     54  O   UNL     1       2.516   1.585  -1.906  0.00  0.00    -0.540 OA
ATOM     55  H   UNL     1       3.249   2.162  -2.162  0.00  0.00    +0.370 HD
ENDBRANCH  53  54
BRANCH  29  30
ATOM     30  C   UNL     1      -5.541   0.661   0.959  0.00  0.00    +0.073 C 
BRANCH  30  31
ATOM     31  C   UNL     1      -5.841  -0.223   2.171  0.00  0.00    +0.060 C 
BRANCH  31  32
ATOM     32  C   UNL     1      -7.258  -0.728   2.086  0.00  0.00    -0.057 C 
ATOM     33  C   UNL     1      -7.496  -2.016   2.091  0.00  0.00    -0.122 C 
ATOM     40  C   UNL     1      -6.351  -2.994   2.051  0.00  0.00    +0.072 C 
BRANCH  33  34
ATOM     34  C   UNL     1      -8.916  -2.520   2.138  0.00  0.00    +0.058 C 
BRANCH  34  35
ATOM     35  C   UNL     1      -9.402  -2.807   0.716  0.00  0.00    +0.054 C 
BRANCH  35  36
ATOM     36  C   UNL     1     -10.822  -3.310   0.763  0.00  0.00    -0.062 C 
ATOM     37  C   UNL     1     -11.759  -2.693   0.087  0.00  0.00    -0.132 C 
ATOM     38  C   UNL     1     -13.173  -3.214   0.110  0.00  0.00    +0.071 C 
ATOM     39  C   UNL     1     -11.422  -1.462  -0.715  0.00  0.00    +0.072 C 
ENDBRANCH  35  36
ENDBRANCH  34  35
ENDBRANCH  33  34
ENDBRANCH  31  32
ENDBRANCH  30  31
ENDBRANCH  29  30
TORSDOF 13
