REMARK  Name = ZINC95486201
REMARK  9 active torsions:
REMARK  status: ('A' for Active; 'I' for Inactive)
REMARK    1  A    between atoms: C1_1  and  C2_2
REMARK    2  A    between atoms: C3_3  and  O3_33
REMARK    3  A    between atoms: C11_12  and  C29_32
REMARK    4  A    between atoms: C14_15  and  C28_31
REMARK    5  A    between atoms: C15_16  and  C27_30
REMARK    6  A    between atoms: C18_19  and  C26_29
REMARK    7  A    between atoms: C21_23  and  C24_26
REMARK    8  A    between atoms: C21_23  and  C25_27
REMARK    9  A    between atoms: C25_27  and  O2_28
REMARK                            x       y       z     vdW  Elec       q    Type
REMARK                         _______ _______ _______ _____ _____    ______ ____
ROOT
ATOM      1  C   UNL     1       0.142   1.907  -0.966  0.00  0.00    +0.107 C 
ATOM      2  C   UNL     1       0.269   0.408  -0.873  0.00  0.00    -0.070 C 
ATOM      3  C   UNL     1       0.363  -0.315  -2.022  0.00  0.00    +0.009 C 
ATOM      6  C   UNL     1       0.493  -1.722  -1.961  0.00  0.00    +0.380 C 
ATOM      7  C   UNL     1       0.593  -2.363  -0.712  0.00  0.00    -0.111 C 
ATOM      8  C   UNL     1       0.503  -1.645   0.438  0.00  0.00    +0.026 C 
ATOM      9  C   UNL     1       0.674  -2.363   1.753  0.00  0.00    +0.002 C 
ATOM     10  C   UNL     1       2.175  -2.653   1.861  0.00  0.00    +0.069 C 
ATOM     11  C   UNL     1      -0.071  -3.693   1.707  0.00  0.00    +0.044 C 
ATOM     12  C   UNL     1      -0.201  -4.339   3.084  0.00  0.00    +0.026 C 
ATOM     13  C   UNL     1      -0.869  -3.384   4.079  0.00  0.00    -0.028 C 
ATOM     14  C   UNL     1      -2.187  -2.928   3.440  0.00  0.00    +0.024 C 
ATOM     15  C   UNL     1       0.047  -2.169   4.274  0.00  0.00    -0.015 C 
ATOM     16  C   UNL     1       1.402  -2.586   4.852  0.00  0.00    +0.045 C 
ATOM     17  C   UNL     1      -0.607  -1.202   5.260  0.00  0.00    +0.026 C 
ATOM     18  C   UNL     1      -0.767  -1.879   6.621  0.00  0.00    +0.018 C 
ATOM     19  C   UNL     1      -1.604  -3.152   6.519  0.00  0.00    -0.045 C 
ATOM     20  C   UNL     1      -3.078  -2.775   6.390  0.00  0.00    +0.024 C 
ATOM     21  C   UNL     1      -1.439  -3.944   7.834  0.00  0.00    +0.010 C 
ATOM     22  C   UNL     1      -2.299  -5.199   7.806  0.00  0.00    +0.022 C 
ATOM     23  C   UNL     1      -2.043  -6.079   6.590  0.00  0.00    -0.050 C 
ATOM     27  C   UNL     1      -0.717  -6.828   6.758  0.00  0.00    +0.028 C 
ATOM     28  C   UNL     1      -2.029  -5.281   5.287  0.00  0.00    +0.027 C 
ATOM     29  C   UNL     1      -1.112  -4.069   5.408  0.00  0.00    +0.014 C 
ATOM     30  C   UNL     1       0.228  -1.525   2.915  0.00  0.00    -0.000 C 
ATOM     31  C   UNL     1      -0.021  -0.216   2.787  0.00  0.00    -0.052 C 
ATOM     32  C   UNL     1       0.055   0.458   1.561  0.00  0.00    +0.152 C 
ATOM     33  O   UNL     1       0.523  -2.380  -2.991  0.00  0.00    -0.489 OA
ATOM     34  C   UNL     1       0.276  -0.250   0.379  0.00  0.00    -0.107 C 
ENDROOT
BRANCH   3   4
ATOM      4  O   UNL     1       0.333   0.318  -3.225  0.00  0.00    -0.464 OA
ATOM      5  H   UNL     1       0.406  -0.276  -3.984  0.00  0.00    +0.402 HD
ENDBRANCH   3   4
BRANCH  23  24
ATOM     24  C   UNL     1      -3.171  -7.123   6.501  0.00  0.00    +0.166 C 
BRANCH  24  25
ATOM     25  O   UNL     1      -3.209  -7.887   7.708  0.00  0.00    -0.570 OA
ATOM     26  H   UNL     1      -3.898  -8.566   7.721  0.00  0.00    +0.378 HD
ENDBRANCH  24  25
ENDBRANCH  23  24
TORSDOF 3
