REMARK  Name = ZINC95486314
REMARK  6 active torsions:
REMARK  status: ('A' for Active; 'I' for Inactive)
REMARK    1  A    between atoms: C1_1  and  C2_2
REMARK    2  A    between atoms: C5_5  and  O2_27
REMARK    3  A    between atoms: C6_7  and  C19_24
REMARK    4  A    between atoms: C6_7  and  C20_25
REMARK    5  A    between atoms: C16_21  and  C18_23
REMARK    6  A    between atoms: C20_25  and  O1_26
REMARK                            x       y       z     vdW  Elec       q    Type
REMARK                         _______ _______ _______ _____ _____    ______ ____
ROOT
ATOM      1  C   UNL     1       0.114   1.528   0.003  0.00  0.00    +0.026 C 
ATOM      2  C   UNL     1       0.135  -0.001  -0.006  0.00  0.00    -0.047 C 
ATOM      3  C   UNL     1      -1.302  -0.526   0.051  0.00  0.00    +0.024 C 
ATOM      4  C   UNL     1      -1.982  -0.028   1.327  0.00  0.00    -0.021 C 
ATOM      5  C   UNL     1      -1.208  -0.537   2.545  0.00  0.00    +0.177 C 
ATOM      8  C   UNL     1       0.223   0.000   2.494  0.00  0.00    -0.040 C 
ATOM     12  C   UNL     1       1.000  -0.503   3.712  0.00  0.00    +0.037 C 
ATOM     13  C   UNL     1       0.772  -0.491  -1.312  0.00  0.00    +0.021 C 
ATOM     14  C   UNL     1       0.031   0.222  -2.453  0.00  0.00    +0.045 C 
ATOM     15  C   UNL     1       0.916   0.379  -3.691  0.00  0.00    -0.017 C 
ATOM     16  C   UNL     1       2.154   1.264  -3.356  0.00  0.00    -0.079 C 
ATOM     17  C   UNL     1       2.485   1.335  -1.794  0.00  0.00    +0.059 C 
ATOM     18  C   UNL     1       2.311  -0.219  -3.781  0.00  0.00    -0.114 C 
ATOM     19  C   UNL     1       2.876  -0.581  -5.156  0.00  0.00    +0.067 C 
ATOM     20  C   UNL     1       2.882  -0.932  -2.534  0.00  0.00    +0.051 C 
ATOM     21  C   UNL     1       2.266  -0.124  -1.354  0.00  0.00    -0.054 C 
ATOM     22  C   UNL     1       3.027  -0.464  -0.092  0.00  0.00    +0.023 C 
ATOM     23  C   UNL     1       2.329   0.092   1.148  0.00  0.00    +0.011 C 
ATOM     24  C   UNL     1       0.915  -0.501   1.206  0.00  0.00    +0.033 C 
ENDROOT
BRANCH   5   6
ATOM      6  O   UNL     1      -1.183  -1.966   2.531  0.00  0.00    -0.561 OA
ATOM      7  H   UNL     1      -2.059  -2.375   2.558  0.00  0.00    +0.374 HD
ENDBRANCH   5   6
BRANCH   8   9
ATOM      9  C   UNL     1       0.194   1.530   2.506  0.00  0.00    +0.184 C 
BRANCH   9  10
ATOM     10  O   UNL     1      -0.271   1.988   3.777  0.00  0.00    -0.576 OA
ATOM     11  H   UNL     1      -0.316   2.950   3.856  0.00  0.00    +0.377 HD
ENDBRANCH   9  10
ENDBRANCH   8   9
TORSDOF 3
