REMARK  Name = ZINC95486370
REMARK  10 active torsions:
REMARK  status: ('A' for Active; 'I' for Inactive)
REMARK    1  A    between atoms: C1_1  and  C2_2
REMARK    2  A    between atoms: C5_5  and  O5_30
REMARK    3  A    between atoms: C6_7  and  C20_28
REMARK    4  A    between atoms: C6_7  and  C21_29
REMARK    5  A    between atoms: C11_13  and  C12_15
REMARK    6  A    between atoms: C12_15  and  C13_16
REMARK    7  A    between atoms: C14_17  and  C15_18
REMARK    8  A    between atoms: C14_17  and  C17_22
REMARK    9  A    between atoms: C17_22  and  O3_24
REMARK   10  A    between atoms: O3_24  and  C18_25
REMARK                            x       y       z     vdW  Elec       q    Type
REMARK                         _______ _______ _______ _____ _____    ______ ____
ROOT
ATOM      1  C   UNL     1       0.526   2.018  -0.994  0.00  0.00    +0.027 C 
ATOM      2  C   UNL     1       0.493   0.495  -0.798  0.00  0.00    -0.033 C 
ATOM      3  C   UNL     1      -0.954   0.043  -0.624  0.00  0.00    +0.026 C 
ATOM      4  C   UNL     1      -1.545   0.686   0.631  0.00  0.00    -0.016 C 
ATOM      5  C   UNL     1      -0.753   0.290   1.866  0.00  0.00    +0.165 C 
ATOM      8  C   UNL     1       0.741   0.555   1.734  0.00  0.00    -0.043 C 
ATOM      9  C   UNL     1       1.435  -0.178   2.907  0.00  0.00    +0.027 C 
ATOM     10  C   UNL     1       1.030   2.044   1.968  0.00  0.00    +0.031 C 
ATOM     11  C   UNL     1       1.083  -0.082  -2.094  0.00  0.00    +0.035 C 
ATOM     22  C   UNL     1       1.168  -1.598  -1.992  0.00  0.00    +0.020 C 
ATOM     23  C   UNL     1      -0.015  -2.464  -2.399  0.00  0.00    +0.184 C 
ATOM     24  O   UNL     1       1.177  -2.372  -3.186  0.00  0.00    -0.337 OA
ATOM     25  C   UNL     1       2.032  -2.058  -0.813  0.00  0.00    +0.044 C 
ATOM     26  C   UNL     1       1.435  -1.468   0.469  0.00  0.00    +0.039 C 
ATOM     27  C   UNL     1       1.317   0.058   0.410  0.00  0.00    +0.022 C 
ENDROOT
BRANCH   5   6
ATOM      6  O   UNL     1      -0.981  -1.090   2.170  0.00  0.00    -0.561 OA
ATOM      7  H   UNL     1      -1.907  -1.306   2.348  0.00  0.00    +0.374 HD
ENDBRANCH   5   6
BRANCH  11  12
ATOM     12  C   UNL     1       0.269   0.352  -3.306  0.00  0.00    +0.068 C 
BRANCH  12  13
ATOM     13  C   UNL     1       0.945  -0.130  -4.564  0.00  0.00    +0.087 C 
ATOM     14  C   UNL     1       0.261  -0.841  -5.457  0.00  0.00    -0.140 C 
BRANCH  14  19
ATOM     19  C   UNL     1       0.969  -1.437  -6.647  0.00  0.00    +0.194 C 
ATOM     20  C   UNL     1       0.565  -0.944  -8.038  0.00  0.00    +0.199 C 
ATOM     21  O   UNL     1       0.199  -2.237  -7.547  0.00  0.00    -0.343 OA
ENDBRANCH  14  19
BRANCH  14  15
ATOM     15  C   UNL     1      -1.184  -1.044  -5.284  0.00  0.00    +0.509 C 
ATOM     18  O   UNL     1      -1.609  -2.134  -4.954  0.00  0.00    -0.484 OA
BRANCH  15  16
ATOM     16  O   UNL     1      -2.038  -0.022  -5.490  0.00  0.00    -0.352 OA
ATOM     17  C   UNL     1      -3.429  -0.290  -5.303  0.00  0.00    +0.257 C 
ENDBRANCH  15  16
ENDBRANCH  14  15
ENDBRANCH  12  13
ENDBRANCH  11  12
TORSDOF 6
