REMARK  Name = ZINC95486156
REMARK  14 active torsions:
REMARK  status: ('A' for Active; 'I' for Inactive)
REMARK    1  A    between atoms: C1_1  and  C2_2
REMARK    2  A    between atoms: C5_7  and  C30_41
REMARK    3  A    between atoms: C10_13  and  C23_31
REMARK    4  A    between atoms: C13_17  and  C22_30
REMARK    5  A    between atoms: C14_18  and  C15_20
REMARK    6  A    between atoms: C15_20  and  C16_22
REMARK    7  A    between atoms: C15_20  and  O3_29
REMARK    8  A    between atoms: C16_22  and  C17_24
REMARK    9  A    between atoms: C18_25  and  C19_26
REMARK   10  A    between atoms: C19_26  and  C20_27
REMARK   11  A    between atoms: C19_26  and  C21_28
REMARK   12  A    between atoms: C25_33  and  O5_40
REMARK   13  A    between atoms: C27_37  and  C28_38
REMARK   14  A    between atoms: C27_37  and  C29_39
REMARK                            x       y       z     vdW  Elec       q    Type
REMARK                         _______ _______ _______ _____ _____    ______ ____
ROOT
ATOM      1  C   UNL     1      -0.633   2.595   1.830  0.00  0.00    +0.041 C 
ATOM      2  C   UNL     1      -1.504   1.341   1.864  0.00  0.00    -0.009 C 
ATOM      3  C   UNL     1      -2.268   1.175   0.517  0.00  0.00    +0.036 C 
ATOM      4  C   UNL     1      -2.271  -0.353   0.361  0.00  0.00    -0.001 C 
ATOM      5  C   UNL     1      -2.820  -0.947  -0.893  0.00  0.00    -0.018 C 
ATOM      6  C   UNL     1      -2.160  -0.380  -2.157  0.00  0.00    +0.032 C 
ATOM      7  C   UNL     1      -4.315  -0.635  -1.039  0.00  0.00    +0.076 C 
ATOM      8  C   UNL     1      -5.110  -1.321   0.033  0.00  0.00    -0.011 C 
ATOM      9  C   UNL     1      -4.772  -2.477   0.522  0.00  0.00    -0.107 C 
ATOM     10  C   UNL     1      -3.501  -3.170   0.131  0.00  0.00    +0.041 C 
ATOM     11  C   UNL     1      -3.789  -4.617  -0.273  0.00  0.00    +0.074 C 
ATOM     12  C   UNL     1      -4.372  -5.341   0.952  0.00  0.00    +0.147 C 
ATOM     15  C   UNL     1      -5.651  -4.640   1.339  0.00  0.00    +0.337 C 
ATOM     16  O   UNL     1      -6.678  -5.270   1.464  0.00  0.00    -0.437 OA
ATOM     17  C   UNL     1      -5.647  -3.143   1.570  0.00  0.00    -0.066 C 
ATOM     18  C   UNL     1      -5.100  -2.844   2.971  0.00  0.00    +0.066 C 
ATOM     19  C   UNL     1      -7.096  -2.649   1.484  0.00  0.00    +0.061 C 
ATOM     20  C   UNL     1      -2.626  -2.471  -0.884  0.00  0.00    -0.078 C 
ATOM     21  C   UNL     1      -2.880  -3.013  -2.292  0.00  0.00    +0.054 C 
ATOM     22  C   UNL     1      -1.181  -2.769  -0.502  0.00  0.00    +0.372 C 
ATOM     23  C   UNL     1      -0.665  -2.204   0.813  0.00  0.00    +0.022 C 
ATOM     24  O   UNL     1      -0.476  -3.430  -1.220  0.00  0.00    -0.437 OA
ATOM     25  C   UNL     1      -0.810  -0.696   0.702  0.00  0.00    -0.047 C 
ATOM     26  C   UNL     1       0.221  -0.159  -0.287  0.00  0.00    +0.032 C 
ATOM     27  C   UNL     1      -0.627   0.073   2.023  0.00  0.00    -0.001 C 
ENDROOT
BRANCH  12  13
ATOM     13  O   UNL     1      -4.645  -6.701   0.613  0.00  0.00    -0.544 OA
ATOM     14  H   UNL     1      -5.016  -7.220   1.340  0.00  0.00    +0.386 HD
ENDBRANCH  12  13
BRANCH  27  28
ATOM     28  C   UNL     1       0.841   0.458   2.200  0.00  0.00    +0.190 C 
BRANCH  28  29
ATOM     29  O   UNL     1       1.214   1.392   1.185  0.00  0.00    -0.538 OA
ATOM     30  H   UNL     1       1.788   1.021   0.501  0.00  0.00    +0.374 HD
ENDBRANCH  28  29
BRANCH  28  31
ATOM     31  C   UNL     1       1.700  -0.775   2.089  0.00  0.00    +0.364 C 
ATOM     37  O   UNL     1       2.633  -0.796   1.313  0.00  0.00    -0.453 OA
BRANCH  31  32
ATOM     32  C   UNL     1       1.410  -1.946   2.915  0.00  0.00    -0.120 C 
ATOM     33  C   UNL     1       2.230  -2.998   2.893  0.00  0.00    +0.087 C 
BRANCH  33  34
ATOM     34  C   UNL     1       1.930  -4.205   3.745  0.00  0.00    +0.002 C 
ATOM     35  C   UNL     1       3.086  -4.441   4.720  0.00  0.00    +0.036 C 
ATOM     36  C   UNL     1       1.761  -5.433   2.848  0.00  0.00    +0.036 C 
ENDBRANCH  33  34
ENDBRANCH  31  32
ENDBRANCH  28  31
ENDBRANCH  27  28
TORSDOF 6
