REMARK  Name = ZINC14819573
REMARK  8 active torsions:
REMARK  status: ('A' for Active; 'I' for Inactive)
REMARK    1  A    between atoms: C1_1  and  C2_2
REMARK    2  A    between atoms: C2_2  and  C21_27
REMARK    3  A    between atoms: C3_3  and  C4_4
REMARK    4  A    between atoms: C4_4  and  C5_5
REMARK    5  A    between atoms: C6_6  and  O5_25
REMARK    6  A    between atoms: C12_14  and  O4_24
REMARK    7  A    between atoms: C18_21  and  O3_23
REMARK    8  A    between atoms: O5_25  and  C20_26
REMARK                            x       y       z     vdW  Elec       q    Type
REMARK                         _______ _______ _______ _____ _____    ______ ____
ROOT
ATOM      6  C   UNL     1       1.944   2.790   3.352  0.00  0.00    -0.119 A 
ATOM      7  C   UNL     1       2.729   1.797   3.930  0.00  0.00    +0.178 A 
ATOM     10  C   UNL     1       3.095   0.660   3.231  0.00  0.00    -0.106 A 
ATOM     11  C   UNL     1       2.690   0.457   1.917  0.00  0.00    +0.123 A 
ATOM     12  C   UNL     1       1.909   1.430   1.337  0.00  0.00    -0.230 A 
ATOM     13  C   UNL     1       1.286   1.562  -0.002  0.00  0.00    +0.108 C 
ATOM     16  C   UNL     1       2.041   1.124  -1.232  0.00  0.00    +0.258 C 
ATOM     17  O   UNL     1       1.418   1.687  -2.393  0.00  0.00    -0.319 OA
ATOM     18  C   UNL     1       0.345   2.510  -2.308  0.00  0.00    +0.168 A 
ATOM     19  C   UNL     1       0.141   3.312  -1.175  0.00  0.00    -0.149 A 
ATOM     20  C   UNL     1      -0.924   4.169  -1.095  0.00  0.00    +0.092 A 
ATOM     21  C   UNL     1      -1.832   4.239  -2.138  0.00  0.00    -0.037 A 
ATOM     22  C   UNL     1      -1.657   3.440  -3.258  0.00  0.00    +0.145 A 
ATOM     25  C   UNL     1      -0.573   2.580  -3.344  0.00  0.00    -0.034 A 
ATOM     26  C   UNL     1       1.150   3.122  -0.091  0.00  0.00    +0.241 C 
ATOM     27  O   UNL     1       0.788   3.423   1.250  0.00  0.00    -0.264 OA
ATOM     28  C   UNL     1       1.539   2.601   2.037  0.00  0.00    +0.155 A 
ENDROOT
BRANCH   7   8
ATOM      8  O   UNL     1       3.145   1.946   5.215  0.00  0.00    -0.306 OA
ATOM      9  C   UNL     1       3.948   0.898   5.763  0.00  0.00    +0.245 C 
ENDBRANCH   7   8
BRANCH  13  14
ATOM     14  O   UNL     1      -0.011   0.963   0.007  0.00  0.00    -0.529 OA
ATOM     15  H   UNL     1       0.002  -0.004   0.002  0.00  0.00    +0.380 HD
ENDBRANCH  13  14
BRANCH  22  23
ATOM     23  O   UNL     1      -2.552   3.501  -4.278  0.00  0.00    -0.496 OA
ATOM     24  H   UNL     1      -3.289   2.880  -4.193  0.00  0.00    +0.395 HD
ENDBRANCH  22  23
BRANCH   6   5
ATOM      5  C   UNL     1       1.550   4.024   4.123  0.00  0.00    +0.132 C 
BRANCH   5   4
ATOM      1  C   UNL     1       1.371   4.412   6.907  0.00  0.00    +0.075 C 
ATOM      2  C   UNL     1       0.163   3.955   6.131  0.00  0.00    -0.126 C 
ATOM      3  C   UNL     1      -1.141   3.706   6.845  0.00  0.00    +0.071 C 
ATOM      4  C   UNL     1       0.246   3.775   4.836  0.00  0.00    -0.053 C 
ENDBRANCH   5   4
ENDBRANCH   6   5
TORSDOF 5
