REMARK  Name = ZINC95486006
REMARK  14 active torsions:
REMARK  status: ('A' for Active; 'I' for Inactive)
REMARK    1  A    between atoms: C1_1  and  C2_2
REMARK    2  A    between atoms: C3_4  and  C35_63
REMARK    3  A    between atoms: C18_25  and  C34_62
REMARK    4  A    between atoms: C21_28  and  C23_31
REMARK    5  A    between atoms: C24_33  and  O7_46
REMARK    6  A    between atoms: C25_35  and  O6_45
REMARK    7  A    between atoms: C26_37  and  O5_44
REMARK    8  A    between atoms: C27_39  and  C28_42
REMARK    9  A    between atoms: C28_42  and  O4_43
REMARK   10  A    between atoms: O7_46  and  C29_47
REMARK   11  A    between atoms: C30_49  and  O12_61
REMARK   12  A    between atoms: C31_51  and  O11_60
REMARK   13  A    between atoms: C32_53  and  O10_59
REMARK   14  A    between atoms: C33_55  and  O9_58
REMARK                            x       y       z     vdW  Elec       q    Type
REMARK                         _______ _______ _______ _____ _____    ______ ____
ROOT
ATOM     14  C   UNL     1       2.657  -6.482  -5.424  0.00  0.00    +0.171 C 
ATOM     15  C   UNL     1       3.287  -7.795  -4.950  0.00  0.00    +0.161 C 
ATOM     31  C   UNL     1       2.205  -8.876  -4.882  0.00  0.00    +0.161 C 
ATOM     34  C   UNL     1       1.546  -9.012  -6.258  0.00  0.00    +0.117 C 
ATOM     37  C   UNL     1       0.983  -7.652  -6.681  0.00  0.00    +0.128 C 
ATOM     41  O   UNL     1       2.035  -6.685  -6.694  0.00  0.00    -0.338 OA
ENDROOT
BRANCH  14  13
ATOM      1  C   UNL     1      -0.057   1.557  -0.055  0.00  0.00    +0.050 C 
ATOM      2  C   UNL     1      -0.035   0.027  -0.054  0.00  0.00    -0.006 C 
ATOM      3  C   UNL     1       0.737  -0.505  -1.265  0.00  0.00    -0.091 C 
ATOM      4  C   UNL     1       1.799   0.504  -1.707  0.00  0.00    +0.047 C 
ATOM      5  C   UNL     1      -0.104  -0.958  -2.442  0.00  0.00    +0.033 C 
ATOM      6  C   UNL     1       0.845  -1.559  -3.498  0.00  0.00    +0.024 C 
ATOM      7  C   UNL     1       1.644  -2.707  -2.901  0.00  0.00    -0.001 C 
ATOM      8  C   UNL     1       2.424  -2.249  -1.657  0.00  0.00    +0.051 C 
ATOM      9  C   UNL     1       3.282  -3.357  -1.141  0.00  0.00    -0.034 C 
ATOM     10  C   UNL     1       3.620  -4.395  -1.851  0.00  0.00    -0.045 C 
ATOM     11  C   UNL     1       3.164  -4.620  -3.255  0.00  0.00    +0.021 C 
ATOM     12  C   UNL     1       4.267  -5.171  -4.151  0.00  0.00    +0.037 C 
ATOM     13  C   UNL     1       3.742  -5.412  -5.553  0.00  0.00    +0.030 C 
ATOM     42  C   UNL     1       3.136  -4.146  -6.156  0.00  0.00    +0.029 C 
ATOM     43  C   UNL     1       2.041  -3.593  -5.236  0.00  0.00    +0.020 C 
ATOM     44  C   UNL     1       2.658  -3.285  -3.875  0.00  0.00    -0.043 C 
ATOM     45  C   UNL     1       3.806  -2.290  -4.062  0.00  0.00    +0.028 C 
ATOM     46  C   UNL     1       1.409  -1.769  -0.651  0.00  0.00    +0.156 C 
ATOM     47  O   UNL     1       1.878  -1.291   0.605  0.00  0.00    -0.369 OA
ATOM     48  C   UNL     1       0.783  -0.508   1.146  0.00  0.00    +0.272 C 
ATOM     49  C   UNL     1      -0.107  -1.398   2.010  0.00  0.00    +0.011 C 
ATOM     50  C   UNL     1       0.721  -1.952   3.178  0.00  0.00    +0.070 C 
ATOM     51  C   UNL     1       1.413  -0.786   3.854  0.00  0.00    -0.160 C 
ATOM     52  C   UNL     1       2.159   0.198   2.978  0.00  0.00    +0.267 C 
ATOM     53  C   UNL     1       1.367  -0.634   5.154  0.00  0.00    +0.025 C 
ATOM     54  O   UNL     1       1.299   0.584   1.900  0.00  0.00    -0.349 OA
ENDBRANCH  14  13
BRANCH  31  32
ATOM     32  O   UNL     1       2.797 -10.122  -4.509  0.00  0.00    -0.550 OA
ATOM     33  H   UNL     1       2.168 -10.854  -4.446  0.00  0.00    +0.379 HD
ENDBRANCH  31  32
BRANCH  34  35
ATOM     35  O   UNL     1       2.517  -9.445  -7.212  0.00  0.00    -0.523 OA
ATOM     36  H   UNL     1       2.168  -9.552  -8.107  0.00  0.00    +0.370 HD
ENDBRANCH  34  35
BRANCH  15  16
ATOM     16  O   UNL     1       4.306  -8.194  -5.869  0.00  0.00    -0.306 OA
BRANCH  16  17
ATOM     17  C   UNL     1       5.370  -8.936  -5.271  0.00  0.00    +0.314 C 
ATOM     18  C   UNL     1       6.334  -9.415  -6.360  0.00  0.00    +0.182 C 
ATOM     21  C   UNL     1       7.503 -10.158  -5.705  0.00  0.00    +0.201 C 
ATOM     24  C   UNL     1       8.182  -9.229  -4.695  0.00  0.00    +0.128 C 
ATOM     27  C   UNL     1       7.148  -8.757  -3.671  0.00  0.00    +0.307 C 
ATOM     30  O   UNL     1       6.073  -8.102  -4.348  0.00  0.00    -0.417 OA
BRANCH  18  19
ATOM     19  O   UNL     1       6.829  -8.290  -7.088  0.00  0.00    -0.516 OA
ATOM     20  H   UNL     1       6.141  -7.771  -7.525  0.00  0.00    +0.375 HD
ENDBRANCH  18  19
BRANCH  21  22
ATOM     22  O   UNL     1       8.443 -10.547  -6.708  0.00  0.00    -0.533 OA
ATOM     23  H   UNL     1       9.211 -11.024  -6.364  0.00  0.00    +0.379 HD
ENDBRANCH  21  22
BRANCH  24  25
ATOM     25  O   UNL     1       8.729  -8.099  -5.379  0.00  0.00    -0.512 OA
ATOM     26  H   UNL     1       9.176  -7.467  -4.799  0.00  0.00    +0.375 HD
ENDBRANCH  24  25
BRANCH  27  28
ATOM     28  O   UNL     1       7.762  -7.845  -2.758  0.00  0.00    -0.539 OA
ATOM     29  H   UNL     1       7.163  -7.505  -2.079  0.00  0.00    +0.391 HD
ENDBRANCH  27  28
ENDBRANCH  16  17
ENDBRANCH  15  16
BRANCH  37  38
ATOM     38  C   UNL     1       0.375  -7.765  -8.081  0.00  0.00    +0.200 C 
BRANCH  38  39
ATOM     39  O   UNL     1      -0.253  -6.529  -8.428  0.00  0.00    -0.560 OA
ATOM     40  H   UNL     1      -0.661  -6.529  -9.305  0.00  0.00    +0.383 HD
ENDBRANCH  38  39
ENDBRANCH  37  38
TORSDOF 11
