REMARK  Name = ZINC95485961
REMARK  14 active torsions:
REMARK  status: ('A' for Active; 'I' for Inactive)
REMARK    1  A    between atoms: C3_3  and  O9_37
REMARK    2  A    between atoms: C6_6  and  C7_7
REMARK    3  A    between atoms: C7_7  and  C8_8
REMARK    4  A    between atoms: C8_8  and  O1_9
REMARK    5  A    between atoms: O1_9  and  C9_10
REMARK    6  A    between atoms: C10_12  and  O8_36
REMARK    7  A    between atoms: C11_14  and  O7_35
REMARK    8  A    between atoms: C12_16  and  O6_34
REMARK    9  A    between atoms: C13_18  and  C14_21
REMARK   10  A    between atoms: C14_21  and  O3_22
REMARK   11  A    between atoms: O3_22  and  C15_23
REMARK   12  A    between atoms: C15_23  and  C16_25
REMARK   13  A    between atoms: C17_26  and  C18_27
REMARK   14  A    between atoms: C21_30  and  O5_33
REMARK                            x       y       z     vdW  Elec       q    Type
REMARK                         _______ _______ _______ _____ _____    ______ ____
ROOT
ATOM     12  C   UNL     1      -3.487  -2.047  -2.723  0.00  0.00    +0.296 C 
ATOM     13  C   UNL     1      -4.908  -2.602  -2.600  0.00  0.00    +0.144 C 
ATOM     16  C   UNL     1      -5.428  -2.966  -3.994  0.00  0.00    +0.164 C 
ATOM     19  C   UNL     1      -4.466  -3.969  -4.639  0.00  0.00    +0.174 C 
ATOM     22  C   UNL     1      -3.062  -3.361  -4.683  0.00  0.00    +0.199 C 
ATOM     37  O   UNL     1      -2.652  -3.016  -3.359  0.00  0.00    -0.380 OA
ENDROOT
BRANCH  13  14
ATOM     14  O   UNL     1      -5.758  -1.613  -2.015  0.00  0.00    -0.555 OA
ATOM     15  H   UNL     1      -5.485  -1.332  -1.131  0.00  0.00    +0.395 HD
ENDBRANCH  13  14
BRANCH  16  17
ATOM     17  O   UNL     1      -6.727  -3.552  -3.882  0.00  0.00    -0.555 OA
ATOM     18  H   UNL     1      -7.386  -2.972  -3.475  0.00  0.00    +0.396 HD
ENDBRANCH  16  17
BRANCH  19  20
ATOM     20  O   UNL     1      -4.903  -4.262  -5.968  0.00  0.00    -0.550 OA
ATOM     21  H   UNL     1      -5.789  -4.646  -6.015  0.00  0.00    +0.397 HD
ENDBRANCH  19  20
BRANCH  12  11
ATOM     11  O   UNL     1      -2.974  -1.757  -1.421  0.00  0.00    -0.364 OA
BRANCH  11  10
ATOM     10  C   UNL     1      -1.746  -1.027  -1.429  0.00  0.00    +0.188 C 
BRANCH  10   9
ATOM      9  C   UNL     1      -1.293  -0.774   0.011  0.00  0.00    +0.089 C 
BRANCH   9   8
ATOM      1  C   UNL     1      -0.017   1.378   0.010  0.00  0.00    +0.031 A 
ATOM      2  C   UNL     1       1.170   2.087   0.002  0.00  0.00    -0.014 A 
ATOM      3  C   UNL     1       2.380   1.409  -0.013  0.00  0.00    +0.105 A 
ATOM      6  C   UNL     1       2.396   0.022  -0.021  0.00  0.00    -0.013 A 
ATOM      7  C   UNL     1       1.207  -0.681  -0.013  0.00  0.00    +0.034 A 
ATOM      8  C   UNL     1       0.002  -0.004   0.002  0.00  0.00    -0.094 A 
BRANCH   3   4
ATOM      4  O   UNL     1       3.548   2.104  -0.021  0.00  0.00    -0.500 OA
ATOM      5  H   UNL     1       3.895   2.300   0.860  0.00  0.00    +0.392 HD
ENDBRANCH   3   4
ENDBRANCH   9   8
ENDBRANCH  10   9
ENDBRANCH  11  10
ENDBRANCH  12  11
BRANCH  22  23
ATOM     23  C   UNL     1      -2.083  -4.379  -5.272  0.00  0.00    +0.263 C 
BRANCH  23  24
ATOM     24  O   UNL     1      -0.798  -3.773  -5.422  0.00  0.00    -0.344 OA
BRANCH  24  25
ATOM     25  C   UNL     1       0.186  -4.542  -5.932  0.00  0.00    +0.505 C 
ATOM     36  O   UNL     1      -0.042  -5.696  -6.242  0.00  0.00    -0.513 OA
BRANCH  25  26
ATOM     26  C   UNL     1       1.487  -4.005  -6.107  0.00  0.00    -0.070 C 
ATOM     27  C   UNL     1       2.472  -4.775  -6.618  0.00  0.00    +0.158 C 
BRANCH  27  28
ATOM     28  C   UNL     1       3.820  -4.218  -6.800  0.00  0.00    -0.099 A 
ATOM     29  C   UNL     1       4.087  -2.892  -6.439  0.00  0.00    +0.060 A 
ATOM     30  C   UNL     1       5.351  -2.376  -6.612  0.00  0.00    -0.014 A 
ATOM     31  C   UNL     1       6.362  -3.169  -7.144  0.00  0.00    +0.127 A 
ATOM     34  C   UNL     1       6.102  -4.486  -7.504  0.00  0.00    -0.015 A 
ATOM     35  C   UNL     1       4.843  -5.014  -7.330  0.00  0.00    +0.067 A 
BRANCH  31  32
ATOM     32  O   UNL     1       7.607  -2.654  -7.312  0.00  0.00    -0.498 OA
ATOM     33  H   UNL     1       8.187  -2.771  -6.548  0.00  0.00    +0.396 HD
ENDBRANCH  31  32
ENDBRANCH  27  28
ENDBRANCH  25  26
ENDBRANCH  24  25
ENDBRANCH  23  24
ENDBRANCH  22  23
TORSDOF 14
