REMARK  Name = ZINC95486371
REMARK  9 active torsions:
REMARK  status: ('A' for Active; 'I' for Inactive)
REMARK    1  A    between atoms: C1_1  and  C2_2
REMARK    2  A    between atoms: C6_6  and  C20_27
REMARK    3  A    between atoms: C6_6  and  C21_28
REMARK    4  A    between atoms: C11_12  and  C12_14
REMARK    5  A    between atoms: C12_14  and  C13_15
REMARK    6  A    between atoms: C14_16  and  C15_17
REMARK    7  A    between atoms: C14_16  and  C17_21
REMARK    8  A    between atoms: C17_21  and  O3_23
REMARK    9  A    between atoms: O3_23  and  C18_24
REMARK                            x       y       z     vdW  Elec       q    Type
REMARK                         _______ _______ _______ _____ _____    ______ ____
ROOT
ATOM      1  C   UNL     1      -0.132   2.795  -0.730  0.00  0.00    +0.027 C 
ATOM      2  C   UNL     1      -0.101   1.381  -0.130  0.00  0.00    -0.031 C 
ATOM      3  C   UNL     1      -1.524   0.835  -0.060  0.00  0.00    +0.014 C 
ATOM      4  C   UNL     1      -2.354   1.670   0.917  0.00  0.00    +0.004 C 
ATOM      5  C   UNL     1      -1.736   1.607   2.308  0.00  0.00    +0.012 C 
ATOM      6  C   UNL     1      -0.289   2.096   2.306  0.00  0.00    -0.052 C 
ATOM      7  C   UNL     1       0.288   1.811   3.712  0.00  0.00    +0.013 C 
ATOM      8  C   UNL     1      -0.242   3.616   2.147  0.00  0.00    +0.024 C 
ATOM      9  C   UNL     1       0.734   0.556  -1.123  0.00  0.00    +0.032 C 
ATOM     20  C   UNL     1       0.884  -0.868  -0.608  0.00  0.00    +0.018 C 
ATOM     21  C   UNL     1      -0.162  -1.922  -0.942  0.00  0.00    +0.183 C 
ATOM     22  O   UNL     1       1.139  -1.915  -1.537  0.00  0.00    -0.335 OA
ATOM     23  C   UNL     1       1.561  -0.926   0.764  0.00  0.00    +0.048 C 
ATOM     24  C   UNL     1       0.742  -0.080   1.741  0.00  0.00    +0.025 C 
ATOM     25  C   UNL     1       0.541   1.360   1.254  0.00  0.00    +0.020 C 
ENDROOT
BRANCH   9  10
ATOM     10  C   UNL     1       0.111   0.585  -2.513  0.00  0.00    +0.070 C 
BRANCH  10  11
ATOM     11  C   UNL     1       1.032  -0.099  -3.491  0.00  0.00    +0.086 C 
ATOM     12  C   UNL     1       0.570  -1.074  -4.269  0.00  0.00    -0.139 C 
BRANCH  12  17
ATOM     17  C   UNL     1       1.485  -1.742  -5.263  0.00  0.00    +0.191 C 
ATOM     18  C   UNL     1       1.153  -1.595  -6.749  0.00  0.00    +0.202 C 
ATOM     19  O   UNL     1       0.955  -2.820  -6.037  0.00  0.00    -0.344 OA
ENDBRANCH  12  17
BRANCH  12  13
ATOM     13  C   UNL     1      -0.832  -1.500  -4.160  0.00  0.00    +0.509 C 
ATOM     16  O   UNL     1      -1.106  -2.560  -3.633  0.00  0.00    -0.481 OA
BRANCH  13  14
ATOM     14  O   UNL     1      -1.815  -0.714  -4.645  0.00  0.00    -0.353 OA
ATOM     15  C   UNL     1      -3.155  -1.190  -4.505  0.00  0.00    +0.256 C 
ENDBRANCH  13  14
ENDBRANCH  12  13
ENDBRANCH  10  11
ENDBRANCH   9  10
TORSDOF 5
