REMARK  Name = ZINC00002054
REMARK  3 active torsions:
REMARK  status: ('A' for Active; 'I' for Inactive)
REMARK    1  A    between atoms: C4_4  and  O2_9
REMARK    2  A    between atoms: C5_5  and  C7_7
REMARK    3  A    between atoms: C7_7  and  O1_8
REMARK                            x       y       z     vdW  Elec       q    Type
REMARK                         _______ _______ _______ _____ _____    ______ ____
ROOT
ATOM      1  C   UNL     1      -0.017   1.378   0.010  0.00  0.00    -0.003 A 
ATOM      2  C   UNL     1       1.170   2.088   0.002  0.00  0.00    +0.024 A 
ATOM      3  C   UNL     1       2.377   1.418  -0.013  0.00  0.00    -0.014 A 
ATOM      4  C   UNL     1       2.399   0.030  -0.021  0.00  0.00    +0.106 A 
ATOM      7  C   UNL     1       1.207  -0.680  -0.013  0.00  0.00    -0.120 A 
ATOM     11  C   UNL     1       0.002  -0.004   0.002  0.00  0.00    +0.054 A 
ENDROOT
BRANCH   4   5
ATOM      5  O   UNL     1       3.586  -0.632  -0.037  0.00  0.00    -0.498 OA
ATOM      6  H   UNL     1       3.938  -0.829   0.842  0.00  0.00    +0.390 HD
ENDBRANCH   4   5
BRANCH   7   8
ATOM      8  C   UNL     1       1.227  -2.187  -0.022  0.00  0.00    +0.245 C 
BRANCH   8   9
ATOM      9  O   UNL     1      -0.114  -2.680  -0.011  0.00  0.00    -0.571 OA
ATOM     10  H   UNL     1      -0.178  -3.645  -0.016  0.00  0.00    +0.386 HD
ENDBRANCH   8   9
ENDBRANCH   7   8
TORSDOF 3
