REMARK  Name = ZINC13328057
REMARK  4 active torsions:
REMARK  status: ('A' for Active; 'I' for Inactive)
REMARK    1  A    between atoms: C3_3  and  O6_19
REMARK    2  A    between atoms: C6_6  and  O1_7
REMARK    3  A    between atoms: C10_13  and  C13_17
REMARK    4  A    between atoms: C13_17  and  O5_18
REMARK                            x       y       z     vdW  Elec       q    Type
REMARK                         _______ _______ _______ _____ _____    ______ ____
ROOT
ATOM      1  C   UNL     1      -0.017   1.386   0.010  0.00  0.00    +0.041 A 
ATOM      2  C   UNL     1       1.163   2.100   0.002  0.00  0.00    +0.041 A 
ATOM      3  C   UNL     1       2.385   1.438  -0.013  0.00  0.00    +0.148 A 
ATOM      6  C   UNL     1       2.426   0.039  -0.021  0.00  0.00    -0.128 A 
ATOM      7  C   UNL     1       1.222  -0.690  -0.013  0.00  0.00    -0.130 A 
ATOM      8  C   UNL     1       1.204  -2.173  -0.020  0.00  0.00    +0.472 C 
ATOM      9  C   UNL     1       2.486  -2.855   0.205  0.00  0.00    -0.251 A 
ATOM     10  C   UNL     1       2.832  -4.131   0.440  0.00  0.00    +0.315 A 
ATOM     11  O   UNL     1       4.170  -4.194   0.571  0.00  0.00    -0.166 OA
ATOM     12  C   UNL     1       4.733  -2.981   0.427  0.00  0.00    +0.092 A 
ATOM     16  C   UNL     1       3.761  -2.084   0.196  0.00  0.00    -0.222 A 
ATOM     17  O   UNL     1       0.175  -2.796  -0.203  0.00  0.00    -0.419 OA
ATOM     18  C   UNL     1       3.749  -0.633  -0.037  0.00  0.00    +0.468 C 
ATOM     19  O   UNL     1       4.777  -0.011  -0.233  0.00  0.00    -0.412 OA
ATOM     20  C   UNL     1       0.002  -0.004   0.002  0.00  0.00    +0.149 A 
ENDROOT
BRANCH   3   4
ATOM      4  O   UNL     1       3.540   2.150  -0.022  0.00  0.00    -0.474 OA
ATOM      5  H   UNL     1       3.884   2.352   0.859  0.00  0.00    +0.399 HD
ENDBRANCH   3   4
BRANCH  20  21
ATOM     21  O   UNL     1      -1.164  -0.697   0.009  0.00  0.00    -0.477 OA
ATOM     22  H   UNL     1      -1.511  -0.894  -0.872  0.00  0.00    +0.402 HD
ENDBRANCH  20  21
BRANCH  12  13
ATOM     13  C   UNL     1       6.207  -2.679   0.511  0.00  0.00    +0.322 C 
BRANCH  13  14
ATOM     14  O   UNL     1       6.554  -2.372   1.863  0.00  0.00    -0.562 OA
ATOM     15  H   UNL     1       7.490  -2.167   1.992  0.00  0.00    +0.395 HD
ENDBRANCH  13  14
ENDBRANCH  12  13
TORSDOF 4
