REMARK  Name = ZINC95486135
REMARK  7 active torsions:
REMARK  status: ('A' for Active; 'I' for Inactive)
REMARK    1  A    between atoms: C1_1  and  O1_2
REMARK    2  A    between atoms: O1_2  and  C2_3
REMARK    3  A    between atoms: C7_8  and  O2_9
REMARK    4  A    between atoms: C8_10  and  O4_25
REMARK    5  A    between atoms: C12_16  and  O3_23
REMARK    6  A    between atoms: O3_23  and  C18_24
REMARK    7  A    between atoms: O4_25  and  C19_26
REMARK                            x       y       z     vdW  Elec       q    Type
REMARK                         _______ _______ _______ _____ _____    ______ ____
ROOT
ATOM      3  C   UNL     1      -0.977  -0.957  -0.074  0.00  0.00    +0.106 A 
ATOM      4  C   UNL     1      -2.091  -0.135  -0.142  0.00  0.00    -0.054 A 
ATOM      5  C   UNL     1      -3.375  -0.658  -0.162  0.00  0.00    -0.039 A 
ATOM      6  C   UNL     1      -3.521  -2.030  -0.084  0.00  0.00    -0.106 A 
ATOM      7  C   UNL     1      -4.872  -2.682  -0.076  0.00  0.00    +0.207 C 
ATOM     10  C   UNL     1      -5.984  -1.749   0.299  0.00  0.00    +0.197 C 
ATOM     11  N   UNL     1      -5.820  -0.348   0.061  0.00  0.00    -0.536 NA
ATOM     12  C   UNL     1      -6.351   0.400   1.232  0.00  0.00    +0.243 C 
ATOM     13  C   UNL     1      -5.393   1.543   1.479  0.00  0.00    -0.003 C 
ATOM     14  C   UNL     1      -4.402   1.474   0.618  0.00  0.00    -0.117 C 
ATOM     15  C   UNL     1      -3.299   2.438   0.432  0.00  0.00    +0.058 C 
ATOM     16  C   UNL     1      -2.878   2.564  -0.831  0.00  0.00    -0.057 C 
ATOM     17  C   UNL     1      -3.462   1.812  -1.977  0.00  0.00    +0.192 C 
ATOM     20  C   UNL     1      -4.570   0.828  -1.706  0.00  0.00    +0.072 C 
ATOM     21  C   UNL     1      -2.408  -2.864  -0.001  0.00  0.00    +0.061 A 
ATOM     22  C   UNL     1      -4.559   0.263  -0.280  0.00  0.00    +0.218 C 
ATOM     23  C   UNL     1      -1.138  -2.331   0.020  0.00  0.00    +0.078 A 
ENDROOT
BRANCH   3   2
ATOM      1  C   UNL     1       0.347   1.021  -0.181  0.00  0.00    +0.236 C 
ATOM      2  O   UNL     1       0.270  -0.403  -0.081  0.00  0.00    -0.305 OA
ENDBRANCH   3   2
BRANCH   7   8
ATOM      8  O   UNL     1      -4.855  -3.752   0.875  0.00  0.00    -0.378 OA
ATOM      9  C   UNL     1      -5.751  -4.820   0.564  0.00  0.00    +0.206 C 
ENDBRANCH   7   8
BRANCH  17  18
ATOM     18  O   UNL     1      -3.961   2.785  -2.896  0.00  0.00    -0.378 OA
ATOM     19  C   UNL     1      -2.961   3.343  -3.751  0.00  0.00    +0.200 C 
ENDBRANCH  17  18
BRANCH  23  24
ATOM     24  O   UNL     1      -0.052  -3.143   0.167  0.00  0.00    -0.487 OA
ATOM     25  H   UNL     1       0.194  -3.309   1.087  0.00  0.00    +0.389 HD
ENDBRANCH  23  24
TORSDOF 4
