REMARK  Name = ZINC95486041
REMARK  8 active torsions:
REMARK  status: ('A' for Active; 'I' for Inactive)
REMARK    1  A    between atoms: C1_1  and  C2_2
REMARK    2  A    between atoms: C2_2  and  C3_3
REMARK    3  A    between atoms: C2_2  and  C4_4
REMARK    4  A    between atoms: C4_4  and  C5_5
REMARK    5  A    between atoms: C6_6  and  C7_7
REMARK    6  A    between atoms: C7_7  and  C8_8
REMARK    7  A    between atoms: C12_14  and  C25_33
REMARK    8  A    between atoms: C23_27  and  O1_30
REMARK                            x       y       z     vdW  Elec       q    Type
REMARK                         _______ _______ _______ _____ _____    ______ ____
ROOT
ATOM      7  C   UNL     1      -2.451  -1.571   4.674  0.00  0.00    -0.001 C 
ATOM      8  C   UNL     1      -2.199  -3.060   5.033  0.00  0.00    +0.013 C 
ATOM      9  C   UNL     1      -3.134  -3.383   6.239  0.00  0.00    +0.024 C 
ATOM     10  C   UNL     1      -4.181  -2.268   6.112  0.00  0.00    +0.007 C 
ATOM     11  C   UNL     1      -5.185  -2.094   7.208  0.00  0.00    +0.109 C 
ATOM     12  C   UNL     1      -4.591  -2.016   8.608  0.00  0.00    +0.027 C 
ATOM     13  C   UNL     1      -5.720  -1.958   9.646  0.00  0.00    +0.018 C 
ATOM     14  C   UNL     1      -7.066  -1.847   8.920  0.00  0.00    +0.088 C 
ATOM     15  O   UNL     1      -7.239  -3.012   8.104  0.00  0.00    -0.189 OA
ATOM     16  C   UNL     1      -7.042  -0.612   8.017  0.00  0.00    -0.009 C 
ATOM     17  C   UNL     1      -8.411  -0.421   7.357  0.00  0.00    +0.030 C 
ATOM     18  C   UNL     1      -9.498  -0.291   8.423  0.00  0.00    -0.011 C 
ATOM     19  C   UNL     1      -9.534  -1.573   9.259  0.00  0.00    +0.168 C 
ATOM     22  C   UNL     1      -8.183  -1.750   9.952  0.00  0.00    +0.079 C 
ATOM     23  O   UNL     1      -6.104  -3.211   7.184  0.00  0.00    -0.194 OA
ATOM     24  C   UNL     1      -6.004  -0.828   6.913  0.00  0.00    -0.020 C 
ATOM     25  C   UNL     1      -5.100   0.388   6.760  0.00  0.00    +0.027 C 
ATOM     26  C   UNL     1      -4.117   0.184   5.596  0.00  0.00    +0.029 C 
ATOM     27  C   UNL     1      -3.281  -1.043   5.862  0.00  0.00    -0.047 C 
ATOM     28  C   UNL     1      -2.292  -0.772   6.995  0.00  0.00    +0.031 C 
ENDROOT
BRANCH  19  20
ATOM     20  O   UNL     1     -10.567  -1.473  10.242  0.00  0.00    -0.568 OA
ATOM     21  H   UNL     1     -11.451  -1.349   9.871  0.00  0.00    +0.381 HD
ENDBRANCH  19  20
BRANCH   7   6
ATOM      6  C   UNL     1      -1.129  -0.812   4.587  0.00  0.00    +0.060 C 
BRANCH   6   5
ATOM      4  C   UNL     1       0.040  -0.403   2.483  0.00  0.00    -0.051 C 
ATOM      5  C   UNL     1      -0.363  -1.274   3.375  0.00  0.00    -0.052 C 
BRANCH   4   3
ATOM      3  C   UNL     1       0.806  -0.865   1.271  0.00  0.00    +0.047 C 
BRANCH   3   2
ATOM      1  C   UNL     1       0.148   1.154  -0.046  0.00  0.00    +0.013 C 
ATOM      2  C   UNL     1       0.101  -0.374   0.004  0.00  0.00    -0.023 C 
ATOM     29  C   UNL     1       0.807  -0.947  -1.227  0.00  0.00    +0.014 C 
ENDBRANCH   3   2
ENDBRANCH   4   3
ENDBRANCH   6   5
ENDBRANCH   7   6
TORSDOF 5
