REMARK  Name = ZINC13365959
REMARK  9 active torsions:
REMARK  status: ('A' for Active; 'I' for Inactive)
REMARK    1  A    between atoms: C1_1  and  C2_2
REMARK    2  A    between atoms: C2_2  and  C26_31
REMARK    3  A    between atoms: C3_3  and  C4_4
REMARK    4  A    between atoms: C4_4  and  C5_5
REMARK    5  A    between atoms: C12_14  and  C13_15
REMARK    6  A    between atoms: C13_15  and  C14_17
REMARK    7  A    between atoms: C13_15  and  C18_21
REMARK    8  A    between atoms: C15_18  and  C16_19
REMARK    9  A    between atoms: C15_18  and  C17_20
REMARK                            x       y       z     vdW  Elec       q    Type
REMARK                         _______ _______ _______ _____ _____    ______ ____
ROOT
ATOM      6  C   UNL     1       3.440   9.383  -4.112  0.00  0.00    -0.055 A 
ATOM      7  C   UNL     1       4.213   8.430  -3.463  0.00  0.00    -0.021 A 
ATOM      8  C   UNL     1       3.651   7.584  -2.550  0.00  0.00    +0.050 A 
ATOM      9  C   UNL     1       2.287   7.678  -2.267  0.00  0.00    -0.100 A 
ATOM     10  C   UNL     1       1.498   8.641  -2.922  0.00  0.00    +0.101 A 
ATOM     11  N   UNL     1       0.212   8.502  -2.451  0.00  0.00    -0.595 N 
ATOM     12  C   UNL     1       0.160   7.489  -1.533  0.00  0.00    +0.223 A 
ATOM     13  H   UNL     1      -0.545   9.040  -2.731  0.00  0.00    +0.415 HD
ATOM     14  C   UNL     1       1.381   6.954  -1.372  0.00  0.00    -0.151 A 
ATOM     30  C   UNL     1       2.092   9.493  -3.848  0.00  0.00    -0.011 A 
ENDROOT
BRANCH   6   5
ATOM      5  C   UNL     1       4.080  10.307  -5.116  0.00  0.00    +0.108 C 
BRANCH   5   4
ATOM      1  C   UNL     1       6.807  11.017  -5.245  0.00  0.00    +0.073 C 
ATOM      2  C   UNL     1       5.826  11.910  -4.531  0.00  0.00    -0.132 C 
ATOM      3  C   UNL     1       6.286  13.223  -3.951  0.00  0.00    +0.072 C 
ATOM      4  C   UNL     1       4.573  11.547  -4.416  0.00  0.00    -0.049 C 
ENDBRANCH   5   4
ENDBRANCH   6   5
BRANCH  14  15
ATOM     15  C   UNL     1       1.748   5.819  -0.451  0.00  0.00    +0.148 C 
BRANCH  15  16
ATOM     16  C   UNL     1       0.954   4.593  -0.822  0.00  0.00    -0.038 A 
ATOM     17  C   UNL     1      -0.433   4.633  -0.776  0.00  0.00    -0.019 A 
ATOM     18  C   UNL     1      -1.170   3.532  -1.109  0.00  0.00    +0.051 A 
ATOM     19  C   UNL     1      -0.524   2.357  -1.499  0.00  0.00    -0.114 A 
ATOM     20  C   UNL     1      -0.987   1.031  -1.917  0.00  0.00    -0.060 A 
ATOM     21  C   UNL     1       0.108   0.297  -2.172  0.00  0.00    +0.218 A 
ATOM     22  N   UNL     1       1.232   1.046  -1.961  0.00  0.00    -0.598 N 
ATOM     23  H   UNL     1       2.142   0.733  -2.083  0.00  0.00    +0.415 HD
ATOM     24  C   UNL     1       0.881   2.312  -1.548  0.00  0.00    +0.099 A 
ATOM     25  C   UNL     1       1.612   3.445  -1.205  0.00  0.00    -0.009 A 
ENDBRANCH  15  16
BRANCH  15  26
ATOM     26  C   UNL     1       1.438   6.207   0.972  0.00  0.00    -0.039 C 
ATOM     27  C   UNL     1       2.370   6.131   1.890  0.00  0.00    -0.126 C 
ATOM     28  C   UNL     1       2.033   6.414   3.331  0.00  0.00    +0.073 C 
ATOM     29  C   UNL     1       3.779   5.761   1.504  0.00  0.00    +0.072 C 
ENDBRANCH  15  26
ENDBRANCH  14  15
TORSDOF 5
