REMARK  Name = ZINC95486048
REMARK  10 active torsions:
REMARK  status: ('A' for Active; 'I' for Inactive)
REMARK    1  A    between atoms: C1_1  and  C2_2
REMARK    2  A    between atoms: C2_2  and  C3_3
REMARK    3  A    between atoms: C2_2  and  C4_4
REMARK    4  A    between atoms: C4_4  and  C5_5
REMARK    5  A    between atoms: C5_5  and  C6_6
REMARK    6  A    between atoms: C8_8  and  C13_15
REMARK    7  A    between atoms: C10_10  and  O2_13
REMARK    8  A    between atoms: C11_11  and  O1_12
REMARK    9  A    between atoms: O2_13  and  C12_14
REMARK   10  A    between atoms: C19_23  and  O5_27
REMARK                            x       y       z     vdW  Elec       q    Type
REMARK                         _______ _______ _______ _____ _____    ______ ____
ROOT
ATOM      5  C   UNL     1       0.687  -0.623   3.718  0.00  0.00    -0.064 A 
ATOM      6  C   UNL     1       1.465   0.245   4.462  0.00  0.00    +0.011 A 
ATOM      7  C   UNL     1       2.135  -0.209   5.582  0.00  0.00    -0.057 A 
ATOM     21  C   UNL     1       2.031  -1.534   5.964  0.00  0.00    -0.034 A 
ATOM     22  C   UNL     1       1.253  -2.409   5.223  0.00  0.00    +0.107 A 
ATOM     25  C   UNL     1       0.573  -1.950   4.098  0.00  0.00    +0.087 A 
ENDROOT
BRANCH   7   8
ATOM      8  C   UNL     1       2.982   0.741   6.390  0.00  0.00    +0.240 C 
ATOM      9  C   UNL     1       2.199   1.198   7.629  0.00  0.00    +0.040 C 
ATOM     10  C   UNL     1       3.108   2.123   8.418  0.00  0.00    +0.402 C 
ATOM     11  C   UNL     1       4.524   1.735   8.506  0.00  0.00    -0.263 A 
ATOM     12  C   UNL     1       5.383   2.372   9.406  0.00  0.00    +0.135 A 
ATOM     13  C   UNL     1       6.697   2.001   9.467  0.00  0.00    -0.048 A 
ATOM     14  C   UNL     1       7.181   0.993   8.637  0.00  0.00    +0.181 A 
ATOM     17  C   UNL     1       6.339   0.351   7.741  0.00  0.00    -0.045 A 
ATOM     18  C   UNL     1       5.003   0.713   7.668  0.00  0.00    +0.199 A 
ATOM     19  O   UNL     1       2.688   3.130   8.950  0.00  0.00    -0.439 OA
ATOM     20  O   UNL     1       4.178   0.080   6.803  0.00  0.00    -0.301 OA
BRANCH  14  15
ATOM     15  O   UNL     1       8.489   0.637   8.705  0.00  0.00    -0.493 OA
ATOM     16  H   UNL     1       8.671  -0.069   9.340  0.00  0.00    +0.402 HD
ENDBRANCH  14  15
ENDBRANCH   7   8
BRANCH  22  23
ATOM     23  O   UNL     1       1.149  -3.713   5.597  0.00  0.00    -0.305 OA
ATOM     24  C   UNL     1       1.869  -4.112   6.765  0.00  0.00    +0.241 C 
ENDBRANCH  22  23
BRANCH  25  26
ATOM     26  O   UNL     1      -0.196  -2.804   3.371  0.00  0.00    -0.480 OA
ATOM     27  H   UNL     1       0.281  -3.254   2.660  0.00  0.00    +0.386 HD
ENDBRANCH  25  26
BRANCH   5   4
ATOM      4  C   UNL     1      -0.042  -0.124   2.497  0.00  0.00    +0.082 C 
BRANCH   4   3
ATOM      3  C   UNL     1       0.742  -0.511   1.242  0.00  0.00    +0.018 C 
BRANCH   3   2
ATOM      1  C   UNL     1      -0.019   1.526   0.010  0.00  0.00    +0.014 C 
ATOM      2  C   UNL     1       0.002  -0.004   0.002  0.00  0.00    -0.026 C 
ATOM     28  C   UNL     1       0.718  -0.498  -1.257  0.00  0.00    +0.014 C 
ENDBRANCH   3   2
ENDBRANCH   4   3
ENDBRANCH   5   4
TORSDOF 7
