REMARK  Name = ZINC14952515
REMARK  11 active torsions:
REMARK  status: ('A' for Active; 'I' for Inactive)
REMARK    1  A    between atoms: C1_1  and  C2_2
REMARK    2  A    between atoms: C3_4  and  O11_37
REMARK    3  A    between atoms: C4_6  and  O10_36
REMARK    4  A    between atoms: C5_8  and  O9_35
REMARK    5  A    between atoms: C6_10  and  O2_13
REMARK    6  A    between atoms: O2_13  and  C7_14
REMARK    7  A    between atoms: C10_18  and  O8_34
REMARK    8  A    between atoms: C12_20  and  O7_33
REMARK    9  A    between atoms: C15_24  and  C16_25
REMARK   10  A    between atoms: C19_28  and  O6_32
REMARK   11  A    between atoms: C20_29  and  O5_31
REMARK                            x       y       z     vdW  Elec       q    Type
REMARK                         _______ _______ _______ _____ _____    ______ ____
ROOT
ATOM     14  C   UNL     1       3.084  -0.353  -2.281  0.00  0.00    -0.092 A 
ATOM     15  C   UNL     1       3.699  -1.627  -2.397  0.00  0.00    +0.416 A 
ATOM     16  C   UNL     1       4.625  -1.832  -3.522  0.00  0.00    -0.303 A 
ATOM     17  C   UNL     1       5.272  -3.060  -3.715  0.00  0.00    +0.288 A 
ATOM     20  C   UNL     1       6.139  -3.212  -4.781  0.00  0.00    -0.148 A 
ATOM     21  C   UNL     1       6.366  -2.152  -5.654  0.00  0.00    +0.264 A 
ATOM     24  C   UNL     1       5.729  -0.936  -5.469  0.00  0.00    -0.135 A 
ATOM     25  C   UNL     1       4.855  -0.764  -4.406  0.00  0.00    +0.223 A 
ATOM     26  O   UNL     1       4.228   0.415  -4.213  0.00  0.00    -0.206 OA
ATOM     27  O   UNL     1       3.466  -2.518  -1.597  0.00  0.00    -0.444 OA
ATOM     28  C   UNL     1       3.376   0.617  -3.193  0.00  0.00    +0.201 A 
ENDROOT
BRANCH  28  29
ATOM     29  C   UNL     1       2.733   1.937  -3.055  0.00  0.00    -0.064 A 
ATOM     30  C   UNL     1       3.501   3.102  -3.133  0.00  0.00    +0.068 A 
ATOM     31  C   UNL     1       2.898   4.335  -3.005  0.00  0.00    +0.004 A 
ATOM     32  C   UNL     1       1.528   4.423  -2.798  0.00  0.00    +0.159 A 
ATOM     35  C   UNL     1       0.756   3.265  -2.719  0.00  0.00    +0.062 A 
ATOM     38  C   UNL     1       1.353   2.026  -2.852  0.00  0.00    +0.024 A 
BRANCH  32  33
ATOM     33  O   UNL     1       0.939   5.640  -2.673  0.00  0.00    -0.503 OA
ATOM     34  H   UNL     1      -0.147   5.712  -2.509  0.00  0.00    +0.441 HD
ENDBRANCH  32  33
BRANCH  35  36
ATOM     36  O   UNL     1      -0.586   3.355  -2.517  0.00  0.00    -0.518 OA
ATOM     37  H   UNL     1      -1.195   2.442  -2.454  0.00  0.00    +0.440 HD
ENDBRANCH  35  36
ENDBRANCH  28  29
BRANCH  17  18
ATOM     18  O   UNL     1       5.049  -4.092  -2.863  0.00  0.00    -0.467 OA
ATOM     19  H   UNL     1       5.560  -5.054  -3.018  0.00  0.00    +0.441 HD
ENDBRANCH  17  18
BRANCH  21  22
ATOM     22  O   UNL     1       7.220  -2.313  -6.697  0.00  0.00    -0.495 OA
ATOM     23  H   UNL     1       7.403  -1.479  -7.391  0.00  0.00    +0.446 HD
ENDBRANCH  21  22
BRANCH  14  13
ATOM     13  O   UNL     1       2.215  -0.100  -1.265  0.00  0.00    -0.281 OA
BRANCH  13  12
ATOM      1  C   UNL     1       4.536   3.462   0.838  0.00  0.00    +0.071 C 
ATOM      2  C   UNL     1       3.953   2.069   1.080  0.00  0.00    +0.191 C 
ATOM      3  C   UNL     1       2.907   2.140   2.196  0.00  0.00    +0.175 C 
ATOM      6  C   UNL     1       2.285   0.754   2.392  0.00  0.00    +0.167 C 
ATOM      9  C   UNL     1       1.686   0.283   1.063  0.00  0.00    +0.167 C 
ATOM     12  C   UNL     1       2.779   0.284  -0.009  0.00  0.00    +0.301 C 
ATOM     39  O   UNL     1       3.336   1.595  -0.119  0.00  0.00    -0.387 OA
BRANCH   3   4
ATOM      4  O   UNL     1       1.887   3.075   1.838  0.00  0.00    -0.572 OA
ATOM      5  H   UNL     1       1.046   3.260   2.522  0.00  0.00    +0.407 HD
ENDBRANCH   3   4
BRANCH   6   7
ATOM      7  O   UNL     1       3.293  -0.167   2.815  0.00  0.00    -0.592 OA
ATOM      8  H   UNL     1       3.031  -1.218   3.006  0.00  0.00    +0.424 HD
ENDBRANCH   6   7
BRANCH   9  10
ATOM     10  O   UNL     1       1.167  -1.039   1.215  0.00  0.00    -0.593 OA
ATOM     11  H   UNL     1       0.694  -1.546   0.360  0.00  0.00    +0.423 HD
ENDBRANCH   9  10
ENDBRANCH  13  12
ENDBRANCH  14  13
TORSDOF 10
