REMARK  Name = ZINC14645890
REMARK  9 active torsions:
REMARK  status: ('A' for Active; 'I' for Inactive)
REMARK    1  A    between atoms: C1_1  and  O1_2
REMARK    2  A    between atoms: O1_2  and  C2_3
REMARK    3  A    between atoms: C4_5  and  O7_24
REMARK    4  A    between atoms: C5_6  and  O6_23
REMARK    5  A    between atoms: C9_11  and  C11_14
REMARK    6  A    between atoms: C15_18  and  O5_22
REMARK    7  A    between atoms: C16_19  and  O4_20
REMARK    8  A    between atoms: O4_20  and  C17_21
REMARK    9  A    between atoms: O7_24  and  C18_25
REMARK                            x       y       z     vdW  Elec       q    Type
REMARK                         _______ _______ _______ _____ _____    ______ ____
ROOT
ATOM      3  C   UNL     1      -5.658   0.192   0.594  0.00  0.00    +0.251 A 
ATOM      4  C   UNL     1      -6.614  -0.430  -0.187  0.00  0.00    -0.170 A 
ATOM      5  C   UNL     1      -6.741  -0.100  -1.532  0.00  0.00    +0.208 A 
ATOM      8  C   UNL     1      -5.913   0.854  -2.108  0.00  0.00    +0.010 A 
ATOM     11  C   UNL     1      -4.944   1.490  -1.340  0.00  0.00    +0.196 A 
ATOM     12  O   UNL     1      -4.135   2.418  -1.889  0.00  0.00    -0.205 OA
ATOM     13  C   UNL     1      -3.190   3.067  -1.202  0.00  0.00    +0.326 A 
ATOM     14  C   UNL     1      -2.958   2.835   0.116  0.00  0.00    -0.231 A 
ATOM     25  C   UNL     1      -3.787   1.839   0.817  0.00  0.00    +0.435 A 
ATOM     26  O   UNL     1      -3.626   1.594   2.000  0.00  0.00    -0.423 OA
ATOM     27  C   UNL     1      -4.818   1.155   0.021  0.00  0.00    -0.277 A 
ENDROOT
BRANCH  14  15
ATOM     15  C   UNL     1      -1.894   3.575   0.836  0.00  0.00    -0.033 A 
ATOM     16  C   UNL     1      -1.994   4.955   1.007  0.00  0.00    +0.031 A 
ATOM     17  C   UNL     1      -1.003   5.642   1.678  0.00  0.00    +0.028 A 
ATOM     18  C   UNL     1       0.094   4.966   2.184  0.00  0.00    +0.008 A 
ATOM     19  C   UNL     1       0.202   3.593   2.026  0.00  0.00    +0.088 A 
ATOM     22  C   UNL     1      -0.787   2.893   1.346  0.00  0.00    +0.098 A 
BRANCH  19  20
ATOM     20  O   UNL     1       1.279   2.933   2.530  0.00  0.00    -0.484 OA
ATOM     21  H   UNL     1       2.023   2.868   1.916  0.00  0.00    +0.386 HD
ENDBRANCH  19  20
BRANCH  22  23
ATOM     23  O   UNL     1      -0.682   1.547   1.184  0.00  0.00    -0.317 OA
ATOM     24  C   UNL     1      -0.013   1.086   0.008  0.00  0.00    +0.218 C 
ENDBRANCH  22  23
ENDBRANCH  14  15
BRANCH   3   2
ATOM      1  C   UNL     1      -6.425  -1.120   2.420  0.00  0.00    +0.249 C 
ATOM      2  O   UNL     1      -5.533  -0.129   1.907  0.00  0.00    -0.275 OA
ENDBRANCH   3   2
BRANCH   5   6
ATOM      6  O   UNL     1      -7.684  -0.718  -2.289  0.00  0.00    -0.292 OA
ATOM      7  C   UNL     1      -8.505  -1.690  -1.639  0.00  0.00    +0.254 C 
ENDBRANCH   5   6
BRANCH   8   9
ATOM      9  O   UNL     1      -6.049   1.166  -3.426  0.00  0.00    -0.465 OA
ATOM     10  H   UNL     1      -5.507   0.625  -4.017  0.00  0.00    +0.384 HD
ENDBRANCH   8   9
TORSDOF 6
