REMARK  Name = ZINC95486270
REMARK  10 active torsions:
REMARK  status: ('A' for Active; 'I' for Inactive)
REMARK    1  A    between atoms: C1_1  and  C2_2
REMARK    2  A    between atoms: C2_2  and  C3_3
REMARK    3  A    between atoms: C2_2  and  C4_4
REMARK    4  A    between atoms: C2_2  and  O5_28
REMARK    5  A    between atoms: C5_5  and  C6_6
REMARK    6  A    between atoms: C7_7  and  O4_26
REMARK    7  A    between atoms: C9_9  and  O3_24
REMARK    8  A    between atoms: C12_13  and  C15_18
REMARK    9  A    between atoms: O3_24  and  C21_25
REMARK   10  A    between atoms: O4_26  and  C22_27
REMARK                            x       y       z     vdW  Elec       q    Type
REMARK                         _______ _______ _______ _____ _____    ______ ____
ROOT
ATOM      7  C   UNL     1      -1.042  -2.240  -1.545  0.00  0.00    -0.132 A 
ATOM      8  C   UNL     1      -0.750  -1.241  -2.485  0.00  0.00    +0.208 A 
ATOM     11  C   UNL     1      -0.122  -1.559  -3.679  0.00  0.00    -0.200 A 
ATOM     12  C   UNL     1       0.220  -2.871  -3.959  0.00  0.00    +0.250 A 
ATOM     15  C   UNL     1      -0.071  -3.882  -3.029  0.00  0.00    -0.313 A 
ATOM     16  C   UNL     1       0.273  -5.281  -3.313  0.00  0.00    +0.405 C 
ATOM     17  O   UNL     1       0.611  -5.642  -4.421  0.00  0.00    -0.433 OA
ATOM     18  C   UNL     1       0.201  -6.248  -2.142  0.00  0.00    +0.036 C 
ATOM     19  C   UNL     1      -1.057  -5.885  -1.339  0.00  0.00    +0.232 C 
ATOM     26  O   UNL     1      -0.961  -4.530  -0.898  0.00  0.00    -0.281 OA
ATOM     27  C   UNL     1      -0.695  -3.568  -1.810  0.00  0.00    +0.272 A 
ENDROOT
BRANCH  19  20
ATOM     20  C   UNL     1      -1.172  -6.795  -0.144  0.00  0.00    -0.091 A 
ATOM     21  C   UNL     1      -0.501  -6.489   1.026  0.00  0.00    +0.042 A 
ATOM     22  C   UNL     1      -0.607  -7.325   2.122  0.00  0.00    +0.004 A 
ATOM     23  C   UNL     1      -1.383  -8.466   2.049  0.00  0.00    +0.013 A 
ATOM     24  C   UNL     1      -2.054  -8.772   0.879  0.00  0.00    +0.007 A 
ATOM     25  C   UNL     1      -1.952  -7.934  -0.215  0.00  0.00    +0.022 A 
ENDBRANCH  19  20
BRANCH   7   6
ATOM      5  C   UNL     1      -1.050  -1.215   0.656  0.00  0.00    -0.041 C 
ATOM      6  C   UNL     1      -1.710  -1.890  -0.276  0.00  0.00    +0.040 C 
BRANCH   5   2
ATOM      1  C   UNL     1       0.814   0.368   0.241  0.00  0.00    +0.013 C 
ATOM      2  C   UNL     1       0.449  -1.081   0.571  0.00  0.00    +0.157 C 
ATOM     28  C   UNL     1       1.073  -1.471   1.913  0.00  0.00    +0.058 C 
BRANCH   2   3
ATOM      3  O   UNL     1       0.946  -1.943  -0.454  0.00  0.00    -0.549 OA
ATOM      4  H   UNL     1       0.934  -1.551  -1.338  0.00  0.00    +0.367 HD
ENDBRANCH   2   3
ENDBRANCH   5   2
ENDBRANCH   7   6
BRANCH   8   9
ATOM      9  O   UNL     1      -1.085   0.047  -2.223  0.00  0.00    -0.295 OA
ATOM     10  C   UNL     1      -0.760   1.018  -3.220  0.00  0.00    +0.247 C 
ENDBRANCH   8   9
BRANCH  12  13
ATOM     13  O   UNL     1       0.835  -3.179  -5.128  0.00  0.00    -0.283 OA
ATOM     14  C   UNL     1       1.099  -2.099  -6.026  0.00  0.00    +0.245 C 
ENDBRANCH  12  13
TORSDOF 6
