REMARK  Name = ZINC28969961
REMARK  10 active torsions:
REMARK  status: ('A' for Active; 'I' for Inactive)
REMARK    1  A    between atoms: C1_1  and  C2_2
REMARK    2  A    between atoms: C2_2  and  C3_4
REMARK    3  A    between atoms: C3_4  and  C4_5
REMARK    4  A    between atoms: C9_11  and  O3_15
REMARK    5  A    between atoms: C10_12  and  O2_13
REMARK    6  A    between atoms: O2_13  and  C11_14
REMARK    7  A    between atoms: O3_15  and  C12_16
REMARK    8  A    between atoms: C18_22  and  O5_30
REMARK    9  A    between atoms: C19_23  and  O4_29
REMARK   10  A    between atoms: N1_27  and  C23_28
REMARK                            x       y       z     vdW  Elec       q    Type
REMARK                         _______ _______ _______ _____ _____    ______ ____
ROOT
ATOM      4  C   UNL     1       1.378  -1.053   0.635  0.00  0.00    +0.262 C 
ATOM      5  C   UNL     1       0.268  -0.093   0.315  0.00  0.00    -0.093 A 
ATOM      6  C   UNL     1       0.529   1.281   0.303  0.00  0.00    -0.057 A 
ATOM      7  C   UNL     1       1.917   1.725   0.579  0.00  0.00    -0.089 A 
ATOM      8  C   UNL     1       2.189   3.067   0.871  0.00  0.00    +0.033 A 
ATOM      9  C   UNL     1       3.454   3.477   1.156  0.00  0.00    +0.017 A 
ATOM     10  C   UNL     1       4.508   2.547   1.168  0.00  0.00    -0.028 A 
ATOM     11  C   UNL     1       5.816   2.954   1.475  0.00  0.00    -0.006 A 
ATOM     12  C   UNL     1       6.829   2.040   1.473  0.00  0.00    +0.151 A 
ATOM     15  C   UNL     1       6.574   0.688   1.195  0.00  0.00    +0.080 A 
ATOM     18  C   UNL     1       5.312   0.262   0.899  0.00  0.00    -0.016 A 
ATOM     19  C   UNL     1       4.253   1.185   0.867  0.00  0.00    -0.038 A 
ATOM     20  C   UNL     1       2.938   0.778   0.547  0.00  0.00    +0.134 A 
ATOM     21  C   UNL     1      -0.483   2.187   0.029  0.00  0.00    +0.065 A 
ATOM     22  C   UNL     1      -1.761   1.730  -0.243  0.00  0.00    -0.055 A 
ATOM     23  C   UNL     1      -2.024   0.370  -0.241  0.00  0.00    +0.111 A 
ATOM     26  C   UNL     1      -1.009  -0.543   0.037  0.00  0.00    +0.080 A 
ATOM     29  N   UNL     1       2.679  -0.539   0.216  0.00  0.00    -0.494 N 
ATOM     30  C   UNL     1       2.892  -0.777  -1.222  0.00  0.00    +0.221 C 
ENDROOT
BRANCH  12  13
ATOM     13  O   UNL     1       8.100   2.445   1.728  0.00  0.00    -0.506 OA
ATOM     14  H   UNL     1       8.921   1.713   1.729  0.00  0.00    +0.441 HD
ENDBRANCH  12  13
BRANCH  15  16
ATOM     16  O   UNL     1       7.595  -0.209   1.227  0.00  0.00    -0.520 OA
ATOM     17  H   UNL     1       7.402  -1.270   1.010  0.00  0.00    +0.444 HD
ENDBRANCH  15  16
BRANCH  23  24
ATOM     24  O   UNL     1      -3.281  -0.073  -0.514  0.00  0.00    -0.306 OA
ATOM     25  C   UNL     1      -4.273   0.918  -0.791  0.00  0.00    +0.241 C 
ENDBRANCH  23  24
BRANCH  26  27
ATOM     27  O   UNL     1      -1.276  -1.878   0.030  0.00  0.00    -0.322 OA
ATOM     28  C   UNL     1      -1.221  -2.544  -1.233  0.00  0.00    +0.223 C 
ENDBRANCH  26  27
BRANCH   4   3
ATOM      3  C   UNL     1       1.401  -1.313   2.145  0.00  0.00    +0.051 C 
BRANCH   3   2
ATOM      1  C   UNL     1       2.638  -2.820   3.880  0.00  0.00    +0.054 C 
ATOM      2  C   UNL     1       2.420  -2.378   2.456  0.00  0.00    +0.363 C 
ATOM     31  O   UNL     1       3.062  -2.879   1.563  0.00  0.00    -0.443 OA
ENDBRANCH   3   2
ENDBRANCH   4   3
TORSDOF 6
