REMARK  Name = ZINC95486182
REMARK  19 active torsions:
REMARK  status: ('A' for Active; 'I' for Inactive)
REMARK    1  A    between atoms: C1_1  and  C2_2
REMARK    2  A    between atoms: C5_5  and  C36_45
REMARK    3  A    between atoms: C7_7  and  C13_15
REMARK    4  A    between atoms: C8_8  and  O2_14
REMARK    5  A    between atoms: C10_10  and  O1_12
REMARK    6  A    between atoms: O1_12  and  C12_13
REMARK    7  A    between atoms: C15_17  and  C25_29
REMARK    8  A    between atoms: C18_20  and  C24_28
REMARK    9  A    between atoms: C20_22  and  O4_26
REMARK   10  A    between atoms: C22_24  and  O3_25
REMARK   11  A    between atoms: O4_26  and  C23_27
REMARK   12  A    between atoms: C29_33  and  O6_36
REMARK   13  A    between atoms: C30_34  and  O5_35
REMARK   14  A    between atoms: C31_37  and  C35_44
REMARK   15  A    between atoms: C32_40  and  C34_43
REMARK   16  A    between atoms: C37_46  and  O8_60
REMARK   17  A    between atoms: C39_48  and  O7_59
REMARK   18  A    between atoms: C43_52  and  C46_58
REMARK   19  A    between atoms: C44_55  and  C45_57
REMARK                            x       y       z     vdW  Elec       q    Type
REMARK                         _______ _______ _______ _____ _____    ______ ____
ROOT
ATOM      1  C   UNL     1      -0.251   2.075  -0.112  0.00  0.00    +0.097 C 
ATOM      2  C   UNL     1       0.003   0.590  -0.082  0.00  0.00    -0.010 A 
ATOM      3  C   UNL     1       0.076  -0.101  -1.254  0.00  0.00    -0.047 A 
ATOM      4  C   UNL     1       0.312  -1.483  -1.239  0.00  0.00    +0.032 A 
ATOM      5  C   UNL     1       0.392  -2.222  -2.446  0.00  0.00    -0.078 A 
ATOM     24  C   UNL     1       0.625  -3.582  -2.403  0.00  0.00    +0.067 A 
ATOM     25  C   UNL     1       0.783  -4.241  -1.177  0.00  0.00    -0.105 A 
ATOM     59  C   UNL     1       0.709  -3.537   0.019  0.00  0.00    +0.207 A 
ATOM     62  C   UNL     1       0.472  -2.150  -0.001  0.00  0.00    -0.109 A 
ATOM     63  C   UNL     1       0.392  -1.410   1.197  0.00  0.00    +0.172 A 
ATOM     66  C   UNL     1       0.165  -0.053   1.141  0.00  0.00    -0.094 A 
ENDROOT
BRANCH   5   6
ATOM      6  C   UNL     1       0.226  -1.537  -3.749  0.00  0.00    -0.056 A 
ATOM      7  C   UNL     1       1.341  -1.016  -4.411  0.00  0.00    +0.170 A 
ATOM     10  C   UNL     1       1.178  -0.377  -5.628  0.00  0.00    -0.017 A 
ATOM     11  C   UNL     1      -0.086  -0.257  -6.181  0.00  0.00    +0.162 A 
ATOM     14  C   UNL     1      -1.200  -0.774  -5.523  0.00  0.00    -0.162 A 
ATOM     15  C   UNL     1      -2.553  -0.612  -6.166  0.00  0.00    +0.239 C 
ATOM     16  C   UNL     1      -2.429  -0.860  -7.671  0.00  0.00    +0.094 C 
ATOM     17  N   UNL     1      -3.508  -1.579  -5.607  0.00  0.00    -0.504 N 
ATOM     18  H   UNL     1      -4.428  -1.393  -5.975  0.00  0.00    +0.434 HD
ATOM     19  H   UNL     1      -3.229  -2.518  -5.848  0.00  0.00    +0.427 HD
ATOM     20  C   UNL     1      -3.524  -1.430  -4.144  0.00  0.00    +0.179 C 
ATOM     21  C   UNL     1      -3.633   0.051  -3.775  0.00  0.00    +0.090 C 
ATOM     22  C   UNL     1      -2.223  -2.005  -3.581  0.00  0.00    +0.132 C 
ATOM     23  C   UNL     1      -1.046  -1.419  -4.317  0.00  0.00    -0.039 A 
BRANCH   7   8
ATOM      8  O   UNL     1       2.579  -1.135  -3.863  0.00  0.00    -0.478 OA
ATOM      9  H   UNL     1       3.048  -1.940  -4.122  0.00  0.00    +0.398 HD
ENDBRANCH   7   8
BRANCH  11  12
ATOM     12  O   UNL     1      -0.241   0.372  -7.376  0.00  0.00    -0.488 OA
ATOM     13  H   UNL     1      -0.090  -0.198  -8.142  0.00  0.00    +0.401 HD
ENDBRANCH  11  12
ENDBRANCH   5   6
BRANCH  25  26
ATOM     26  C   UNL     1       1.032  -5.702  -1.155  0.00  0.00    -0.096 A 
ATOM     27  C   UNL     1       2.220  -6.212  -1.694  0.00  0.00    +0.084 A 
ATOM     28  C   UNL     1       2.471  -7.570  -1.683  0.00  0.00    -0.079 A 
ATOM     47  C   UNL     1       1.519  -8.457  -1.122  0.00  0.00    +0.028 A 
ATOM     48  C   UNL     1       1.750  -9.840  -1.098  0.00  0.00    -0.057 A 
ATOM     49  C   UNL     1       0.822 -10.676  -0.553  0.00  0.00    -0.009 A 
ATOM     50  C   UNL     1       1.081 -12.160  -0.534  0.00  0.00    +0.097 C 
ATOM     51  C   UNL     1      -0.362 -10.179  -0.014  0.00  0.00    -0.097 A 
ATOM     52  C   UNL     1      -0.624  -8.828  -0.019  0.00  0.00    +0.174 A 
ATOM     55  C   UNL     1       0.319  -7.940  -0.577  0.00  0.00    -0.108 A 
ATOM     56  C   UNL     1       0.087  -6.553  -0.594  0.00  0.00    +0.198 A 
BRANCH  28  29
ATOM     29  C   UNL     1       3.730  -8.097  -2.257  0.00  0.00    -0.033 A 
ATOM     30  C   UNL     1       3.788  -8.448  -3.610  0.00  0.00    -0.068 A 
ATOM     31  C   UNL     1       4.959  -8.936  -4.144  0.00  0.00    -0.121 A 
ATOM     32  C   UNL     1       5.069  -9.318  -5.597  0.00  0.00    +0.229 C 
ATOM     33  C   UNL     1       5.875 -10.612  -5.719  0.00  0.00    +0.099 C 
ATOM     34  N   UNL     1       3.739  -9.521  -6.179  0.00  0.00    -0.503 N 
ATOM     35  H   UNL     1       3.301 -10.322  -5.748  0.00  0.00    +0.431 HD
ATOM     36  H   UNL     1       3.825  -9.675  -7.172  0.00  0.00    +0.434 HD
ATOM     37  C   UNL     1       2.922  -8.322  -5.935  0.00  0.00    +0.178 C 
ATOM     38  C   UNL     1       3.721  -7.071  -6.304  0.00  0.00    +0.087 C 
ATOM     39  C   UNL     1       6.080  -9.083  -3.336  0.00  0.00    +0.042 A 
ATOM     40  C   UNL     1       6.035  -8.740  -1.996  0.00  0.00    +0.102 A 
ATOM     43  C   UNL     1       2.550  -8.280  -4.452  0.00  0.00    +0.128 C 
ATOM     44  C   UNL     1       4.860  -8.238  -1.449  0.00  0.00    +0.128 A 
BRANCH  40  41
ATOM     41  O   UNL     1       7.139  -8.889  -1.217  0.00  0.00    -0.484 OA
ATOM     42  H   UNL     1       7.712  -8.110  -1.194  0.00  0.00    +0.405 HD
ENDBRANCH  40  41
BRANCH  44  45
ATOM     45  O   UNL     1       4.809  -7.891  -0.136  0.00  0.00    -0.478 OA
ATOM     46  H   UNL     1       4.544  -8.612   0.452  0.00  0.00    +0.404 HD
ENDBRANCH  44  45
ENDBRANCH  28  29
BRANCH  52  53
ATOM     53  O   UNL     1      -1.782  -8.353   0.509  0.00  0.00    -0.292 OA
ATOM     54  C   UNL     1      -2.688  -9.314   1.055  0.00  0.00    +0.249 C 
ENDBRANCH  52  53
BRANCH  56  57
ATOM     57  O   UNL     1      -1.058  -6.047  -0.069  0.00  0.00    -0.460 OA
ATOM     58  H   UNL     1      -1.785  -5.980  -0.703  0.00  0.00    +0.386 HD
ENDBRANCH  56  57
ENDBRANCH  25  26
BRANCH  59  60
ATOM     60  O   UNL     1       0.863  -4.185   1.202  0.00  0.00    -0.465 OA
ATOM     61  H   UNL     1       1.778  -4.225   1.512  0.00  0.00    +0.395 HD
ENDBRANCH  59  60
BRANCH  63  64
ATOM     64  O   UNL     1       0.542  -2.030   2.396  0.00  0.00    -0.291 OA
ATOM     65  C   UNL     1       0.448  -1.214   3.565  0.00  0.00    +0.250 C 
ENDBRANCH  63  64
TORSDOF 11
