REMARK  Name = ZINC13539005
REMARK  9 active torsions:
REMARK  status: ('A' for Active; 'I' for Inactive)
REMARK    1  A    between atoms: C1_1  and  C2_2
REMARK    2  A    between atoms: C2_2  and  C19_25
REMARK    3  A    between atoms: C3_3  and  C4_4
REMARK    4  A    between atoms: C4_4  and  C5_5
REMARK    5  A    between atoms: C9_9  and  O2_13
REMARK    6  A    between atoms: C10_10  and  O1_11
REMARK    7  A    between atoms: O1_11  and  C11_12
REMARK    8  A    between atoms: C14_17  and  O6_24
REMARK    9  A    between atoms: C16_19  and  O5_23
REMARK                            x       y       z     vdW  Elec       q    Type
REMARK                         _______ _______ _______ _____ _____    ______ ____
ROOT
ATOM      6  C   UNL     1      -1.149   3.747   0.754  0.00  0.00    +0.019 A 
ATOM      7  C   UNL     1      -1.809   3.744   1.985  0.00  0.00    -0.225 A 
ATOM      8  C   UNL     1      -1.741   4.861   2.832  0.00  0.00    +0.179 A 
ATOM      9  O   UNL     1      -2.370   4.867   4.026  0.00  0.00    -0.225 OA
ATOM     10  C   UNL     1      -3.106   3.834   4.485  0.00  0.00    +0.200 A 
ATOM     11  C   UNL     1      -3.728   3.924   5.722  0.00  0.00    -0.035 A 
ATOM     12  C   UNL     1      -4.476   2.862   6.206  0.00  0.00    +0.198 A 
ATOM     15  C   UNL     1      -4.615   1.695   5.463  0.00  0.00    -0.059 A 
ATOM     16  C   UNL     1      -4.004   1.585   4.228  0.00  0.00    +0.224 A 
ATOM     19  C   UNL     1      -3.246   2.655   3.733  0.00  0.00    -0.272 A 
ATOM     20  C   UNL     1      -1.018   5.976   2.425  0.00  0.00    -0.013 A 
ATOM     21  C   UNL     1      -0.371   5.977   1.203  0.00  0.00    +0.165 A 
ATOM     24  C   UNL     1      -2.584   2.566   2.421  0.00  0.00    +0.439 A 
ATOM     25  O   UNL     1      -2.673   1.568   1.728  0.00  0.00    -0.422 OA
ATOM     26  C   UNL     1      -0.435   4.861   0.364  0.00  0.00    +0.039 A 
ENDROOT
BRANCH  12  13
ATOM     13  O   UNL     1      -5.080   2.963   7.418  0.00  0.00    -0.487 OA
ATOM     14  H   UNL     1      -4.534   2.660   8.156  0.00  0.00    +0.405 HD
ENDBRANCH  12  13
BRANCH  16  17
ATOM     17  O   UNL     1      -4.137   0.448   3.500  0.00  0.00    -0.472 OA
ATOM     18  H   UNL     1      -3.454  -0.214   3.676  0.00  0.00    +0.403 HD
ENDBRANCH  16  17
BRANCH  21  22
ATOM     22  O   UNL     1       0.333   7.071   0.814  0.00  0.00    -0.477 OA
ATOM     23  H   UNL     1      -0.187   7.718   0.318  0.00  0.00    +0.398 HD
ENDBRANCH  21  22
BRANCH  26  27
ATOM     27  O   UNL     1       0.206   4.873  -0.836  0.00  0.00    -0.313 OA
ATOM     28  C   UNL     1      -0.533   5.355  -1.960  0.00  0.00    +0.222 C 
ENDBRANCH  26  27
BRANCH   6   5
ATOM      5  C   UNL     1      -1.221   2.541  -0.147  0.00  0.00    +0.129 C 
BRANCH   5   4
ATOM      1  C   UNL     1       1.819   0.199  -0.176  0.00  0.00    +0.073 C 
ATOM      2  C   UNL     1       0.682   1.085  -0.616  0.00  0.00    -0.128 C 
ATOM      3  C   UNL     1       0.527   1.446  -2.071  0.00  0.00    +0.074 C 
ATOM      4  C   UNL     1      -0.172   1.541   0.267  0.00  0.00    -0.037 C 
ENDBRANCH   5   4
ENDBRANCH   6   5
TORSDOF 6
