REMARK  Name = ZINC95486303
REMARK  18 active torsions:
REMARK  status: ('A' for Active; 'I' for Inactive)
REMARK    1  A    between atoms: C1_1  and  C2_2
REMARK    2  A    between atoms: C2_2  and  C34_43
REMARK    3  A    between atoms: C3_3  and  C4_4
REMARK    4  A    between atoms: C4_4  and  C5_5
REMARK    5  A    between atoms: C5_5  and  C6_6
REMARK    6  A    between atoms: C6_6  and  C33_42
REMARK    7  A    between atoms: C7_7  and  C8_8
REMARK    8  A    between atoms: C8_8  and  C9_9
REMARK    9  A    between atoms: C10_10  and  O6_41
REMARK   10  A    between atoms: C12_12  and  C15_16
REMARK   11  A    between atoms: C14_14  and  O1_15
REMARK   12  A    between atoms: C16_17  and  C17_18
REMARK   13  A    between atoms: C21_22  and  O2_24
REMARK   14  A    between atoms: C23_26  and  C32_40
REMARK   15  A    between atoms: C25_28  and  O5_39
REMARK   16  A    between atoms: C26_30  and  O4_38
REMARK   17  A    between atoms: C27_32  and  C30_36
REMARK   18  A    between atoms: C27_32  and  C31_37
REMARK                            x       y       z     vdW  Elec       q    Type
REMARK                         _______ _______ _______ _____ _____    ______ ____
ROOT
ATOM     19  C   UNL     1      -3.140   9.783   4.493  0.00  0.00    -0.075 A 
ATOM     20  C   UNL     1      -4.362  10.420   4.269  0.00  0.00    +0.054 A 
ATOM     21  C   UNL     1      -4.405  11.782   4.036  0.00  0.00    -0.146 A 
ATOM     22  C   UNL     1      -3.236  12.523   4.020  0.00  0.00    +0.118 A 
ATOM     23  O   UNL     1      -3.233  13.863   3.793  0.00  0.00    -0.299 OA
ATOM     24  C   UNL     1      -4.479  14.567   3.969  0.00  0.00    +0.133 C 
ATOM     25  C   UNL     1      -4.780  14.626   5.466  0.00  0.00    +0.034 C 
ATOM     26  C   UNL     1      -4.295  15.980   3.412  0.00  0.00    +0.032 C 
ATOM     27  C   UNL     1      -5.631  16.721   3.417  0.00  0.00    +0.149 C 
ATOM     30  C   UNL     1      -6.615  15.993   2.506  0.00  0.00    +0.189 C 
ATOM     33  C   UNL     1      -6.842  14.554   2.974  0.00  0.00    -0.037 C 
ATOM     34  C   UNL     1      -7.636  13.840   1.855  0.00  0.00    +0.042 C 
ATOM     35  C   UNL     1      -7.722  14.559   4.223  0.00  0.00    +0.042 C 
ATOM     36  C   UNL     1      -5.537  13.811   3.175  0.00  0.00    -0.006 C 
ATOM     37  C   UNL     1      -2.009  11.889   4.244  0.00  0.00    +0.077 A 
ATOM     40  C   UNL     1      -5.749  12.433   3.804  0.00  0.00    +0.099 C 
ATOM     41  C   UNL     1      -1.958  10.530   4.479  0.00  0.00    +0.032 A 
ENDROOT
BRANCH  19  18
ATOM     17  C   UNL     1      -1.919   7.723   4.957  0.00  0.00    +0.011 C 
ATOM     18  C   UNL     1      -3.096   8.332   4.742  0.00  0.00    +0.034 C 
BRANCH  17  16
ATOM     11  C   UNL     1      -1.792   3.535   5.676  0.00  0.00    -0.126 A 
ATOM     12  C   UNL     1      -0.616   4.271   5.663  0.00  0.00    +0.128 A 
ATOM     15  C   UNL     1      -0.651   5.635   5.429  0.00  0.00    -0.007 A 
ATOM     16  C   UNL     1      -1.875   6.271   5.206  0.00  0.00    -0.025 A 
ATOM     42  C   UNL     1      -3.057   5.526   5.219  0.00  0.00    -0.013 A 
ATOM     43  C   UNL     1      -3.010   4.162   5.449  0.00  0.00    +0.126 A 
BRANCH  12  13
ATOM     13  O   UNL     1       0.574   3.651   5.881  0.00  0.00    -0.491 OA
ATOM     14  H   UNL     1       1.001   3.325   5.077  0.00  0.00    +0.390 HD
ENDBRANCH  12  13
BRANCH  43  44
ATOM     44  O   UNL     1      -4.158   3.435   5.457  0.00  0.00    -0.492 OA
ATOM     45  H   UNL     1      -4.577   3.372   6.326  0.00  0.00    +0.391 HD
ENDBRANCH  43  44
BRANCH  11  10
ATOM     10  C   UNL     1      -1.748   2.051   5.932  0.00  0.00    +0.120 C 
BRANCH  10   9
ATOM      7  C   UNL     1      -0.617   0.462   4.463  0.00  0.00    -0.126 C 
ATOM      8  C   UNL     1       0.405   0.271   5.554  0.00  0.00    +0.075 C 
ATOM      9  C   UNL     1      -1.594   1.320   4.623  0.00  0.00    -0.042 C 
BRANCH   7   6
ATOM      6  C   UNL     1      -0.516  -0.335   3.188  0.00  0.00    +0.060 C 
BRANCH   6   5
ATOM      5  C   UNL     1       0.435   0.371   2.219  0.00  0.00    +0.053 C 
BRANCH   5   4
ATOM      1  C   UNL     1       0.014   1.627  -0.270  0.00  0.00    +0.072 C 
ATOM      2  C   UNL     1       0.287   0.146  -0.208  0.00  0.00    -0.132 C 
ATOM      3  C   UNL     1       0.273  -0.676  -1.471  0.00  0.00    +0.072 C 
ATOM      4  C   UNL     1       0.536  -0.426   0.944  0.00  0.00    -0.062 C 
ENDBRANCH   5   4
ENDBRANCH   6   5
ENDBRANCH   7   6
ENDBRANCH  10   9
ENDBRANCH  11  10
ENDBRANCH  17  16
ENDBRANCH  19  18
BRANCH  27  28
ATOM     28  O   UNL     1      -5.427  18.050   2.920  0.00  0.00    -0.567 OA
ATOM     29  H   UNL     1      -4.803  18.574   3.441  0.00  0.00    +0.385 HD
ENDBRANCH  27  28
BRANCH  30  31
ATOM     31  O   UNL     1      -6.115  15.982   1.166  0.00  0.00    -0.555 OA
ATOM     32  H   UNL     1      -5.979  16.863   0.791  0.00  0.00    +0.385 HD
ENDBRANCH  30  31
BRANCH  37  38
ATOM     38  O   UNL     1      -0.861  12.617   4.229  0.00  0.00    -0.484 OA
ATOM     39  H   UNL     1      -0.611  12.975   5.092  0.00  0.00    +0.386 HD
ENDBRANCH  37  38
TORSDOF 12
