REMARK  Name = ZINC95486148
REMARK  12 active torsions:
REMARK  status: ('A' for Active; 'I' for Inactive)
REMARK    1  A    between atoms: C1_1  and  C2_2
REMARK    2  A    between atoms: C2_2  and  C15_16
REMARK    3  A    between atoms: C3_3  and  C4_4
REMARK    4  A    between atoms: C4_4  and  C5_5
REMARK    5  A    between atoms: C5_5  and  C6_6
REMARK    6  A    between atoms: C6_6  and  C14_15
REMARK    7  A    between atoms: C7_7  and  C8_8
REMARK    8  A    between atoms: C8_8  and  C9_9
REMARK    9  A    between atoms: C8_8  and  C10_10
REMARK   10  A    between atoms: C8_8  and  O1_14
REMARK   11  A    between atoms: C10_10  and  C11_11
REMARK   12  A    between atoms: C11_11  and  C12_12
REMARK                            x       y       z     vdW  Elec       q    Type
REMARK                         _______ _______ _______ _____ _____    ______ ____
ROOT
ATOM      7  C   UNL     1       4.660   0.469   0.743  0.00  0.00    -0.101 C 
ATOM      8  C   UNL     1       5.755   0.223  -0.263  0.00  0.00    +0.084 C 
ATOM      9  C   UNL     1       4.912   1.155   1.830  0.00  0.00    -0.093 C 
ENDROOT
BRANCH   9  10
ATOM     10  C   UNL     1       6.246   1.835   2.000  0.00  0.00    +0.166 C 
ATOM     17  C   UNL     1       7.142   0.983   2.901  0.00  0.00    +0.058 C 
BRANCH  10  11
ATOM     11  O   UNL     1       6.866   1.992   0.722  0.00  0.00    -0.550 OA
ATOM     12  H   UNL     1       6.401   2.601   0.132  0.00  0.00    +0.373 HD
ENDBRANCH  10  11
BRANCH  10  13
ATOM     13  C   UNL     1       6.039   3.210   2.639  0.00  0.00    +0.003 C 
BRANCH  13  14
ATOM     14  C   UNL     1       7.394   3.901   2.812  0.00  0.00    +0.055 C 
BRANCH  14  15
ATOM     15  C   UNL     1       7.190   5.255   3.441  0.00  0.00    -0.050 C 
ATOM     16  C   UNL     1       7.830   5.568   4.541  0.00  0.00    -0.003 C 
ENDBRANCH  14  15
ENDBRANCH  13  14
ENDBRANCH  10  13
ENDBRANCH   9  10
BRANCH   7   6
ATOM      6  C   UNL     1       3.276  -0.075   0.499  0.00  0.00    +0.055 C 
BRANCH   6   5
ATOM      5  C   UNL     1       2.490   0.904  -0.376  0.00  0.00    +0.054 C 
BRANCH   5   4
ATOM      1  C   UNL     1       0.230   2.327   0.530  0.00  0.00    +0.072 C 
ATOM      2  C   UNL     1       0.061   0.989  -0.142  0.00  0.00    -0.131 C 
ATOM      3  C   UNL     1      -1.309   0.375  -0.265  0.00  0.00    +0.072 C 
ATOM      4  C   UNL     1       1.106   0.360  -0.620  0.00  0.00    -0.062 C 
ENDBRANCH   5   4
ENDBRANCH   6   5
ENDBRANCH   7   6
TORSDOF 8
