REMARK  Name = ZINC95486091
REMARK  11 active torsions:
REMARK  status: ('A' for Active; 'I' for Inactive)
REMARK    1  A    between atoms: C1_1  and  C2_2
REMARK    2  A    between atoms: C2_2  and  C30_40
REMARK    3  A    between atoms: C3_3  and  C4_4
REMARK    4  A    between atoms: C4_4  and  C5_5
REMARK    5  A    between atoms: C5_5  and  C6_6
REMARK    6  A    between atoms: C10_13  and  C28_36
REMARK    7  A    between atoms: C11_14  and  C27_35
REMARK    8  A    between atoms: C17_21  and  O2_34
REMARK    9  A    between atoms: C19_25  and  C26_33
REMARK   10  A    between atoms: C23_30  and  C24_31
REMARK   11  A    between atoms: C23_30  and  C25_32
REMARK                            x       y       z     vdW  Elec       q    Type
REMARK                         _______ _______ _______ _____ _____    ______ ____
ROOT
ATOM      7  C   UNL     1       1.403   0.143   4.444  0.00  0.00    -0.036 C 
ATOM      8  C   UNL     1       0.946  -0.303   5.835  0.00  0.00    -0.030 C 
ATOM      9  C   UNL     1       1.083   1.091   6.561  0.00  0.00    +0.125 C 
ATOM     10  O   UNL     1       0.428   1.895   5.572  0.00  0.00    -0.316 OA
ATOM     11  C   UNL     1       0.975   0.836   7.986  0.00  0.00    +0.093 C 
ATOM     12  C   UNL     1       1.045  -0.675   8.160  0.00  0.00    -0.011 C 
ATOM     13  C   UNL     1      -0.310  -1.200   8.299  0.00  0.00    +0.046 C 
ATOM     14  C   UNL     1       1.873  -1.164   9.292  0.00  0.00    -0.067 C 
ATOM     15  C   UNL     1       2.006  -0.508  10.396  0.00  0.00    -0.099 C 
ATOM     16  C   UNL     1       2.818  -0.974  11.618  0.00  0.00    +0.203 C 
ATOM     19  C   UNL     1       3.607  -2.348  11.286  0.00  0.00    +0.021 C 
ATOM     20  C   UNL     1       2.819  -3.223  10.374  0.00  0.00    -0.044 C 
ATOM     21  C   UNL     1       1.411  -3.517  10.996  0.00  0.00    +0.045 C 
ATOM     22  C   UNL     1       3.541  -4.523  10.189  0.00  0.00    +0.053 C 
ATOM     23  C   UNL     1       4.890  -4.208   9.463  0.00  0.00    +0.010 C 
ATOM     24  C   UNL     1       5.677  -3.241  10.291  0.00  0.00    +0.375 C 
ATOM     25  O   UNL     1       6.881  -3.403  10.454  0.00  0.00    -0.461 OA
ATOM     26  C   UNL     1       5.073  -2.048  10.890  0.00  0.00    -0.097 C 
ATOM     27  C   UNL     1       5.189  -0.843   9.972  0.00  0.00    +0.062 C 
ATOM     28  C   UNL     1       5.820  -1.638  12.202  0.00  0.00    +0.054 C 
ATOM     29  C   UNL     1       2.640  -2.508   8.971  0.00  0.00    +0.048 C 
ATOM     30  C   UNL     1       1.757  -3.367   8.037  0.00  0.00    +0.051 C 
ATOM     31  C   UNL     1       1.644  -2.619   6.735  0.00  0.00    +0.022 C 
ATOM     32  C   UNL     1       1.706  -1.184   6.794  0.00  0.00    -0.025 C 
ATOM     33  C   UNL     1       3.206  -0.760   6.745  0.00  0.00    +0.024 C 
ATOM     34  C   UNL     1       0.941   1.539   4.430  0.00  0.00    +0.503 C 
ATOM     35  O   UNL     1       1.085   2.240   3.454  0.00  0.00    -0.453 OA
ENDROOT
BRANCH  16  17
ATOM     17  O   UNL     1       1.974  -1.140  12.669  0.00  0.00    -0.542 OA
ATOM     18  H   UNL     1       1.500  -0.337  12.924  0.00  0.00    +0.384 HD
ENDBRANCH  16  17
BRANCH   7   6
ATOM      6  C   UNL     1       0.775  -0.729   3.354  0.00  0.00    +0.057 C 
BRANCH   6   5
ATOM      5  C   UNL     1       1.390  -0.373   1.999  0.00  0.00    +0.055 C 
BRANCH   5   4
ATOM      1  C   UNL     1       0.189   0.828  -0.248  0.00  0.00    +0.074 C 
ATOM      2  C   UNL     1       0.213  -0.673  -0.119  0.00  0.00    -0.128 C 
ATOM      3  C   UNL     1      -0.405  -1.532  -1.192  0.00  0.00    +0.072 C 
ATOM      4  C   UNL     1       0.771  -1.232   0.926  0.00  0.00    -0.065 C 
ENDBRANCH   5   4
ENDBRANCH   6   5
ENDBRANCH   7   6
TORSDOF 4
