REMARK  Name = ZINC13411309
REMARK  2 active torsions:
REMARK  status: ('A' for Active; 'I' for Inactive)
REMARK    1  A    between atoms: C1_1  and  N1_2
REMARK    2  A    between atoms: C11_13  and  O1_21
REMARK                            x       y       z     vdW  Elec       q    Type
REMARK                         _______ _______ _______ _____ _____    ______ ____
ROOT
ATOM      1  C   UNL     1      -0.018   1.461   0.010  0.00  0.00    +0.361 C 
ATOM      2  N   UNL     1       0.002  -0.004   0.002  0.00  0.00    -0.525 N 
ATOM      3  C   UNL     1       0.009  -0.835  -1.136  0.00  0.00    +0.114 A 
ATOM      4  C   UNL     1       0.443  -0.612  -2.435  0.00  0.00    +0.029 A 
ATOM      5  C   UNL     1       0.332  -1.608  -3.384  0.00  0.00    +0.074 A 
ATOM      6  C   UNL     1      -0.213  -2.834  -3.049  0.00  0.00    +0.032 A 
ATOM      7  C   UNL     1      -0.648  -3.067  -1.755  0.00  0.00    +0.078 A 
ATOM      8  C   UNL     1      -0.539  -2.083  -0.805  0.00  0.00    -0.168 A 
ATOM      9  C   UNL     1      -0.880  -1.967   0.652  0.00  0.00    +0.294 C 
ATOM     10  N   UNL     1      -1.028  -3.285   1.246  0.00  0.00    -0.653 N 
ATOM     11  H   UNL     1      -1.648  -3.892   0.813  0.00  0.00    +0.436 HD
ATOM     12  C   UNL     1      -0.376  -3.737   2.329  0.00  0.00    +0.346 A 
ATOM     13  C   UNL     1      -0.615  -5.109   2.552  0.00  0.00    -0.082 A 
ATOM     14  C   UNL     1      -0.040  -5.723   3.622  0.00  0.00    +0.181 A 
ATOM     15  C   UNL     1       0.783  -5.027   4.504  0.00  0.00    -0.048 A 
ATOM     16  C   UNL     1       1.055  -3.704   4.340  0.00  0.00    +0.163 A 
ATOM     17  C   UNL     1       0.495  -3.005   3.254  0.00  0.00    -0.235 A 
ATOM     18  C   UNL     1       0.892  -1.654   3.248  0.00  0.00    +0.430 C 
ATOM     21  C   UNL     1       0.691  -0.681   2.253  0.00  0.00    -0.178 C 
ATOM     22  C   UNL     1       0.024  -0.821   1.095  0.00  0.00    +0.340 C 
ENDROOT
BRANCH  18  19
ATOM     19  O   UNL     1       1.557  -1.236   4.347  0.00  0.00    -0.422 OA
ATOM     20  H   UNL     1       1.819  -0.306   4.319  0.00  0.00    +0.433 HD
ENDBRANCH  18  19
TORSDOF 1
