REMARK  Name = ZINC95485937
REMARK  10 active torsions:
REMARK  status: ('A' for Active; 'I' for Inactive)
REMARK    1  A    between atoms: C1_1  and  C2_2
REMARK    2  A    between atoms: C5_6  and  C32_40
REMARK    3  A    between atoms: C8_9  and  C31_39
REMARK    4  A    between atoms: C11_14  and  C12_16
REMARK    5  A    between atoms: C16_20  and  C30_38
REMARK    6  A    between atoms: C24_29  and  O1_34
REMARK    7  A    between atoms: C25_31  and  C26_32
REMARK    8  A    between atoms: C25_31  and  C27_33
REMARK    9  A    between atoms: O1_34  and  C28_35
REMARK   10  A    between atoms: C28_35  and  C29_37
REMARK                            x       y       z     vdW  Elec       q    Type
REMARK                         _______ _______ _______ _____ _____    ______ ____
ROOT
ATOM      1  C   UNL     1      -0.893   0.819   0.786  0.00  0.00    +0.007 C 
ATOM      2  C   UNL     1      -0.540  -0.658   0.575  0.00  0.00    -0.015 C 
ATOM      3  C   UNL     1      -1.825  -1.460   0.393  0.00  0.00    +0.004 C 
ATOM      4  C   UNL     1      -1.498  -2.944   0.239  0.00  0.00    +0.013 C 
ATOM      5  C   UNL     1      -0.767  -3.454   1.480  0.00  0.00    -0.043 C 
ATOM      6  C   UNL     1      -1.710  -3.364   2.690  0.00  0.00    +0.014 C 
ATOM      7  C   UNL     1      -0.467  -4.948   1.305  0.00  0.00    +0.005 C 
ATOM      8  C   UNL     1       0.521  -5.176   0.168  0.00  0.00    +0.011 C 
ATOM      9  C   UNL     1       1.827  -4.429   0.449  0.00  0.00    -0.023 C 
ATOM     10  C   UNL     1       2.414  -4.942   1.771  0.00  0.00    +0.024 C 
ATOM     11  C   UNL     1       1.532  -2.938   0.590  0.00  0.00    +0.006 C 
ATOM     12  C   UNL     1       2.824  -2.178   0.889  0.00  0.00    +0.010 C 
ATOM     13  C   UNL     1       3.822  -2.357  -0.252  0.00  0.00    +0.038 C 
ATOM     14  C   UNL     1       4.070  -3.847  -0.522  0.00  0.00    -0.080 C 
ATOM     15  C   UNL     1       5.243  -4.111  -1.483  0.00  0.00    -0.012 C 
ATOM     16  C   UNL     1       5.358  -4.478   0.013  0.00  0.00    -0.063 C 
ATOM     17  C   UNL     1       6.203  -3.539   0.874  0.00  0.00    +0.055 C 
ATOM     18  C   UNL     1       7.407  -4.194   1.500  0.00  0.00    +0.010 C 
ATOM     19  C   UNL     1       7.090  -5.529   2.134  0.00  0.00    +0.190 C 
ATOM     24  C   UNL     1       6.481  -6.509   1.154  0.00  0.00    -0.027 C 
ATOM     25  C   UNL     1       7.599  -7.027   0.240  0.00  0.00    +0.035 C 
ATOM     26  C   UNL     1       5.949  -7.698   1.954  0.00  0.00    +0.032 C 
ATOM     27  C   UNL     1       5.406  -5.955   0.290  0.00  0.00    -0.007 C 
ATOM     28  C   UNL     1       4.171  -6.754   0.080  0.00  0.00    +0.024 C 
ATOM     29  C   UNL     1       3.120  -6.167  -0.826  0.00  0.00    +0.011 C 
ATOM     30  C   UNL     1       2.819  -4.694  -0.689  0.00  0.00    +0.005 C 
ATOM     31  C   UNL     1       2.173  -4.253  -2.019  0.00  0.00    +0.013 C 
ATOM     32  C   UNL     1       0.511  -2.664   1.709  0.00  0.00    +0.016 C 
ATOM     33  C   UNL     1       0.276  -1.157   1.758  0.00  0.00    -0.021 C 
ATOM     34  C   UNL     1      -0.312  -0.681   3.081  0.00  0.00    +0.013 C 
ENDROOT
BRANCH  19  20
ATOM     20  O   UNL     1       6.175  -5.326   3.213  0.00  0.00    -0.336 OA
BRANCH  20  21
ATOM     21  C   UNL     1       6.703  -5.099   4.426  0.00  0.00    +0.455 C 
ATOM     22  C   UNL     1       5.799  -4.876   5.611  0.00  0.00    +0.149 C 
ATOM     23  O   UNL     1       7.902  -5.074   4.567  0.00  0.00    -0.516 OA
ENDBRANCH  20  21
ENDBRANCH  19  20
TORSDOF 2
