REMARK  Name = ZINC95485916
REMARK  8 active torsions:
REMARK  status: ('A' for Active; 'I' for Inactive)
REMARK    1  A    between atoms: C1_1  and  C2_2
REMARK    2  A    between atoms: C2_2  and  C19_24
REMARK    3  A    between atoms: C3_3  and  C4_4
REMARK    4  A    between atoms: C4_4  and  C5_5
REMARK    5  A    between atoms: C6_6  and  O5_23
REMARK    6  A    between atoms: C8_8  and  O4_22
REMARK    7  A    between atoms: C14_15  and  O3_20
REMARK    8  A    between atoms: O3_20  and  C18_21
REMARK                            x       y       z     vdW  Elec       q    Type
REMARK                         _______ _______ _______ _____ _____    ______ ____
ROOT
ATOM      6  C   UNL     1      -0.864  -0.562   3.381  0.00  0.00    -0.141 A 
ATOM      7  C   UNL     1      -2.182  -0.131   3.398  0.00  0.00    +0.197 A 
ATOM     10  C   UNL     1      -3.107  -0.708   4.260  0.00  0.00    -0.055 A 
ATOM     11  C   UNL     1      -2.718  -1.727   5.111  0.00  0.00    +0.216 A 
ATOM     14  C   UNL     1      -1.390  -2.171   5.092  0.00  0.00    -0.268 A 
ATOM     15  C   UNL     1      -0.944  -3.268   5.970  0.00  0.00    +0.439 A 
ATOM     16  O   UNL     1      -1.625  -3.674   6.894  0.00  0.00    -0.424 OA
ATOM     17  C   UNL     1       0.378  -3.855   5.646  0.00  0.00    -0.182 A 
ATOM     18  C   UNL     1       0.787  -5.061   6.212  0.00  0.00    +0.086 A 
ATOM     19  C   UNL     1       2.025  -5.582   5.885  0.00  0.00    +0.103 A 
ATOM     22  C   UNL     1       2.853  -4.903   4.997  0.00  0.00    +0.002 A 
ATOM     23  C   UNL     1       2.455  -3.709   4.437  0.00  0.00    +0.050 A 
ATOM     24  C   UNL     1       1.214  -3.166   4.755  0.00  0.00    +0.117 A 
ATOM     25  O   UNL     1       0.833  -1.993   4.208  0.00  0.00    -0.219 OA
ATOM     26  C   UNL     1      -0.452  -1.585   4.223  0.00  0.00    +0.197 A 
ENDROOT
BRANCH   7   8
ATOM      8  O   UNL     1      -2.573   0.865   2.563  0.00  0.00    -0.483 OA
ATOM      9  H   UNL     1      -2.889   0.556   1.703  0.00  0.00    +0.400 HD
ENDBRANCH   7   8
BRANCH  11  12
ATOM     12  O   UNL     1      -3.616  -2.291   5.957  0.00  0.00    -0.473 OA
ATOM     13  H   UNL     1      -4.085  -3.050   5.585  0.00  0.00    +0.401 HD
ENDBRANCH  11  12
BRANCH  19  20
ATOM     20  O   UNL     1       2.433  -6.759   6.431  0.00  0.00    -0.311 OA
ATOM     21  C   UNL     1       3.724  -7.238   6.048  0.00  0.00    +0.246 C 
ENDBRANCH  19  20
BRANCH   6   5
ATOM      5  C   UNL     1       0.123   0.078   2.439  0.00  0.00    +0.135 C 
BRANCH   5   4
ATOM      1  C   UNL     1      -0.187   1.489   0.017  0.00  0.00    +0.077 C 
ATOM      2  C   UNL     1      -0.082  -0.014   0.008  0.00  0.00    -0.125 C 
ATOM      3  C   UNL     1      -0.210  -0.771  -1.289  0.00  0.00    +0.073 C 
ATOM      4  C   UNL     1       0.121  -0.664   1.128  0.00  0.00    -0.057 C 
ENDBRANCH   5   4
ENDBRANCH   6   5
TORSDOF 5
