REMARK  Name = ZINC15250727
REMARK  6 active torsions:
REMARK  status: ('A' for Active; 'I' for Inactive)
REMARK    1  A    between atoms: C1_1  and  C2_2
REMARK    2  A    between atoms: C2_2  and  C20_26
REMARK    3  A    between atoms: C6_6  and  C19_25
REMARK    4  A    between atoms: C10_11  and  C18_23
REMARK    5  A    between atoms: C14_16  and  C17_21
REMARK    6  A    between atoms: C16_18  and  O1_20
REMARK                            x       y       z     vdW  Elec       q    Type
REMARK                         _______ _______ _______ _____ _____    ______ ____
ROOT
ATOM      1  C   UNL     1      -0.713   4.730  -2.755  0.00  0.00    +0.011 C 
ATOM      2  C   UNL     1       0.570   3.863  -2.662  0.00  0.00    -0.047 C 
ATOM      3  C   UNL     1       1.729   4.740  -3.140  0.00  0.00    +0.021 C 
ATOM      4  C   UNL     1       0.368   2.700  -3.629  0.00  0.00    +0.011 C 
ATOM      5  C   UNL     1       1.302   1.528  -3.360  0.00  0.00    +0.003 C 
ATOM      6  C   UNL     1       1.164   1.088  -1.900  0.00  0.00    +0.023 C 
ATOM      7  C   UNL     1       1.642   2.235  -0.990  0.00  0.00    -0.038 C 
ATOM      8  C   UNL     1       3.096   2.514  -1.374  0.00  0.00    +0.027 C 
ATOM      9  C   UNL     1       1.538   1.799   0.482  0.00  0.00    +0.039 C 
ATOM     10  C   UNL     1       0.139   1.194   0.678  0.00  0.00    +0.061 C 
ATOM     11  C   UNL     1       0.156   0.156   1.776  0.00  0.00    +0.062 C 
ATOM     12  C   UNL     1       0.107   0.566   3.027  0.00  0.00    -0.225 C 
ATOM     15  C   UNL     1       0.173   2.057   3.297  0.00  0.00    +0.065 C 
ATOM     16  C   UNL     1       1.569   2.529   2.937  0.00  0.00    +0.185 C 
ATOM     19  C   UNL     1       1.754   2.921   1.472  0.00  0.00    -0.096 C 
ATOM     22  C   UNL     1       0.905   4.146   1.150  0.00  0.00    +0.043 C 
ATOM     23  C   UNL     1       1.121   4.584  -0.304  0.00  0.00    +0.018 C 
ATOM     24  C   UNL     1       0.727   3.428  -1.222  0.00  0.00    +0.005 C 
ENDROOT
BRANCH  12  13
ATOM     13  C   UNL     1       0.052  -0.386   4.131  0.00  0.00    +0.474 C 
ATOM     14  O   UNL     1       0.009   0.014   5.275  0.00  0.00    -0.458 OA
ENDBRANCH  12  13
BRANCH  16  17
ATOM     17  O   UNL     1       1.917   3.653   3.753  0.00  0.00    -0.565 OA
ATOM     18  H   UNL     1       1.914   3.466   4.702  0.00  0.00    +0.384 HD
ENDBRANCH  16  17
BRANCH  19  20
ATOM     20  C   UNL     1       3.203   3.369   1.452  0.00  0.00    +0.444 C 
ATOM     21  O   UNL     1       3.978   2.945   2.275  0.00  0.00    -0.448 OA
ENDBRANCH  19  20
TORSDOF 3
