REMARK  Name = ZINC95486323
REMARK  7 active torsions:
REMARK  status: ('A' for Active; 'I' for Inactive)
REMARK    1  A    between atoms: C1_1  and  C2_2
REMARK    2  A    between atoms: C3_3  and  O7_28
REMARK    3  A    between atoms: C5_6  and  C7_9
REMARK    4  A    between atoms: C8_10  and  O6_27
REMARK    5  A    between atoms: C12_14  and  O3_15
REMARK    6  A    between atoms: C15_19  and  C16_21
REMARK    7  A    between atoms: O7_28  and  C22_29
REMARK                            x       y       z     vdW  Elec       q    Type
REMARK                         _______ _______ _______ _____ _____    ______ ____
ROOT
ATOM      8  C   UNL     1       0.945  -3.742   0.484  0.00  0.00    -0.115 A 
ATOM      9  C   UNL     1       0.998  -4.607  -0.617  0.00  0.00    +0.210 A 
ATOM     12  C   UNL     1       1.328  -5.940  -0.448  0.00  0.00    -0.023 A 
ATOM     13  C   UNL     1       1.611  -6.434   0.817  0.00  0.00    +0.189 A 
ATOM     14  C   UNL     1       1.560  -5.573   1.928  0.00  0.00    -0.263 A 
ATOM     15  C   UNL     1       1.865  -6.124   3.259  0.00  0.00    +0.424 A 
ATOM     16  C   UNL     1       2.192  -7.500   3.335  0.00  0.00    -0.146 A 
ATOM     17  C   UNL     1       2.213  -8.247   2.200  0.00  0.00    +0.208 A 
ATOM     24  O   UNL     1       1.836  -5.423   4.257  0.00  0.00    -0.452 OA
ATOM     25  O   UNL     1       1.933  -7.734   0.992  0.00  0.00    -0.217 OA
ATOM     26  C   UNL     1       1.233  -4.223   1.760  0.00  0.00    +0.238 A 
ENDROOT
BRANCH   8   7
ATOM      1  C   UNL     1      -0.304   1.815  -0.280  0.00  0.00    +0.186 C 
ATOM      2  C   UNL     1      -0.033   0.347  -0.072  0.00  0.00    +0.117 A 
ATOM      3  C   UNL     1      -1.070  -0.486   0.166  0.00  0.00    -0.086 A 
ATOM      6  C   UNL     1      -0.809  -1.869   0.362  0.00  0.00    +0.394 A 
ATOM      7  C   UNL     1       0.590  -2.315   0.291  0.00  0.00    -0.216 A 
ATOM     29  C   UNL     1       1.551  -1.383   0.044  0.00  0.00    +0.328 A 
ATOM     30  O   UNL     1      -1.715  -2.659   0.580  0.00  0.00    -0.466 OA
ATOM     31  O   UNL     1       1.227  -0.098  -0.134  0.00  0.00    -0.197 OA
BRANCH   3   4
ATOM      4  O   UNL     1      -2.343  -0.007   0.219  0.00  0.00    -0.301 OA
ATOM      5  C   UNL     1      -3.008  -0.072   1.482  0.00  0.00    +0.231 C 
ENDBRANCH   3   4
ENDBRANCH   8   7
BRANCH  17  18
ATOM     18  C   UNL     1       2.557  -9.680   2.300  0.00  0.00    -0.075 A 
ATOM     19  C   UNL     1       2.848 -10.247   3.543  0.00  0.00    +0.056 A 
ATOM     20  C   UNL     1       3.168 -11.586   3.629  0.00  0.00    +0.014 A 
ATOM     21  C   UNL     1       3.202 -12.367   2.487  0.00  0.00    +0.038 A 
ATOM     22  C   UNL     1       2.915 -11.812   1.253  0.00  0.00    +0.010 A 
ATOM     23  C   UNL     1       2.588 -10.476   1.153  0.00  0.00    +0.056 A 
ENDBRANCH  17  18
BRANCH   9  10
ATOM     10  O   UNL     1       0.722  -4.134  -1.859  0.00  0.00    -0.478 OA
ATOM     11  H   UNL     1       1.496  -3.800  -2.333  0.00  0.00    +0.401 HD
ENDBRANCH   9  10
BRANCH  26  27
ATOM     27  O   UNL     1       1.190  -3.391   2.831  0.00  0.00    -0.469 OA
ATOM     28  H   UNL     1       0.324  -3.346   3.260  0.00  0.00    +0.404 HD
ENDBRANCH  26  27
TORSDOF 5
