REMARK  Name = ZINC95486372
REMARK  18 active torsions:
REMARK  status: ('A' for Active; 'I' for Inactive)
REMARK    1  A    between atoms: C1_1  and  C2_2
REMARK    2  A    between atoms: C2_2  and  C3_3
REMARK    3  A    between atoms: C3_3  and  C4_4
REMARK    4  A    between atoms: C3_3  and  C6_6
REMARK    5  A    between atoms: C4_4  and  C5_5
REMARK    6  A    between atoms: C6_6  and  C7_7
REMARK    7  A    between atoms: C7_7  and  C8_8
REMARK    8  A    between atoms: C8_8  and  C9_9
REMARK    9  A    between atoms: C9_9  and  C10_11
REMARK   10  A    between atoms: C9_9  and  C11_12
REMARK   11  A    between atoms: C15_18  and  C35_51
REMARK   12  A    between atoms: C27_31  and  O1_34
REMARK   13  A    between atoms: O1_34  and  C29_35
REMARK   14  A    between atoms: C30_37  and  O6_50
REMARK   15  A    between atoms: C31_39  and  O5_49
REMARK   16  A    between atoms: C32_41  and  O4_48
REMARK   17  A    between atoms: C33_43  and  C34_46
REMARK   18  A    between atoms: C34_46  and  O3_47
REMARK                            x       y       z     vdW  Elec       q    Type
REMARK                         _______ _______ _______ _____ _____    ______ ____
ROOT
ATOM      8  C   UNL     1      -0.363  -5.479   3.878  0.00  0.00    -0.009 C 
ATOM      9  C   UNL     1      -1.861  -5.823   4.078  0.00  0.00    +0.003 C 
ATOM     10  C   UNL     1      -1.971  -6.518   5.465  0.00  0.00    +0.012 C 
ATOM     11  C   UNL     1      -0.522  -6.975   5.718  0.00  0.00    +0.001 C 
ATOM     12  C   UNL     1      -0.198  -7.401   7.113  0.00  0.00    +0.027 C 
ATOM     13  C   UNL     1      -1.116  -6.939   8.230  0.00  0.00    +0.069 C 
ATOM     14  C   UNL     1      -0.675  -7.632   9.502  0.00  0.00    -0.059 C 
ATOM     15  C   UNL     1       0.595  -7.804   9.800  0.00  0.00    -0.076 C 
ATOM     16  C   UNL     1       1.674  -7.276   8.880  0.00  0.00    -0.078 C 
ATOM     17  C   UNL     1       3.099  -7.763   9.103  0.00  0.00    +0.065 C 
ATOM     18  C   UNL     1       3.329  -8.088  10.578  0.00  0.00    +0.033 C 
ATOM     19  C   UNL     1       2.317  -9.156  11.003  0.00  0.00    +0.166 C 
ATOM     36  C   UNL     1       1.470  -5.824   8.429  0.00  0.00    +0.030 C 
ATOM     37  C   UNL     1       0.932  -8.519  11.081  0.00  0.00    +0.067 C 
ATOM     38  C   UNL     1       1.242  -6.976   7.448  0.00  0.00    -0.091 C 
ATOM     39  C   UNL     1       2.190  -7.026   6.255  0.00  0.00    +0.051 C 
ATOM     40  C   UNL     1       1.761  -5.951   5.244  0.00  0.00    +0.028 C 
ATOM     41  C   UNL     1       0.271  -5.737   5.261  0.00  0.00    -0.045 C 
ATOM     42  C   UNL     1      -0.059  -4.517   6.126  0.00  0.00    +0.018 C 
ENDROOT
BRANCH   8   7
ATOM      7  C   UNL     1      -0.202  -4.008   3.499  0.00  0.00    -0.008 C 
ATOM     43  C   UNL     1       1.286  -3.665   3.407  0.00  0.00    +0.010 C 
BRANCH   7   6
ATOM      6  C   UNL     1      -0.868  -3.755   2.144  0.00  0.00    +0.003 C 
BRANCH   6   5
ATOM      5  C   UNL     1      -0.816  -2.260   1.822  0.00  0.00    +0.002 C 
BRANCH   5   4
ATOM      4  C   UNL     1      -1.482  -2.007   0.468  0.00  0.00    +0.005 C 
BRANCH   4   3
ATOM      3  C   UNL     1      -1.430  -0.513   0.145  0.00  0.00    -0.020 C 
BRANCH   3   2
ATOM      1  C   UNL     1       0.089   1.438  -0.217  0.00  0.00    +0.004 C 
ATOM      2  C   UNL     1       0.027  -0.080  -0.033  0.00  0.00    +0.002 C 
ENDBRANCH   3   2
BRANCH   3  44
ATOM     44  C   UNL     1      -2.204  -0.242  -1.147  0.00  0.00    +0.001 C 
ATOM     45  C   UNL     1      -3.688  -0.543  -0.925  0.00  0.00    +0.005 C 
ENDBRANCH   3  44
ENDBRANCH   4   3
ENDBRANCH   5   4
ENDBRANCH   6   5
ENDBRANCH   7   6
ENDBRANCH   8   7
BRANCH  19  20
ATOM     20  O   UNL     1       2.679  -9.675  12.285  0.00  0.00    -0.360 OA
BRANCH  20  21
ATOM     21  C   UNL     1       2.295 -11.036  12.490  0.00  0.00    +0.292 C 
ATOM     22  C   UNL     1       2.838 -11.522  13.837  0.00  0.00    +0.142 C 
ATOM     25  C   UNL     1       2.373 -12.961  14.077  0.00  0.00    +0.161 C 
ATOM     28  C   UNL     1       0.843 -13.008  14.017  0.00  0.00    +0.170 C 
ATOM     31  C   UNL     1       0.377 -12.465  12.663  0.00  0.00    +0.190 C 
ATOM     35  O   UNL     1       0.870 -11.135  12.490  0.00  0.00    -0.375 OA
BRANCH  22  23
ATOM     23  O   UNL     1       4.267 -11.478  13.819  0.00  0.00    -0.556 OA
ATOM     24  H   UNL     1       4.631 -10.595  13.667  0.00  0.00    +0.395 HD
ENDBRANCH  22  23
BRANCH  25  26
ATOM     26  O   UNL     1       2.815 -13.398  15.364  0.00  0.00    -0.556 OA
ATOM     27  H   UNL     1       3.776 -13.388  15.473  0.00  0.00    +0.395 HD
ENDBRANCH  25  26
BRANCH  28  29
ATOM     29  O   UNL     1       0.400 -14.358  14.169  0.00  0.00    -0.551 OA
ATOM     30  H   UNL     1       0.664 -14.767  15.005  0.00  0.00    +0.395 HD
ENDBRANCH  28  29
BRANCH  31  32
ATOM     32  C   UNL     1      -1.153 -12.452  12.618  0.00  0.00    +0.223 C 
BRANCH  32  33
ATOM     33  O   UNL     1      -1.587 -12.056  11.316  0.00  0.00    -0.565 OA
ATOM     34  H   UNL     1      -2.549 -12.026  11.214  0.00  0.00    +0.384 HD
ENDBRANCH  32  33
ENDBRANCH  31  32
ENDBRANCH  20  21
ENDBRANCH  19  20
TORSDOF 14
