REMARK  Name = ZINC13429387
REMARK  10 active torsions:
REMARK  status: ('A' for Active; 'I' for Inactive)
REMARK    1  A    between atoms: C1_1  and  N1_2
REMARK    2  A    between atoms: C11_13  and  O5_21
REMARK    3  A    between atoms: C11_13  and  O6_23
REMARK    4  A    between atoms: C12_14  and  C13_15
REMARK    5  A    between atoms: C12_14  and  O4_19
REMARK    6  A    between atoms: C13_15  and  O3_17
REMARK    7  A    between atoms: O3_17  and  C14_18
REMARK    8  A    between atoms: O4_19  and  C15_20
REMARK    9  A    between atoms: O5_21  and  C16_22
REMARK   10  A    between atoms: O6_23  and  C17_24
REMARK                            x       y       z     vdW  Elec       q    Type
REMARK                         _______ _______ _______ _____ _____    ______ ____
ROOT
ATOM      1  C   UNL     1      -0.194   4.207  -0.331  0.00  0.00    +0.309 C 
ATOM      2  N   UNL     1      -0.634   2.810  -0.364  0.00  0.00    -0.472 N 
ATOM      3  C   UNL     1      -1.972   2.537  -0.517  0.00  0.00    +0.197 A 
ATOM      4  C   UNL     1      -2.908   3.561  -0.645  0.00  0.00    -0.033 A 
ATOM      5  C   UNL     1      -4.241   3.252  -0.801  0.00  0.00    +0.087 A 
ATOM      6  C   UNL     1      -4.664   1.931  -0.832  0.00  0.00    -0.016 A 
ATOM      7  C   UNL     1      -3.763   0.910  -0.708  0.00  0.00    +0.121 A 
ATOM      8  C   UNL     1      -2.408   1.201  -0.549  0.00  0.00    -0.185 A 
ATOM      9  C   UNL     1      -1.402   0.136  -0.412  0.00  0.00    +0.446 A 
ATOM     10  C   UNL     1      -0.043   0.519  -0.255  0.00  0.00    -0.264 A 
ATOM     11  C   UNL     1       1.375   0.047  -0.077  0.00  0.00    +0.234 C 
ATOM     18  C   UNL     1       1.764   1.517  -0.052  0.00  0.00    +0.320 C 
ATOM     23  O   UNL     1      -1.725  -1.041  -0.433  0.00  0.00    -0.469 OA
ATOM     24  C   UNL     1       0.296   1.820  -0.233  0.00  0.00    +0.124 A 
ENDROOT
BRANCH  11  12
ATOM     12  O   UNL     1       1.605  -0.631   1.160  0.00  0.00    -0.323 OA
ATOM     13  C   UNL     1       2.969  -0.994   1.379  0.00  0.00    +0.231 C 
ENDBRANCH  11  12
BRANCH  11  14
ATOM     14  C   UNL     1       1.918  -0.703  -1.267  0.00  0.00    +0.460 C 
ATOM     17  O   UNL     1       2.132  -0.118  -2.303  0.00  0.00    -0.460 OA
BRANCH  14  15
ATOM     15  O   UNL     1       2.162  -2.019  -1.176  0.00  0.00    -0.342 OA
ATOM     16  C   UNL     1       2.684  -2.676  -2.361  0.00  0.00    +0.270 C 
ENDBRANCH  14  15
ENDBRANCH  11  14
BRANCH  18  19
ATOM     19  O   UNL     1       2.288   1.951   1.204  0.00  0.00    -0.343 OA
ATOM     20  C   UNL     1       2.019   3.321   1.505  0.00  0.00    +0.224 C 
ENDBRANCH  18  19
BRANCH  18  21
ATOM     21  O   UNL     1       2.573   1.916  -1.161  0.00  0.00    -0.331 OA
ATOM     22  C   UNL     1       2.615   3.329  -1.372  0.00  0.00    +0.215 C 
ENDBRANCH  18  21
TORSDOF 5
