REMARK  Name = ZINC95486009
REMARK  3 active torsions:
REMARK  status: ('A' for Active; 'I' for Inactive)
REMARK    1  A    between atoms: C6_6  and  O1_7
REMARK    2  A    between atoms: C16_22  and  C18_25
REMARK    3  A    between atoms: C18_25  and  O5_26
REMARK                            x       y       z     vdW  Elec       q    Type
REMARK                         _______ _______ _______ _____ _____    ______ ____
ROOT
ATOM      1  C   UNL     1      -0.017   1.380   0.010  0.00  0.00    -0.035 A 
ATOM      2  C   UNL     1       1.160   2.119   0.002  0.00  0.00    +0.096 A 
ATOM      3  C   UNL     1       2.346   1.421  -0.009  0.00  0.00    -0.163 A 
ATOM      4  C   UNL     1       2.378   0.009  -0.004  0.00  0.00    +0.116 A 
ATOM      5  O   UNL     1       3.662  -0.450   0.025  0.00  0.00    -0.280 OA
ATOM      6  C   UNL     1       4.439   0.585   0.613  0.00  0.00    +0.227 C 
ATOM      7  C   UNL     1       5.878   0.717   0.236  0.00  0.00    -0.196 A 
ATOM      8  C   UNL     1       6.628  -0.332  -0.250  0.00  0.00    +0.142 A 
ATOM      9  C   UNL     1       7.944  -0.064  -0.571  0.00  0.00    -0.213 A 
ATOM     10  C   UNL     1       8.505   1.208  -0.413  0.00  0.00    +0.151 A 
ATOM     11  O   UNL     1       9.805   1.220  -0.776  0.00  0.00    -0.284 OA
ATOM     12  C   UNL     1      10.080   0.066  -1.595  0.00  0.00    +0.178 C 
ATOM     16  C   UNL     1       7.724   2.283   0.062  0.00  0.00    -0.014 A 
ATOM     17  C   UNL     1       9.018  -0.960  -1.124  0.00  0.00    +0.093 C 
ATOM     18  C   UNL     1       6.402   2.013   0.404  0.00  0.00    +0.181 A 
ATOM     19  O   UNL     1       5.635   3.007   0.920  0.00  0.00    -0.321 OA
ATOM     20  C   UNL     1       4.211   3.034   0.778  0.00  0.00    +0.278 C 
ATOM     21  C   UNL     1       1.196  -0.719  -0.006  0.00  0.00    -0.012 A 
ATOM     22  C   UNL     1       3.767   1.845  -0.037  0.00  0.00    -0.016 C 
ATOM     23  C   UNL     1       0.002  -0.004   0.002  0.00  0.00    +0.143 A 
ENDROOT
BRANCH  23  24
ATOM     24  O   UNL     1      -1.176  -0.682   0.002  0.00  0.00    -0.497 OA
ATOM     25  H   UNL     1      -1.520  -0.873  -0.881  0.00  0.00    +0.396 HD
ENDBRANCH  23  24
BRANCH  12  13
ATOM     13  C   UNL     1      11.495  -0.456  -1.336  0.00  0.00    +0.210 C 
BRANCH  13  14
ATOM     14  O   UNL     1      12.448   0.509  -1.785  0.00  0.00    -0.566 OA
ATOM     15  H   UNL     1      13.368   0.244  -1.651  0.00  0.00    +0.385 HD
ENDBRANCH  13  14
ENDBRANCH  12  13
TORSDOF 3
