REMARK  Name = ZINC06091807
REMARK  8 active torsions:
REMARK  status: ('A' for Active; 'I' for Inactive)
REMARK    1  A    between atoms: C3_3  and  O4_21
REMARK    2  A    between atoms: C4_4  and  O3_20
REMARK    3  A    between atoms: C6_6  and  C7_7
REMARK    4  A    between atoms: C8_8  and  C9_9
REMARK    5  A    between atoms: C9_9  and  C10_10
REMARK    6  A    between atoms: C11_11  and  C12_12
REMARK    7  A    between atoms: C15_15  and  O2_19
REMARK    8  A    between atoms: C16_16  and  O1_18
REMARK                            x       y       z     vdW  Elec       q    Type
REMARK                         _______ _______ _______ _____ _____    ______ ____
ROOT
ATOM     13  C   UNL     1      -3.718  -0.889   0.034  0.00  0.00    +0.225 C 
ENDROOT
BRANCH  13  12
ATOM     11  C   UNL     1      -1.267  -0.762   0.011  0.00  0.00    +0.014 C 
ATOM     12  C   UNL     1      -2.425  -0.116   0.026  0.00  0.00    -0.019 C 
BRANCH  11  10
ATOM      1  C   UNL     1      -0.017   1.391   0.010  0.00  0.00    +0.026 A 
ATOM      2  C   UNL     1       1.169   2.097   0.002  0.00  0.00    +0.009 A 
ATOM      3  C   UNL     1       2.380   1.424  -0.013  0.00  0.00    +0.081 A 
ATOM      6  C   UNL     1       2.406   0.031  -0.021  0.00  0.00    +0.083 A 
ATOM      9  C   UNL     1       1.222  -0.683  -0.014  0.00  0.00    +0.017 A 
ATOM     10  C   UNL     1       0.002  -0.004   0.002  0.00  0.00    -0.048 A 
BRANCH   3   4
ATOM      4  O   UNL     1       3.546   2.124  -0.020  0.00  0.00    -0.488 OA
ATOM      5  H   UNL     1       3.891   2.321   0.861  0.00  0.00    +0.388 HD
ENDBRANCH   3   4
BRANCH   6   7
ATOM      7  O   UNL     1       3.596  -0.627  -0.037  0.00  0.00    -0.487 OA
ATOM      8  H   UNL     1       3.949  -0.823   0.842  0.00  0.00    +0.389 HD
ENDBRANCH   6   7
ENDBRANCH  11  10
ENDBRANCH  13  12
BRANCH  13  14
ATOM     14  C   UNL     1      -4.536  -0.463   1.182  0.00  0.00    -0.140 C 
ATOM     15  C   UNL     1      -5.189  -0.123   2.097  0.00  0.00    -0.146 C 
BRANCH  15  16
ATOM     16  C   UNL     1      -5.985   0.291   3.213  0.00  0.00    +0.027 A 
ATOM     17  C   UNL     1      -5.513   1.277   4.080  0.00  0.00    +0.047 A 
ATOM     18  C   UNL     1      -6.281   1.675   5.155  0.00  0.00    +0.013 A 
ATOM     19  C   UNL     1      -7.522   1.097   5.377  0.00  0.00    +0.089 A 
ATOM     22  C   UNL     1      -7.998   0.112   4.515  0.00  0.00    +0.084 A 
ATOM     25  C   UNL     1      -7.236  -0.287   3.432  0.00  0.00    +0.029 A 
BRANCH  19  20
ATOM     20  O   UNL     1      -8.275   1.492   6.437  0.00  0.00    -0.486 OA
ATOM     21  H   UNL     1      -8.872   2.228   6.244  0.00  0.00    +0.390 HD
ENDBRANCH  19  20
BRANCH  22  23
ATOM     23  O   UNL     1      -9.215  -0.454   4.735  0.00  0.00    -0.485 OA
ATOM     24  H   UNL     1      -9.946   0.003   4.299  0.00  0.00    +0.390 HD
ENDBRANCH  22  23
ENDBRANCH  15  16
ENDBRANCH  13  14
TORSDOF 8
