REMARK  Name = ZINC06018688
REMARK  10 active torsions:
REMARK  status: ('A' for Active; 'I' for Inactive)
REMARK    1  A    between atoms: C1_1  and  O1_2
REMARK    2  A    between atoms: O1_2  and  C2_3
REMARK    3  A    between atoms: C5_6  and  C9_11
REMARK    4  A    between atoms: C7_8  and  O2_9
REMARK    5  A    between atoms: O2_9  and  C8_10
REMARK    6  A    between atoms: C15_19  and  O7_25
REMARK    7  A    between atoms: C16_20  and  O6_23
REMARK    8  A    between atoms: C17_21  and  O5_22
REMARK    9  A    between atoms: O6_23  and  C18_24
REMARK   10  A    between atoms: O7_25  and  C19_26
REMARK                            x       y       z     vdW  Elec       q    Type
REMARK                         _______ _______ _______ _____ _____    ______ ____
ROOT
ATOM      7  C   UNL     1      -0.016   1.356   0.009  0.00  0.00    +0.210 A 
ATOM      8  C   UNL     1       0.002  -0.004   0.002  0.00  0.00    -0.145 A 
ATOM      9  C   UNL     1       1.242  -0.685  -0.014  0.00  0.00    +0.426 A 
ATOM     10  C   UNL     1       2.466   0.135  -0.021  0.00  0.00    -0.280 A 
ATOM     11  C   UNL     1       2.335   1.535  -0.012  0.00  0.00    +0.203 A 
ATOM     12  C   UNL     1       3.473   2.326  -0.018  0.00  0.00    -0.082 A 
ATOM     13  C   UNL     1       4.728   1.738  -0.033  0.00  0.00    +0.191 A 
ATOM     16  C   UNL     1       4.862   0.351  -0.042  0.00  0.00    +0.007 A 
ATOM     19  C   UNL     1       3.735  -0.455  -0.035  0.00  0.00    +0.224 A 
ATOM     22  O   UNL     1       1.296  -1.904  -0.020  0.00  0.00    -0.455 OA
ATOM     23  O   UNL     1       1.105   2.093   0.003  0.00  0.00    -0.219 OA
ENDROOT
BRANCH   7   6
ATOM      3  C   UNL     1      -3.772   3.343   0.037  0.00  0.00    +0.131 A 
ATOM      4  C   UNL     1      -3.721   1.956   0.029  0.00  0.00    -0.029 A 
ATOM      5  C   UNL     1      -2.505   1.308   0.015  0.00  0.00    +0.073 A 
ATOM      6  C   UNL     1      -1.319   2.048   0.019  0.00  0.00    -0.074 A 
ATOM     24  C   UNL     1      -1.371   3.445   0.027  0.00  0.00    +0.012 A 
ATOM     25  C   UNL     1      -2.594   4.087   0.036  0.00  0.00    +0.097 A 
BRANCH   3   2
ATOM      1  C   UNL     1      -6.142   3.154   0.045  0.00  0.00    +0.246 C 
ATOM      2  O   UNL     1      -4.974   3.977   0.045  0.00  0.00    -0.300 OA
ENDBRANCH   3   2
BRANCH  25  26
ATOM     26  O   UNL     1      -2.648   5.446   0.044  0.00  0.00    -0.302 OA
ATOM     27  C   UNL     1      -1.401   6.145   0.043  0.00  0.00    +0.242 C 
ENDBRANCH  25  26
ENDBRANCH   7   6
BRANCH  13  14
ATOM     14  O   UNL     1       5.838   2.522  -0.039  0.00  0.00    -0.290 OA
ATOM     15  C   UNL     1       5.634   3.936  -0.029  0.00  0.00    +0.254 C 
ENDBRANCH  13  14
BRANCH  16  17
ATOM     17  O   UNL     1       6.101  -0.212  -0.057  0.00  0.00    -0.312 OA
ATOM     18  C   UNL     1       6.704  -0.488   1.209  0.00  0.00    +0.228 C 
ENDBRANCH  16  17
BRANCH  19  20
ATOM     20  O   UNL     1       3.861  -1.808  -0.044  0.00  0.00    -0.464 OA
ATOM     21  H   UNL     1       3.890  -2.194  -0.930  0.00  0.00    +0.406 HD
ENDBRANCH  19  20
TORSDOF 6
