REMARK  Name = ZINC95485932
REMARK  11 active torsions:
REMARK  status: ('A' for Active; 'I' for Inactive)
REMARK    1  A    between atoms: C1_1  and  C2_2
REMARK    2  A    between atoms: C2_2  and  C3_3
REMARK    3  A    between atoms: C3_3  and  C4_5
REMARK    4  A    between atoms: C3_3  and  C5_6
REMARK    5  A    between atoms: C5_6  and  C6_7
REMARK    6  A    between atoms: C7_8  and  C8_9
REMARK    7  A    between atoms: C8_9  and  C9_11
REMARK    8  A    between atoms: C8_9  and  C10_12
REMARK    9  A    between atoms: C14_18  and  C28_36
REMARK   10  A    between atoms: C22_28  and  C27_35
REMARK   11  A    between atoms: C25_31  and  O1_34
REMARK                            x       y       z     vdW  Elec       q    Type
REMARK                         _______ _______ _______ _____ _____    ______ ____
ROOT
ATOM      8  C   UNL     1       1.303  -3.452   5.679  0.00  0.00    +0.012 C 
ATOM      9  C   UNL     1       1.026  -1.988   6.079  0.00  0.00    +0.008 C 
ATOM     10  C   UNL     1       1.735  -1.762   7.432  0.00  0.00    +0.003 C 
ATOM     11  C   UNL     1       1.838  -3.190   8.043  0.00  0.00    +0.002 C 
ATOM     12  C   UNL     1       0.451  -3.534   8.591  0.00  0.00    +0.002 C 
ATOM     13  C   UNL     1      -0.613  -3.150   7.557  0.00  0.00    +0.069 C 
ATOM     14  C   UNL     1      -1.962  -3.570   8.066  0.00  0.00    -0.058 C 
ATOM     15  C   UNL     1      -2.132  -4.546   8.909  0.00  0.00    -0.109 C 
ATOM     16  C   UNL     1      -1.022  -5.367   9.446  0.00  0.00    -0.013 C 
ATOM     17  C   UNL     1      -0.964  -5.092  10.950  0.00  0.00    +0.021 C 
ATOM     18  C   UNL     1      -1.335  -6.854   9.256  0.00  0.00    +0.036 C 
ATOM     19  C   UNL     1      -2.716  -7.161   9.838  0.00  0.00    +0.021 C 
ATOM     20  C   UNL     1      -3.783  -6.377   9.074  0.00  0.00    +0.168 C 
ATOM     23  C   UNL     1      -3.548  -4.880   9.346  0.00  0.00    +0.031 C 
ATOM     24  C   UNL     1       0.335  -5.039   8.848  0.00  0.00    +0.006 C 
ATOM     25  C   UNL     1       0.517  -5.787   7.523  0.00  0.00    +0.014 C 
ATOM     26  C   UNL     1       1.931  -5.517   7.008  0.00  0.00    +0.015 C 
ATOM     27  C   UNL     1       2.169  -4.039   6.801  0.00  0.00    -0.046 C 
ATOM     28  C   UNL     1       3.644  -3.840   6.444  0.00  0.00    +0.017 C 
ENDROOT
BRANCH   8   7
ATOM      7  C   UNL     1       2.058  -3.502   4.349  0.00  0.00    +0.019 C 
ATOM     29  C   UNL     1       2.258  -4.960   3.932  0.00  0.00    +0.020 C 
BRANCH   7   6
ATOM      5  C   UNL     1       1.774  -1.744   2.678  0.00  0.00    -0.051 C 
ATOM      6  C   UNL     1       1.261  -2.781   3.292  0.00  0.00    -0.043 C 
BRANCH   5   4
ATOM      4  C   UNL     1       0.977  -1.024   1.621  0.00  0.00    +0.045 C 
BRANCH   4   3
ATOM      3  C   UNL     1       0.882   0.461   1.977  0.00  0.00    -0.018 C 
ATOM     30  C   UNL     1       0.081   0.625   3.270  0.00  0.00    +0.015 C 
BRANCH   3   2
ATOM      1  C   UNL     1       0.198   2.714   1.142  0.00  0.00    +0.007 C 
ATOM      2  C   UNL     1       0.182   1.213   0.844  0.00  0.00    -0.000 C 
ENDBRANCH   3   2
ENDBRANCH   4   3
ENDBRANCH   5   4
ENDBRANCH   7   6
ENDBRANCH   8   7
BRANCH  20  21
ATOM     21  O   UNL     1      -5.078  -6.733   9.563  0.00  0.00    -0.571 OA
ATOM     22  H   UNL     1      -5.805  -6.273   9.122  0.00  0.00    +0.378 HD
ENDBRANCH  20  21
TORSDOF 6
