REMARK  Name = ZINC13382721
REMARK  9 active torsions:
REMARK  status: ('A' for Active; 'I' for Inactive)
REMARK    1  A    between atoms: C1_1  and  C2_2
REMARK    2  A    between atoms: C2_2  and  C23_29
REMARK    3  A    between atoms: C3_3  and  C4_4
REMARK    4  A    between atoms: C4_4  and  C5_5
REMARK    5  A    between atoms: C6_6  and  O6_28
REMARK    6  A    between atoms: C7_7  and  O5_27
REMARK    7  A    between atoms: C15_16  and  O3_20
REMARK    8  A    between atoms: C20_23  and  C21_25
REMARK    9  A    between atoms: C20_23  and  C22_26
REMARK                            x       y       z     vdW  Elec       q    Type
REMARK                         _______ _______ _______ _____ _____    ______ ____
ROOT
ATOM      6  C   UNL     1      -4.177   0.486  -0.193  0.00  0.00    -0.111 A 
ATOM      7  C   UNL     1      -5.283   1.310  -0.297  0.00  0.00    +0.154 A 
ATOM     10  C   UNL     1      -5.129   2.690  -0.450  0.00  0.00    +0.057 A 
ATOM     13  C   UNL     1      -3.865   3.241  -0.496  0.00  0.00    +0.111 A 
ATOM     14  C   UNL     1      -2.746   2.413  -0.390  0.00  0.00    -0.215 A 
ATOM     15  C   UNL     1      -1.383   2.979  -0.437  0.00  0.00    +0.443 A 
ATOM     16  O   UNL     1      -1.193   4.175  -0.565  0.00  0.00    -0.434 OA
ATOM     17  C   UNL     1      -0.265   2.028  -0.320  0.00  0.00    -0.289 A 
ATOM     18  C   UNL     1       1.061   2.480  -0.353  0.00  0.00    +0.252 A 
ATOM     21  C   UNL     1       2.095   1.556  -0.243  0.00  0.00    -0.196 A 
ATOM     22  C   UNL     1       3.511   1.979  -0.271  0.00  0.00    +0.058 C 
ATOM     23  C   UNL     1       4.438   1.050  -0.499  0.00  0.00    -0.049 C 
ATOM     24  C   UNL     1       4.028  -0.380  -0.731  0.00  0.00    +0.146 C 
ATOM     25  C   UNL     1       3.771  -0.595  -2.224  0.00  0.00    +0.039 C 
ATOM     26  C   UNL     1       5.155  -1.309  -0.275  0.00  0.00    +0.089 C 
ATOM     27  O   UNL     1       2.840  -0.688   0.000  0.00  0.00    -0.294 OA
ATOM     28  C   UNL     1       1.807   0.186  -0.102  0.00  0.00    +0.220 A 
ATOM     29  C   UNL     1       0.498  -0.251  -0.068  0.00  0.00    -0.030 A 
ATOM     30  C   UNL     1      -0.549   0.658  -0.180  0.00  0.00    +0.220 A 
ATOM     31  O   UNL     1      -1.823   0.216  -0.136  0.00  0.00    -0.219 OA
ATOM     32  C   UNL     1      -2.898   1.026  -0.238  0.00  0.00    +0.172 A 
ENDROOT
BRANCH   7   8
ATOM      8  O   UNL     1      -6.530   0.773  -0.252  0.00  0.00    -0.474 OA
ATOM      9  H   UNL     1      -6.901   0.715   0.639  0.00  0.00    +0.396 HD
ENDBRANCH   7   8
BRANCH  10  11
ATOM     11  O   UNL     1      -6.225   3.490  -0.552  0.00  0.00    -0.478 OA
ATOM     12  H   UNL     1      -6.552   3.819   0.296  0.00  0.00    +0.390 HD
ENDBRANCH  10  11
BRANCH  18  19
ATOM     19  O   UNL     1       1.333   3.801  -0.492  0.00  0.00    -0.469 OA
ATOM     20  H   UNL     1       1.422   4.090  -1.410  0.00  0.00    +0.404 HD
ENDBRANCH  18  19
BRANCH   6   5
ATOM      5  C   UNL     1      -4.360  -1.001  -0.030  0.00  0.00    +0.136 C 
BRANCH   5   4
ATOM      1  C   UNL     1      -6.491  -2.567   0.949  0.00  0.00    +0.077 C 
ATOM      2  C   UNL     1      -5.458  -2.017   1.900  0.00  0.00    -0.124 C 
ATOM      3  C   UNL     1      -5.601  -2.247   3.382  0.00  0.00    +0.074 C 
ATOM      4  C   UNL     1      -4.437  -1.340   1.437  0.00  0.00    -0.057 C 
ENDBRANCH   5   4
ENDBRANCH   6   5
TORSDOF 5
