REMARK  Name = ZINC95486311
REMARK  18 active torsions:
REMARK  status: ('A' for Active; 'I' for Inactive)
REMARK    1  A    between atoms: C1_1  and  C2_2
REMARK    2  A    between atoms: C2_2  and  C3_4
REMARK    3  A    between atoms: C2_2  and  C14_16
REMARK    4  A    between atoms: C3_4  and  C4_5
REMARK    5  A    between atoms: C4_5  and  C5_6
REMARK    6  A    between atoms: C5_6  and  C6_7
REMARK    7  A    between atoms: C6_7  and  C7_8
REMARK    8  A    between atoms: C7_8  and  C8_9
REMARK    9  A    between atoms: C8_9  and  C9_10
REMARK   10  A    between atoms: C9_10  and  C10_11
REMARK   11  A    between atoms: C10_11  and  C13_15
REMARK   12  A    between atoms: C11_12  and  C12_13
REMARK   13  A    between atoms: C12_13  and  O1_14
REMARK   14  A    between atoms: C14_16  and  C15_17
REMARK   15  A    between atoms: C15_17  and  C16_18
REMARK   16  A    between atoms: C16_18  and  C17_19
REMARK   17  A    between atoms: C17_19  and  C18_20
REMARK   18  A    between atoms: C17_19  and  C19_21
REMARK                            x       y       z     vdW  Elec       q    Type
REMARK                         _______ _______ _______ _____ _____    ______ ____
ROOT
ATOM     11  C   UNL     1      -3.571  -0.661  -1.275  0.00  0.00    -0.000 C 
ENDROOT
BRANCH  11  10
ATOM     10  C   UNL     1      -2.135  -0.131  -1.286  0.00  0.00    +0.002 C 
BRANCH  10   9
ATOM      9  C   UNL     1      -1.433  -0.534   0.013  0.00  0.00    +0.005 C 
BRANCH   9   2
ATOM      1  C   UNL     1      -0.019   1.526   0.010  0.00  0.00    +0.012 C 
ATOM      2  C   UNL     1       0.002  -0.004   0.002  0.00  0.00    -0.024 C 
BRANCH   2   3
ATOM      3  C   UNL     1       0.742  -0.511   1.242  0.00  0.00    +0.005 C 
BRANCH   3   4
ATOM      4  C   UNL     1       2.210  -0.086   1.169  0.00  0.00    +0.003 C 
BRANCH   4   5
ATOM      5  C   UNL     1       2.950  -0.593   2.408  0.00  0.00    +0.005 C 
BRANCH   5   6
ATOM      6  C   UNL     1       4.418  -0.168   2.335  0.00  0.00    -0.031 C 
ATOM      7  C   UNL     1       5.185  -0.779   3.510  0.00  0.00    +0.012 C 
ATOM      8  C   UNL     1       4.511   1.358   2.404  0.00  0.00    +0.012 C 
ENDBRANCH   5   6
ENDBRANCH   4   5
ENDBRANCH   3   4
ENDBRANCH   2   3
ENDBRANCH   9   2
ENDBRANCH  10   9
ENDBRANCH  11  10
BRANCH  11  12
ATOM     12  C   UNL     1      -4.273  -0.258  -2.573  0.00  0.00    +0.001 C 
BRANCH  12  13
ATOM     13  C   UNL     1      -5.708  -0.788  -2.563  0.00  0.00    +0.002 C 
BRANCH  13  14
ATOM     14  C   UNL     1      -6.410  -0.386  -3.861  0.00  0.00    +0.012 C 
BRANCH  14  15
ATOM     15  C   UNL     1      -7.845  -0.915  -3.850  0.00  0.00    +0.055 C 
BRANCH  15  16
ATOM     16  C   UNL     1      -8.537  -0.519  -5.129  0.00  0.00    -0.113 C 
ATOM     17  C   UNL     1      -9.190   0.834  -5.245  0.00  0.00    +0.075 C 
ATOM     18  C   UNL     1      -8.569  -1.350  -6.141  0.00  0.00    -0.051 C 
BRANCH  18  19
ATOM     19  C   UNL     1      -9.261  -0.954  -7.420  0.00  0.00    +0.209 C 
BRANCH  19  20
ATOM     20  O   UNL     1      -8.439  -1.305  -8.535  0.00  0.00    -0.571 OA
ATOM     21  H   UNL     1      -8.822  -1.079  -9.393  0.00  0.00    +0.380 HD
ENDBRANCH  19  20
ENDBRANCH  18  19
ENDBRANCH  15  16
ENDBRANCH  14  15
ENDBRANCH  13  14
ENDBRANCH  12  13
ENDBRANCH  11  12
TORSDOF 14
