REMARK  Name = ZINC14887523
REMARK  2 active torsions:
REMARK  status: ('A' for Active; 'I' for Inactive)
REMARK    1  A    between atoms: C1_1  and  C2_2
REMARK    2  A    between atoms: C2_2  and  O3_22
REMARK                            x       y       z     vdW  Elec       q    Type
REMARK                         _______ _______ _______ _____ _____    ______ ____
ROOT
ATOM      1  C   UNL     1       3.776  -4.960  -0.252  0.00  0.00    +0.019 C 
ATOM      2  C   UNL     1       2.450  -4.228  -0.468  0.00  0.00    +0.126 C 
ATOM      5  C   UNL     1       1.354  -4.885   0.380  0.00  0.00    +0.003 C 
ATOM      6  C   UNL     1       0.007  -4.296  -0.034  0.00  0.00    +0.091 C 
ATOM      7  C   UNL     1       0.057  -2.790  -0.017  0.00  0.00    -0.050 A 
ATOM      8  C   UNL     1      -1.152  -2.105   0.000  0.00  0.00    +0.037 A 
ATOM      9  C   UNL     1      -1.188  -0.725   0.010  0.00  0.00    +0.072 A 
ATOM     10  C   UNL     1       0.002  -0.004   0.002  0.00  0.00    -0.121 A 
ATOM     11  C   UNL     1       1.225  -0.692  -0.014  0.00  0.00    -0.123 A 
ATOM     12  C   UNL     1       2.499   0.059  -0.022  0.00  0.00    +0.433 C 
ATOM     13  C   UNL     1       2.480   1.537  -0.013  0.00  0.00    -0.119 A 
ATOM     14  C   UNL     1       3.674   2.253  -0.020  0.00  0.00    +0.074 A 
ATOM     15  C   UNL     1       3.648   3.637  -0.012  0.00  0.00    +0.040 A 
ATOM     16  C   UNL     1       2.443   4.315   0.004  0.00  0.00    +0.040 A 
ATOM     17  C   UNL     1       1.247   3.618   0.012  0.00  0.00    +0.075 A 
ATOM     18  C   UNL     1       1.254   2.226   0.002  0.00  0.00    -0.120 A 
ATOM     19  O   UNL     1       3.558  -0.537  -0.037  0.00  0.00    -0.426 OA
ATOM     20  C   UNL     1      -0.018   1.474   0.010  0.00  0.00    +0.436 C 
ATOM     21  O   UNL     1      -1.077   2.069   0.018  0.00  0.00    -0.430 OA
ATOM     22  C   UNL     1       1.246  -2.091  -0.021  0.00  0.00    -0.015 A 
ATOM     23  C   UNL     1       2.589  -2.772  -0.029  0.00  0.00    +0.134 C 
ENDROOT
BRANCH   2   3
ATOM      3  O   UNL     1       2.088  -4.283  -1.849  0.00  0.00    -0.553 OA
ATOM      4  H   UNL     1       1.966  -5.180  -2.188  0.00  0.00    +0.375 HD
ENDBRANCH   2   3
TORSDOF 1
