REMARK  Name = ZINC95486103
REMARK  9 active torsions:
REMARK  status: ('A' for Active; 'I' for Inactive)
REMARK    1  A    between atoms: C1_1  and  C2_2
REMARK    2  A    between atoms: C2_2  and  C3_3
REMARK    3  A    between atoms: C4_5  and  C19_33
REMARK    4  A    between atoms: C8_12  and  O2_17
REMARK    5  A    between atoms: C9_14  and  O1_16
REMARK    6  A    between atoms: O2_17  and  C10_18
REMARK    7  A    between atoms: C10_18  and  C11_20
REMARK    8  A    between atoms: C11_20  and  C12_21
REMARK    9  A    between atoms: C12_21  and  O4_22
REMARK                            x       y       z     vdW  Elec       q    Type
REMARK                         _______ _______ _______ _____ _____    ______ ____
ROOT
ATOM      3  C   UNL     1       0.697  -0.484  -1.207  0.00  0.00    +0.189 C 
ATOM      4  C   UNL     1       0.956  -1.991  -1.156  0.00  0.00    -0.042 C 
ATOM      7  C   UNL     1       1.680  -2.424  -2.445  0.00  0.00    +0.100 C 
ATOM      8  C   UNL     1       0.844  -1.956  -3.621  0.00  0.00    -0.210 C 
ATOM      9  C   UNL     1       0.301  -0.579  -3.540  0.00  0.00    +0.523 C 
ATOM     10  O   UNL     1       0.275   0.158  -4.507  0.00  0.00    -0.436 OA
ATOM     11  C   UNL     1       0.608  -2.742  -4.669  0.00  0.00    +0.181 C 
ATOM     12  C   UNL     1       3.028  -1.737  -2.452  0.00  0.00    +0.166 C 
ATOM     13  C   UNL     1       3.838  -2.305  -1.250  0.00  0.00    +0.048 C 
ATOM     14  C   UNL     1       5.206  -1.779  -1.601  0.00  0.00    -0.224 C 
ATOM     15  C   UNL     1       5.156  -1.631  -3.081  0.00  0.00    +0.509 C 
ATOM     16  O   UNL     1       6.073  -1.247  -3.780  0.00  0.00    -0.430 OA
ATOM     17  C   UNL     1       6.219  -1.511  -0.780  0.00  0.00    +0.205 C 
ATOM     18  C   UNL     1       3.187  -1.758   0.006  0.00  0.00    +0.167 C 
ATOM     26  O   UNL     1       3.916  -1.993  -3.532  0.00  0.00    -0.312 OA
ATOM     27  C   UNL     1       1.776  -2.329   0.086  0.00  0.00    +0.190 C 
ATOM     30  O   UNL     1      -0.147  -0.173  -2.320  0.00  0.00    -0.344 OA
ENDROOT
BRANCH   3   2
ATOM      1  C   UNL     1      -0.177   1.476   0.071  0.00  0.00    +0.031 C 
ATOM      2  C   UNL     1       0.013  -0.042   0.088  0.00  0.00    +0.050 C 
ENDBRANCH   3   2
BRANCH   4   5
ATOM      5  C   UNL     1      -0.364  -2.713  -1.083  0.00  0.00    -0.017 C 
ATOM      6  C   UNL     1      -0.639  -3.664  -1.942  0.00  0.00    +0.038 C 
ENDBRANCH   4   5
BRANCH  27  28
ATOM     28  O   UNL     1       1.861  -3.750   0.214  0.00  0.00    -0.543 OA
ATOM     29  H   UNL     1       2.369  -4.045   0.983  0.00  0.00    +0.386 HD
ENDBRANCH  27  28
BRANCH  18  19
ATOM     19  O   UNL     1       3.940  -2.150   1.156  0.00  0.00    -0.337 OA
BRANCH  19  20
ATOM     20  C   UNL     1       3.920  -1.319   2.210  0.00  0.00    +0.463 C 
ATOM     25  O   UNL     1       3.283  -0.293   2.158  0.00  0.00    -0.494 OA
BRANCH  20  21
ATOM     21  C   UNL     1       4.690  -1.666   3.457  0.00  0.00    +0.120 C 
BRANCH  21  22
ATOM     22  C   UNL     1       4.500  -0.561   4.498  0.00  0.00    +0.203 C 
BRANCH  22  23
ATOM     23  O   UNL     1       5.230  -0.890   5.681  0.00  0.00    -0.573 OA
ATOM     24  H   UNL     1       5.155  -0.232   6.386  0.00  0.00    +0.392 HD
ENDBRANCH  22  23
ENDBRANCH  21  22
ENDBRANCH  20  21
ENDBRANCH  19  20
ENDBRANCH  18  19
TORSDOF 8
