REMARK  Name = ZINC95485966
REMARK  18 active torsions:
REMARK  status: ('A' for Active; 'I' for Inactive)
REMARK    1  A    between atoms: C1_1  and  C2_2
REMARK    2  A    between atoms: C3_3  and  C28_33
REMARK    3  A    between atoms: C8_8  and  O2_19
REMARK    4  A    between atoms: C10_10  and  O1_18
REMARK    5  A    between atoms: C11_11  and  C12_12
REMARK    6  A    between atoms: C12_12  and  C13_13
REMARK    7  A    between atoms: C13_13  and  C14_14
REMARK    8  A    between atoms: C15_15  and  C16_16
REMARK    9  A    between atoms: C15_15  and  C17_17
REMARK   10  A    between atoms: C21_24  and  C22_26
REMARK   11  A    between atoms: C22_26  and  C23_27
REMARK   12  A    between atoms: C23_27  and  C24_28
REMARK   13  A    between atoms: C25_29  and  C26_30
REMARK   14  A    between atoms: C25_29  and  C27_31
REMARK   15  A    between atoms: C28_33  and  C29_34
REMARK   16  A    between atoms: C29_34  and  C30_35
REMARK   17  A    between atoms: C31_36  and  C32_37
REMARK   18  A    between atoms: C31_36  and  C33_38
REMARK                            x       y       z     vdW  Elec       q    Type
REMARK                         _______ _______ _______ _____ _____    ______ ____
ROOT
ATOM      1  C   UNL     1       1.734   5.234  -0.860  0.00  0.00    +0.100 C 
ATOM      2  C   UNL     1       1.053   3.948  -0.470  0.00  0.00    -0.036 A 
ATOM      3  C   UNL     1       1.327   2.807  -1.165  0.00  0.00    -0.090 A 
ATOM     10  C   UNL     1       0.699   1.603  -0.813  0.00  0.00    +0.013 A 
ATOM     11  C   UNL     1       0.959   0.415  -1.523  0.00  0.00    +0.017 A 
ATOM     12  C   UNL     1       0.346  -0.750  -1.179  0.00  0.00    -0.016 A 
ATOM     13  C   UNL     1       0.646  -1.976  -2.005  0.00  0.00    +0.018 C 
ATOM     20  C   UNL     1       0.215  -3.221  -1.270  0.00  0.00    +0.376 C 
ATOM     21  O   UNL     1       0.939  -4.185  -1.197  0.00  0.00    -0.430 OA
ATOM     22  C   UNL     1      -1.158  -3.221  -0.625  0.00  0.00    +0.044 C 
ATOM     23  C   UNL     1      -1.190  -2.041   0.323  0.00  0.00    +0.409 C 
ATOM     24  O   UNL     1      -1.736  -2.130   1.403  0.00  0.00    -0.430 OA
ATOM     25  C   UNL     1      -0.547  -0.788  -0.092  0.00  0.00    -0.212 A 
ATOM     26  C   UNL     1      -0.834   0.377   0.630  0.00  0.00    +0.218 A 
ATOM     29  C   UNL     1      -0.213   1.586   0.272  0.00  0.00    -0.119 A 
ATOM     30  C   UNL     1      -0.479   2.780   0.971  0.00  0.00    +0.142 A 
ATOM     33  C   UNL     1       0.161   3.942   0.596  0.00  0.00    -0.108 A 
ENDROOT
BRANCH  26  27
ATOM     27  O   UNL     1      -1.705   0.340   1.666  0.00  0.00    -0.462 OA
ATOM     28  H   UNL     1      -1.292   0.150   2.520  0.00  0.00    +0.398 HD
ENDBRANCH  26  27
BRANCH  30  31
ATOM     31  O   UNL     1      -1.353   2.784   2.009  0.00  0.00    -0.472 OA
ATOM     32  H   UNL     1      -0.946   2.606   2.868  0.00  0.00    +0.386 HD
ENDBRANCH  30  31
BRANCH   3   4
ATOM      4  C   UNL     1       2.304   2.840  -2.312  0.00  0.00    +0.081 C 
BRANCH   4   5
ATOM      5  C   UNL     1       3.717   2.580  -1.785  0.00  0.00    +0.056 C 
BRANCH   5   6
ATOM      6  C   UNL     1       4.694   2.613  -2.932  0.00  0.00    -0.061 C 
ATOM      7  C   UNL     1       5.501   1.601  -3.134  0.00  0.00    -0.128 C 
ATOM      8  C   UNL     1       6.402   1.585  -4.342  0.00  0.00    +0.072 C 
ATOM      9  C   UNL     1       5.528   0.452  -2.158  0.00  0.00    +0.071 C 
ENDBRANCH   5   6
ENDBRANCH   4   5
ENDBRANCH   3   4
BRANCH  13  14
ATOM     14  C   UNL     1      -0.105  -1.888  -3.335  0.00  0.00    +0.060 C 
BRANCH  14  15
ATOM     15  C   UNL     1       0.294  -3.066  -4.225  0.00  0.00    +0.049 C 
BRANCH  15  16
ATOM     16  C   UNL     1      -0.446  -2.979  -5.535  0.00  0.00    -0.060 C 
ATOM     17  C   UNL     1       0.220  -2.848  -6.656  0.00  0.00    -0.126 C 
ATOM     18  C   UNL     1      -0.516  -2.826  -7.971  0.00  0.00    +0.073 C 
ATOM     19  C   UNL     1       1.721  -2.720  -6.630  0.00  0.00    +0.073 C 
ENDBRANCH  15  16
ENDBRANCH  14  15
ENDBRANCH  13  14
BRANCH  33  34
ATOM     34  C   UNL     1      -0.115   5.221   1.344  0.00  0.00    +0.082 C 
BRANCH  34  35
ATOM     35  C   UNL     1      -1.292   5.950   0.692  0.00  0.00    +0.059 C 
BRANCH  35  36
ATOM     36  C   UNL     1      -1.567   7.229   1.440  0.00  0.00    -0.063 C 
ATOM     37  C   UNL     1      -2.778   7.490   1.866  0.00  0.00    -0.128 C 
ATOM     38  C   UNL     1      -3.027   8.695   2.736  0.00  0.00    +0.071 C 
ATOM     39  C   UNL     1      -3.922   6.586   1.486  0.00  0.00    +0.073 C 
ENDBRANCH  35  36
ENDBRANCH  34  35
ENDBRANCH  33  34
TORSDOF 11
