REMARK  Name = ZINC14825190
REMARK  7 active torsions:
REMARK  status: ('A' for Active; 'I' for Inactive)
REMARK    1  A    between atoms: C1_1  and  C2_2
REMARK    2  A    between atoms: C2_2  and  C25_31
REMARK    3  A    between atoms: C7_7  and  C11_13
REMARK    4  A    between atoms: C8_8  and  O2_12
REMARK    5  A    between atoms: C17_20  and  O5_24
REMARK    6  A    between atoms: C22_27  and  C23_29
REMARK    7  A    between atoms: C22_27  and  C24_30
REMARK                            x       y       z     vdW  Elec       q    Type
REMARK                         _______ _______ _______ _____ _____    ______ ____
ROOT
ATOM      9  C   UNL     1      -3.137  -6.611  -0.279  0.00  0.00    -0.224 A 
ATOM     10  C   UNL     1      -3.889  -5.856   0.559  0.00  0.00    +0.318 A 
ATOM     11  O   UNL     1      -3.685  -4.557   0.766  0.00  0.00    -0.206 OA
ATOM     12  C   UNL     1      -2.698  -3.881   0.151  0.00  0.00    +0.194 A 
ATOM     13  C   UNL     1      -2.528  -2.523   0.408  0.00  0.00    -0.027 A 
ATOM     14  C   UNL     1      -1.519  -1.817  -0.215  0.00  0.00    +0.212 A 
ATOM     15  C   UNL     1      -0.653  -2.461  -1.118  0.00  0.00    -0.191 A 
ATOM     16  C   UNL     1       0.410  -1.665  -1.765  0.00  0.00    +0.057 C 
ATOM     17  C   UNL     1       0.720  -0.484  -1.232  0.00  0.00    -0.049 C 
ATOM     18  C   UNL     1       0.002  -0.004   0.002  0.00  0.00    +0.146 C 
ATOM     19  C   UNL     1       0.743  -0.505   1.243  0.00  0.00    +0.039 C 
ATOM     20  C   UNL     1      -0.019   1.526   0.010  0.00  0.00    +0.088 C 
ATOM     21  C   UNL     1      -0.806  -3.817  -1.387  0.00  0.00    +0.246 A 
ATOM     24  O   UNL     1      -1.339  -0.493   0.025  0.00  0.00    -0.295 OA
ATOM     25  C   UNL     1      -1.832  -4.527  -0.749  0.00  0.00    -0.276 A 
ATOM     26  C   UNL     1      -2.028  -5.964  -1.004  0.00  0.00    +0.432 A 
ATOM     27  O   UNL     1      -1.312  -6.584  -1.771  0.00  0.00    -0.428 OA
ENDROOT
BRANCH   9   8
ATOM      1  C   UNL     1      -5.997 -12.420   0.622  0.00  0.00    +0.035 C 
ATOM      2  C   UNL     1      -5.583 -12.481  -0.850  0.00  0.00    +0.146 C 
ATOM      3  C   UNL     1      -5.741 -13.915  -1.359  0.00  0.00    +0.082 C 
ATOM      4  C   UNL     1      -6.471 -11.568  -1.653  0.00  0.00    -0.051 C 
ATOM      5  C   UNL     1      -6.137 -10.290  -1.820  0.00  0.00    +0.042 C 
ATOM      6  C   UNL     1      -4.877  -9.815  -1.208  0.00  0.00    -0.142 A 
ATOM      7  C   UNL     1      -4.620  -8.460  -1.041  0.00  0.00    +0.093 A 
ATOM      8  C   UNL     1      -3.422  -8.055  -0.461  0.00  0.00    -0.084 A 
ATOM     28  C   UNL     1      -2.483  -9.011  -0.055  0.00  0.00    +0.173 A 
ATOM     31  C   UNL     1      -2.745 -10.362  -0.219  0.00  0.00    -0.029 A 
ATOM     32  C   UNL     1      -3.934 -10.770  -0.794  0.00  0.00    +0.158 A 
ATOM     33  O   UNL     1      -4.216 -12.086  -0.971  0.00  0.00    -0.303 OA
BRANCH  28  29
ATOM     29  O   UNL     1      -1.312  -8.613   0.506  0.00  0.00    -0.483 OA
ATOM     30  H   UNL     1      -1.346  -8.525   1.468  0.00  0.00    +0.390 HD
ENDBRANCH  28  29
ENDBRANCH   9   8
BRANCH  21  22
ATOM     22  O   UNL     1       0.026  -4.444  -2.256  0.00  0.00    -0.469 OA
ATOM     23  H   UNL     1       0.815  -4.819  -1.842  0.00  0.00    +0.404 HD
ENDBRANCH  21  22
TORSDOF 3
