REMARK  Name = ZINC14586037
REMARK  14 active torsions:
REMARK  status: ('A' for Active; 'I' for Inactive)
REMARK    1  A    between atoms: C1_1  and  C2_2
REMARK    2  A    between atoms: C2_2  and  C3_3
REMARK    3  A    between atoms: C3_3  and  C4_4
REMARK    4  A    between atoms: C9_11  and  O5_27
REMARK    5  A    between atoms: C10_12  and  C18_22
REMARK    6  A    between atoms: C11_13  and  O4_21
REMARK    7  A    between atoms: C12_14  and  C13_15
REMARK    8  A    between atoms: C13_15  and  C14_17
REMARK    9  A    between atoms: C14_17  and  C15_18
REMARK   10  A    between atoms: C15_18  and  C16_19
REMARK   11  A    between atoms: C15_18  and  C17_20
REMARK   12  A    between atoms: C18_22  and  C19_23
REMARK   13  A    between atoms: C20_24  and  C21_25
REMARK   14  A    between atoms: C20_24  and  C22_26
REMARK                            x       y       z     vdW  Elec       q    Type
REMARK                         _______ _______ _______ _____ _____    ______ ____
ROOT
ATOM      4  C   UNL     1      -1.058   1.663   5.841  0.00  0.00    +0.041 A 
ATOM      5  C   UNL     1      -2.180   2.361   5.526  0.00  0.00    -0.092 A 
ATOM      6  C   UNL     1      -2.529   2.553   4.174  0.00  0.00    +0.504 A 
ATOM      7  O   UNL     1      -1.767   2.054   3.186  0.00  0.00    -0.242 OA
ATOM      8  C   UNL     1      -0.646   1.355   3.459  0.00  0.00    +0.228 A 
ATOM      9  C   UNL     1       0.143   0.837   2.418  0.00  0.00    -0.226 A 
ATOM     16  C   UNL     1       1.306   0.106   2.722  0.00  0.00    +0.237 A 
ATOM     19  C   UNL     1       1.681  -0.095   4.042  0.00  0.00    -0.165 A 
ATOM     25  C   UNL     1       0.912   0.410   5.074  0.00  0.00    +0.226 A 
ATOM     28  O   UNL     1      -3.536   3.179   3.898  0.00  0.00    -0.452 OA
ATOM     29  C   UNL     1      -0.260   1.140   4.790  0.00  0.00    -0.197 A 
ENDROOT
BRANCH   9  10
ATOM     10  C   UNL     1      -0.246   1.052   1.025  0.00  0.00    +0.390 C 
ATOM     15  O   UNL     1      -1.252   1.679   0.766  0.00  0.00    -0.422 OA
BRANCH  10  11
ATOM     11  C   UNL     1       0.603   0.495  -0.089  0.00  0.00    +0.055 C 
BRANCH  11  12
ATOM     12  C   UNL     1      -0.022   0.860  -1.437  0.00  0.00    -0.018 C 
ATOM     13  C   UNL     1      -1.378   0.164  -1.575  0.00  0.00    +0.018 C 
ATOM     14  C   UNL     1       0.902   0.403  -2.567  0.00  0.00    +0.021 C 
ENDBRANCH  11  12
ENDBRANCH  10  11
ENDBRANCH   9  10
BRANCH  16  17
ATOM     17  O   UNL     1       2.066  -0.399   1.721  0.00  0.00    -0.474 OA
ATOM     18  H   UNL     1       2.760   0.200   1.414  0.00  0.00    +0.404 HD
ENDBRANCH  16  17
BRANCH  25  26
ATOM     26  O   UNL     1       1.285   0.202   6.360  0.00  0.00    -0.472 OA
ATOM     27  H   UNL     1       0.923  -0.606   6.749  0.00  0.00    +0.403 HD
ENDBRANCH  25  26
BRANCH   4   3
ATOM      3  C   UNL     1      -0.667   1.447   7.280  0.00  0.00    +0.084 C 
BRANCH   3   2
ATOM      1  C   UNL     1       0.839   2.209   9.122  0.00  0.00    +0.017 C 
ATOM      2  C   UNL     1       0.443   2.429   7.660  0.00  0.00    +0.024 C 
ENDBRANCH   3   2
ENDBRANCH   4   3
BRANCH  19  20
ATOM     20  C   UNL     1       2.932  -0.875   4.353  0.00  0.00    +0.136 C 
BRANCH  20  21
ATOM     21  C   UNL     1       2.593  -2.338   4.482  0.00  0.00    -0.067 C 
ATOM     22  C   UNL     1       3.241  -3.226   3.770  0.00  0.00    -0.113 C 
ATOM     23  C   UNL     1       2.821  -4.673   3.805  0.00  0.00    +0.073 C 
ATOM     24  C   UNL     1       4.408  -2.801   2.916  0.00  0.00    +0.076 C 
ENDBRANCH  20  21
ENDBRANCH  19  20
TORSDOF 9
