REMARK  Name = ZINC95486119
REMARK  11 active torsions:
REMARK  status: ('A' for Active; 'I' for Inactive)
REMARK    1  A    between atoms: C1_1  and  C2_2
REMARK    2  A    between atoms: C2_2  and  C4_4
REMARK    3  A    between atoms: C7_8  and  C32_40
REMARK    4  A    between atoms: C13_17  and  C31_39
REMARK    5  A    between atoms: C16_20  and  C29_35
REMARK    6  A    between atoms: C17_22  and  C27_33
REMARK    7  A    between atoms: C17_22  and  C28_34
REMARK    8  A    between atoms: C21_27  and  C26_32
REMARK    9  A    between atoms: C22_28  and  C25_31
REMARK   10  A    between atoms: C29_35  and  C30_36
REMARK   11  A    between atoms: C32_40  and  C33_41
REMARK                            x       y       z     vdW  Elec       q    Type
REMARK                         _______ _______ _______ _____ _____    ______ ____
ROOT
ATOM      3  C   UNL     1      -0.321  -0.098  -1.472  0.00  0.00    +0.027 C 
ATOM      4  C   UNL     1      -1.392   0.230  -2.538  0.00  0.00    -0.014 C 
ATOM      5  C   UNL     1      -0.762  -0.129  -3.891  0.00  0.00    +0.031 C 
ATOM      6  C   UNL     1       0.781  -0.121  -3.695  0.00  0.00    -0.011 C 
ATOM     11  C   UNL     1       1.271  -1.457  -4.243  0.00  0.00    +0.019 C 
ATOM     12  C   UNL     1       2.560  -1.961  -3.611  0.00  0.00    +0.002 C 
ATOM     13  C   UNL     1       2.379  -2.051  -2.094  0.00  0.00    -0.028 C 
ATOM     14  C   UNL     1       1.152  -2.922  -1.798  0.00  0.00    +0.014 C 
ATOM     15  C   UNL     1       3.597  -2.712  -1.433  0.00  0.00    -0.027 C 
ATOM     16  C   UNL     1       3.691  -4.125  -2.027  0.00  0.00    +0.012 C 
ATOM     17  C   UNL     1       3.373  -2.845   0.076  0.00  0.00    +0.014 C 
ATOM     18  C   UNL     1       4.538  -3.598   0.703  0.00  0.00    -0.004 C 
ATOM     19  C   UNL     1       5.893  -2.950   0.452  0.00  0.00    -0.004 C 
ATOM     20  C   UNL     1       6.337  -2.135   1.647  0.00  0.00    -0.044 C 
ATOM     21  C   UNL     1       6.795  -3.120   2.752  0.00  0.00    -0.001 C 
ATOM     22  C   UNL     1       5.201  -1.296   2.240  0.00  0.00    +0.014 C 
ATOM     23  C   UNL     1       7.526  -1.221   1.363  0.00  0.00    +0.018 C 
ATOM     28  C   UNL     1       7.243  -0.411   0.098  0.00  0.00    +0.023 C 
ATOM     29  C   UNL     1       7.204  -1.377  -1.075  0.00  0.00    +0.001 C 
ATOM     30  C   UNL     1       6.102  -2.438  -0.943  0.00  0.00    -0.026 C 
ATOM     31  C   UNL     1       6.667  -3.623  -1.783  0.00  0.00    -0.005 C 
ATOM     32  C   UNL     1       4.860  -1.903  -1.657  0.00  0.00    +0.012 C 
ATOM     33  C   UNL     1       4.652  -0.453  -1.204  0.00  0.00    +0.012 C 
ATOM     34  C   UNL     1       3.446   0.181  -1.881  0.00  0.00    -0.004 C 
ATOM     35  C   UNL     1       2.178  -0.635  -1.579  0.00  0.00    +0.010 C 
ATOM     36  C   UNL     1       1.009   0.088  -2.205  0.00  0.00    -0.010 C 
ENDROOT
BRANCH   3   2
ATOM      1  C   UNL     1      -0.294   2.360  -0.577  0.00  0.00    +0.068 C 
ATOM      2  C   UNL     1      -0.431   0.881  -0.323  0.00  0.00    -0.097 C 
ATOM     37  C   UNL     1      -0.646   0.443   0.893  0.00  0.00    -0.035 C 
ENDBRANCH   3   2
BRANCH   6   7
ATOM      7  C   UNL     1       1.394   1.040  -4.511  0.00  0.00    -0.065 C 
BRANCH   7   8
ATOM      8  C   UNL     1       1.001   0.900  -5.959  0.00  0.00    +0.493 C 
ATOM      9  O   UNL     1       1.464   1.659  -6.793  0.00  0.00    -0.715 OA
ATOM     10  O   UNL     1       0.219   0.027  -6.297  0.00  0.00    -0.689 OA
ENDBRANCH   7   8
ENDBRANCH   6   7
BRANCH  23  24
ATOM     24  C   UNL     1       7.731  -0.265   2.542  0.00  0.00    -0.070 C 
BRANCH  24  25
ATOM     25  C   UNL     1       8.971   0.560   2.310  0.00  0.00    +0.489 C 
ATOM     26  O   UNL     1       9.315   1.388   3.136  0.00  0.00    -0.717 OA
ATOM     27  O   UNL     1       9.629   0.399   1.296  0.00  0.00    -0.693 OA
ENDBRANCH  24  25
ENDBRANCH  23  24
TORSDOF 5
