REMARK  Name = ZINC39560214
REMARK  11 active torsions:
REMARK  status: ('A' for Active; 'I' for Inactive)
REMARK    1  A    between atoms: C1_1  and  C2_2
REMARK    2  A    between atoms: C2_2  and  C30_40
REMARK    3  A    between atoms: C3_3  and  C4_4
REMARK    4  A    between atoms: C4_4  and  C5_5
REMARK    5  A    between atoms: C5_5  and  C6_6
REMARK    6  A    between atoms: C10_13  and  C28_36
REMARK    7  A    between atoms: C11_14  and  C27_35
REMARK    8  A    between atoms: C12_15  and  O2_34
REMARK    9  A    between atoms: C19_25  and  C26_33
REMARK   10  A    between atoms: C23_30  and  C24_31
REMARK   11  A    between atoms: C23_30  and  C25_32
REMARK                            x       y       z     vdW  Elec       q    Type
REMARK                         _______ _______ _______ _____ _____    ______ ____
ROOT
ATOM      7  C   UNL     1       2.966  -3.108   6.567  0.00  0.00    -0.011 C 
ATOM      8  C   UNL     1       1.498  -3.220   6.946  0.00  0.00    +0.007 C 
ATOM      9  C   UNL     1       1.181  -1.679   6.773  0.00  0.00    +0.108 C 
ATOM     10  O   UNL     1       1.657  -1.460   5.484  0.00  0.00    -0.329 OA
ATOM     11  C   UNL     1      -0.151  -1.463   7.404  0.00  0.00    +0.085 C 
ATOM     12  C   UNL     1      -0.421  -2.750   8.217  0.00  0.00    -0.011 C 
ATOM     13  C   UNL     1      -1.397  -3.613   7.402  0.00  0.00    +0.049 C 
ATOM     14  C   UNL     1      -0.943  -2.566   9.606  0.00  0.00    -0.093 C 
ATOM     15  C   UNL     1      -1.615  -1.503   9.943  0.00  0.00    -0.039 C 
ATOM     16  C   UNL     1      -2.113  -1.409  11.375  0.00  0.00    +0.059 C 
ATOM     17  C   UNL     1      -2.764  -2.773  11.660  0.00  0.00    +0.031 C 
ATOM     18  C   UNL     1      -1.652  -3.814  11.726  0.00  0.00    -0.038 C 
ATOM     19  C   UNL     1      -2.237  -5.225  11.664  0.00  0.00    +0.031 C 
ATOM     20  C   UNL     1      -0.851  -3.668  13.028  0.00  0.00    +0.036 C 
ATOM     21  C   UNL     1      -1.750  -3.820  14.252  0.00  0.00    +0.021 C 
ATOM     22  C   UNL     1      -2.855  -2.793  14.153  0.00  0.00    +0.369 C 
ATOM     23  O   UNL     1      -3.095  -2.048  15.079  0.00  0.00    -0.451 OA
ATOM     24  C   UNL     1      -3.663  -2.718  12.878  0.00  0.00    -0.097 C 
ATOM     25  C   UNL     1      -4.468  -1.407  12.906  0.00  0.00    +0.047 C 
ATOM     26  C   UNL     1      -4.697  -3.853  12.862  0.00  0.00    +0.055 C 
ATOM     27  C   UNL     1      -0.655  -3.673  10.585  0.00  0.00    +0.036 C 
ATOM     28  C   UNL     1      -0.323  -4.967   9.863  0.00  0.00    +0.013 C 
ATOM     29  C   UNL     1       0.864  -4.813   8.897  0.00  0.00    +0.180 C 
ATOM     32  C   UNL     1       0.979  -3.425   8.338  0.00  0.00    -0.024 C 
ATOM     33  C   UNL     1       1.849  -2.613   9.306  0.00  0.00    +0.034 C 
ATOM     34  C   UNL     1       2.934  -1.979   5.522  0.00  0.00    +0.482 C 
ATOM     35  O   UNL     1       3.867  -1.611   4.854  0.00  0.00    -0.426 OA
ENDROOT
BRANCH  29  30
ATOM     30  O   UNL     1       0.741  -5.761   7.829  0.00  0.00    -0.560 OA
ATOM     31  H   UNL     1       0.662  -6.678   8.124  0.00  0.00    +0.376 HD
ENDBRANCH  29  30
BRANCH   7   6
ATOM      6  C   UNL     1       3.462  -4.407   5.928  0.00  0.00    +0.061 C 
BRANCH   6   5
ATOM      5  C   UNL     1       4.940  -4.261   5.559  0.00  0.00    +0.047 C 
BRANCH   5   4
ATOM      1  C   UNL     1       6.356  -4.188   3.121  0.00  0.00    +0.073 C 
ATOM      2  C   UNL     1       6.030  -5.510   3.766  0.00  0.00    -0.130 C 
ATOM      3  C   UNL     1       6.396  -6.798   3.073  0.00  0.00    +0.072 C 
ATOM      4  C   UNL     1       5.429  -5.541   4.930  0.00  0.00    -0.062 C 
ENDBRANCH   5   4
ENDBRANCH   6   5
ENDBRANCH   7   6
TORSDOF 4
