REMARK  Name = ZINC13838499
REMARK  14 active torsions:
REMARK  status: ('A' for Active; 'I' for Inactive)
REMARK    1  A    between atoms: C1_1  and  C2_2
REMARK    2  A    between atoms: C2_2  and  C3_3
REMARK    3  A    between atoms: C2_2  and  C4_4
REMARK    4  A    between atoms: C4_4  and  N1_5
REMARK    5  A    between atoms: C5_6  and  C6_8
REMARK    6  A    between atoms: C7_9  and  C8_10
REMARK    7  A    between atoms: C9_11  and  C10_12
REMARK    8  A    between atoms: C10_12  and  C11_13
REMARK    9  A    between atoms: C11_13  and  C12_14
REMARK   10  A    between atoms: C12_14  and  C13_15
REMARK   11  A    between atoms: C13_15  and  C14_16
REMARK   12  A    between atoms: C14_16  and  C15_17
REMARK   13  A    between atoms: C15_17  and  C16_18
REMARK   14  A    between atoms: C17_19  and  C18_20
REMARK                            x       y       z     vdW  Elec       q    Type
REMARK                         _______ _______ _______ _____ _____    ______ ____
ROOT
ATOM     13  C   UNL     1       0.002  -0.004   0.002  0.00  0.00    +0.004 C 
ENDROOT
BRANCH  13  12
ATOM     12  C   UNL     1      -0.019   1.526   0.010  0.00  0.00    +0.012 C 
BRANCH  12  11
ATOM     11  C   UNL     1      -0.735   2.019   1.269  0.00  0.00    +0.051 C 
BRANCH  11  10
ATOM      9  C   UNL     1      -1.914   4.177   1.393  0.00  0.00    -0.039 C 
ATOM     10  C   UNL     1      -0.755   3.526   1.278  0.00  0.00    +0.009 C 
BRANCH   9   8
ATOM      7  C   UNL     1      -3.108   6.299   1.518  0.00  0.00    -0.095 C 
ATOM      8  C   UNL     1      -1.934   5.640   1.401  0.00  0.00    +0.106 C 
BRANCH   7   6
ATOM      4  N   UNL     1      -4.299   8.419   1.642  0.00  0.00    -0.727 N 
ATOM      5  H   UNL     1      -5.128   7.923   1.721  0.00  0.00    +0.401 HD
ATOM      6  C   UNL     1      -3.128   7.762   1.526  0.00  0.00    +0.545 C 
ATOM     28  O   UNL     1      -2.087   8.385   1.427  0.00  0.00    -0.548 OA
BRANCH   4   3
ATOM      3  C   UNL     1      -4.319   9.884   1.650  0.00  0.00    +0.259 C 
BRANCH   3   2
ATOM      1  C   UNL     1      -5.771  11.898   1.926  0.00  0.00    +0.032 C 
ATOM      2  C   UNL     1      -5.761  10.374   1.792  0.00  0.00    -0.032 C 
ATOM     29  C   UNL     1      -6.563   9.965   0.555  0.00  0.00    +0.021 C 
ENDBRANCH   3   2
ENDBRANCH   4   3
ENDBRANCH   7   6
ENDBRANCH   9   8
ENDBRANCH  11  10
ENDBRANCH  12  11
ENDBRANCH  13  12
BRANCH  13  14
ATOM     14  C   UNL     1       0.718  -0.498  -1.257  0.00  0.00    +0.004 C 
BRANCH  14  15
ATOM     15  C   UNL     1       0.739  -2.027  -1.265  0.00  0.00    +0.012 C 
BRANCH  15  16
ATOM     16  C   UNL     1       1.455  -2.521  -2.524  0.00  0.00    +0.051 C 
BRANCH  16  17
ATOM     17  C   UNL     1       1.476  -4.028  -2.532  0.00  0.00    -0.019 C 
ATOM     18  C   UNL     1       0.989  -4.691  -3.572  0.00  0.00    -0.002 C 
BRANCH  18  19
ATOM     19  C   UNL     1       1.009  -6.169  -3.580  0.00  0.00    -0.042 A 
ATOM     20  C   UNL     1       1.540  -6.867  -2.494  0.00  0.00    +0.033 A 
ATOM     21  C   UNL     1       1.557  -8.246  -2.503  0.00  0.00    +0.041 A 
ATOM     22  C   UNL     1       1.048  -8.944  -3.589  0.00  0.00    +0.029 A 
ATOM     23  C   UNL     1       0.517  -8.252  -4.677  0.00  0.00    +0.035 A 
ATOM     24  O   UNL     1       0.089  -9.159  -5.603  0.00  0.00    -0.309 OA
ATOM     25  C   UNL     1      -0.012 -10.410  -4.898  0.00  0.00    +0.432 C 
ATOM     26  O   UNL     1       0.952 -10.283  -3.836  0.00  0.00    -0.309 OA
ATOM     27  C   UNL     1       0.493  -6.870  -4.671  0.00  0.00    +0.044 A 
ENDBRANCH  18  19
ENDBRANCH  16  17
ENDBRANCH  15  16
ENDBRANCH  14  15
ENDBRANCH  13  14
TORSDOF 12
