REMARK  Name = ZINC00607790
REMARK  10 active torsions:
REMARK  status: ('A' for Active; 'I' for Inactive)
REMARK    1  A    between atoms: C1_1  and  C2_2
REMARK    2  A    between atoms: N1_4  and  C3_5
REMARK    3  A    between atoms: C8_11  and  O6_29
REMARK    4  A    between atoms: C9_12  and  O5_27
REMARK    5  A    between atoms: C10_13  and  O4_25
REMARK    6  A    between atoms: C16_20  and  O3_23
REMARK    7  A    between atoms: O3_23  and  C19_24
REMARK    8  A    between atoms: O4_25  and  C20_26
REMARK    9  A    between atoms: O5_27  and  C21_28
REMARK   10  A    between atoms: O6_29  and  C22_30
REMARK                            x       y       z     vdW  Elec       q    Type
REMARK                         _______ _______ _______ _____ _____    ______ ____
ROOT
ATOM      5  C   UNL     1      -0.786  -2.094   0.187  0.00  0.00    +0.277 C 
ATOM      6  C   UNL     1      -2.142  -2.469  -0.376  0.00  0.00    +0.051 C 
ATOM      7  C   UNL     1      -2.446  -3.946  -0.139  0.00  0.00    +0.095 C 
ATOM      8  C   UNL     1      -1.228  -4.773  -0.461  0.00  0.00    -0.023 A 
ATOM      9  C   UNL     1      -1.169  -5.493  -1.636  0.00  0.00    -0.054 A 
ATOM     10  C   UNL     1      -0.050  -6.263  -1.925  0.00  0.00    +0.131 A 
ATOM     13  C   UNL     1       1.016  -6.315  -1.033  0.00  0.00    +0.047 A 
ATOM     16  C   UNL     1       0.965  -5.590   0.150  0.00  0.00    +0.138 A 
ATOM     19  C   UNL     1      -0.162  -4.813   0.432  0.00  0.00    -0.101 A 
ATOM     20  C   UNL     1      -0.211  -4.009   1.690  0.00  0.00    -0.058 A 
ATOM     21  C   UNL     1       0.114  -4.662   2.851  0.00  0.00    +0.112 A 
ATOM     22  C   UNL     1       0.136  -4.274   4.141  0.00  0.00    -0.056 A 
ATOM     23  C   UNL     1      -0.203  -3.069   4.675  0.00  0.00    +0.104 A 
ATOM     26  C   UNL     1      -0.647  -1.965   3.957  0.00  0.00    +0.392 A 
ATOM     27  O   UNL     1      -0.976  -0.993   4.624  0.00  0.00    -0.489 OA
ATOM     28  C   UNL     1      -0.766  -1.822   2.603  0.00  0.00    -0.078 A 
ATOM     29  C   UNL     1      -0.577  -2.667   1.575  0.00  0.00    +0.026 A 
ENDROOT
BRANCH   5   3
ATOM      1  C   UNL     1       0.629   1.462   0.273  0.00  0.00    +0.100 C 
ATOM      2  C   UNL     1       0.525  -0.040   0.205  0.00  0.00    +0.514 C 
ATOM      3  N   UNL     1      -0.684  -0.634   0.254  0.00  0.00    -0.731 N 
ATOM      4  H   UNL     1      -1.487  -0.095   0.332  0.00  0.00    +0.406 HD
ATOM     30  O   UNL     1       1.528  -0.714   0.107  0.00  0.00    -0.537 OA
ENDBRANCH   5   3
BRANCH  10  11
ATOM     11  O   UNL     1       0.004  -6.970  -3.084  0.00  0.00    -0.302 OA
ATOM     12  C   UNL     1      -1.125  -6.873  -3.956  0.00  0.00    +0.245 C 
ENDBRANCH  10  11
BRANCH  13  14
ATOM     14  O   UNL     1       2.107  -7.077  -1.319  0.00  0.00    -0.312 OA
ATOM     15  C   UNL     1       3.110  -6.487  -2.149  0.00  0.00    +0.221 C 
ENDBRANCH  13  14
BRANCH  16  17
ATOM     17  O   UNL     1       2.002  -5.637   1.028  0.00  0.00    -0.320 OA
ATOM     18  C   UNL     1       2.974  -4.592   0.940  0.00  0.00    +0.234 C 
ENDBRANCH  16  17
BRANCH  23  24
ATOM     24  O   UNL     1      -0.097  -2.934   6.020  0.00  0.00    -0.283 OA
ATOM     25  C   UNL     1       0.361  -4.072   6.752  0.00  0.00    +0.253 C 
ENDBRANCH  23  24
TORSDOF 5
