REMARK  Name = ZINC95486254
REMARK  17 active torsions:
REMARK  status: ('A' for Active; 'I' for Inactive)
REMARK    1  A    between atoms: C1_1  and  C2_2
REMARK    2  A    between atoms: C3_3  and  O8_33
REMARK    3  A    between atoms: C4_4  and  C13_16
REMARK    4  A    between atoms: C5_5  and  O3_15
REMARK    5  A    between atoms: C6_6  and  C9_10
REMARK    6  A    between atoms: C7_7  and  O1_8
REMARK    7  A    between atoms: O1_8  and  C8_9
REMARK    8  A    between atoms: C9_10  and  C10_12
REMARK    9  A    between atoms: C10_12  and  C11_13
REMARK   10  A    between atoms: C10_12  and  C12_14
REMARK   11  A    between atoms: C13_16  and  C14_17
REMARK   12  A    between atoms: C14_17  and  C25_32
REMARK   13  A    between atoms: C16_19  and  C24_30
REMARK   14  A    between atoms: C18_22  and  C20_25
REMARK   15  A    between atoms: C20_25  and  C21_27
REMARK   16  A    between atoms: C21_27  and  C22_28
REMARK   17  A    between atoms: C21_27  and  C23_29
REMARK                            x       y       z     vdW  Elec       q    Type
REMARK                         _______ _______ _______ _____ _____    ______ ____
ROOT
ATOM      1  C   UNL     1      -0.322  -1.282   1.371  0.00  0.00    +0.117 C 
ATOM      2  C   UNL     1      -0.707  -2.520   0.602  0.00  0.00    -0.130 A 
ATOM      3  C   UNL     1      -0.521  -2.565  -0.775  0.00  0.00    +0.133 A 
ATOM      6  C   UNL     1      -0.872  -3.700  -1.495  0.00  0.00    -0.136 A 
ATOM     24  C   UNL     1      -1.409  -4.797  -0.847  0.00  0.00    +0.174 A 
ATOM     27  C   UNL     1      -1.600  -4.761   0.546  0.00  0.00    -0.201 A 
ATOM     33  C   UNL     1      -1.237  -3.608   1.268  0.00  0.00    +0.159 A 
ENDROOT
BRANCH   3   4
ATOM      4  O   UNL     1       0.005  -1.494  -1.420  0.00  0.00    -0.469 OA
ATOM      5  H   UNL     1       0.971  -1.455  -1.394  0.00  0.00    +0.389 HD
ENDBRANCH   3   4
BRANCH  24  25
ATOM     25  O   UNL     1      -1.751  -5.903  -1.553  0.00  0.00    -0.481 OA
ATOM     26  H   UNL     1      -1.038  -6.552  -1.638  0.00  0.00    +0.392 HD
ENDBRANCH  24  25
BRANCH  27  28
ATOM     28  C   UNL     1      -2.168  -5.914   1.241  0.00  0.00    +0.423 C 
ATOM     32  O   UNL     1      -3.372  -6.056   1.298  0.00  0.00    -0.430 OA
BRANCH  28  29
ATOM     29  C   UNL     1      -1.259  -6.928   1.886  0.00  0.00    -0.037 C 
ATOM     30  C   UNL     1      -0.909  -8.018   0.871  0.00  0.00    +0.054 C 
ATOM     31  C   UNL     1      -1.968  -7.558   3.087  0.00  0.00    +0.050 C 
ENDBRANCH  28  29
ENDBRANCH  27  28
BRANCH  33  34
ATOM     34  O   UNL     1      -1.412  -3.563   2.612  0.00  0.00    -0.330 OA
ATOM     35  C   UNL     1      -2.668  -3.073   3.087  0.00  0.00    +0.240 C 
ENDBRANCH  33  34
BRANCH   6   7
ATOM      7  C   UNL     1      -0.665  -3.736  -2.987  0.00  0.00    +0.143 C 
BRANCH   7   8
ATOM      8  C   UNL     1       0.779  -4.139  -3.293  0.00  0.00    -0.149 C 
ATOM      9  C   UNL     1       1.127  -5.424  -2.541  0.00  0.00    +0.093 C 
ATOM     10  C   UNL     1       1.719  -3.029  -2.875  0.00  0.00    +0.374 C 
ATOM     11  O   UNL     1       2.459  -3.166  -1.931  0.00  0.00    -0.408 OA
ATOM     12  C   UNL     1       1.706  -1.741  -3.672  0.00  0.00    -0.054 C 
ATOM     13  C   UNL     1       0.397  -0.991  -3.420  0.00  0.00    +0.127 C 
ATOM     14  C   UNL     1       1.819  -2.096  -5.139  0.00  0.00    +0.392 C 
ATOM     15  C   UNL     1       0.885  -3.150  -5.695  0.00  0.00    -0.082 C 
ATOM     21  O   UNL     1       2.633  -1.554  -5.847  0.00  0.00    -0.403 OA
ATOM     22  C   UNL     1       0.944  -4.357  -4.783  0.00  0.00    +0.390 C 
ATOM     23  O   UNL     1       1.119  -5.465  -5.231  0.00  0.00    -0.391 OA
BRANCH  15  16
ATOM     16  C   UNL     1      -0.522  -2.612  -5.736  0.00  0.00    +0.378 C 
ATOM     20  O   UNL     1      -0.715  -1.421  -5.699  0.00  0.00    -0.407 OA
BRANCH  16  17
ATOM     17  C   UNL     1      -1.690  -3.562  -5.824  0.00  0.00    -0.045 C 
ATOM     18  C   UNL     1      -1.942  -3.926  -7.289  0.00  0.00    +0.066 C 
ATOM     19  C   UNL     1      -2.937  -2.892  -5.243  0.00  0.00    +0.060 C 
ENDBRANCH  16  17
ENDBRANCH  15  16
ENDBRANCH   7   8
ENDBRANCH   6   7
TORSDOF 9
