REMARK  Name = ZINC95486369
REMARK  44 active torsions:
REMARK  status: ('A' for Active; 'I' for Inactive)
REMARK    1  A    between atoms: C1_1  and  C2_2
REMARK    2  A    between atoms: C2_2  and  C3_3
REMARK    3  A    between atoms: C3_3  and  C4_4
REMARK    4  A    between atoms: C4_4  and  C5_5
REMARK    5  A    between atoms: C5_5  and  C6_6
REMARK    6  A    between atoms: C6_6  and  C7_7
REMARK    7  A    between atoms: C7_7  and  C8_8
REMARK    8  A    between atoms: C8_8  and  C9_9
REMARK    9  A    between atoms: C9_9  and  C10_10
REMARK   10  A    between atoms: C10_10  and  C11_11
REMARK   11  A    between atoms: C11_11  and  C12_12
REMARK   12  A    between atoms: C12_12  and  C13_13
REMARK   13  A    between atoms: C13_13  and  C14_14
REMARK   14  A    between atoms: C14_14  and  C15_15
REMARK   15  A    between atoms: C15_15  and  C16_16
REMARK   16  A    between atoms: C16_16  and  C17_17
REMARK   17  A    between atoms: C17_17  and  C18_18
REMARK   18  A    between atoms: C18_18  and  C19_19
REMARK   19  A    between atoms: C20_20  and  C21_21
REMARK   20  A    between atoms: C21_21  and  C22_23
REMARK   21  A    between atoms: C21_21  and  O4_52
REMARK   22  A    between atoms: C22_23  and  C23_25
REMARK   23  A    between atoms: C22_23  and  N1_27
REMARK   24  A    between atoms: C23_25  and  O1_26
REMARK   25  A    between atoms: C24_28  and  C25_30
REMARK   26  A    between atoms: C25_30  and  C26_32
REMARK   27  A    between atoms: C25_30  and  O3_51
REMARK   28  A    between atoms: C27_33  and  C28_34
REMARK   29  A    between atoms: C28_34  and  C29_35
REMARK   30  A    between atoms: C29_35  and  C30_36
REMARK   31  A    between atoms: C30_36  and  C31_37
REMARK   32  A    between atoms: C31_37  and  C32_38
REMARK   33  A    between atoms: C32_38  and  C33_39
REMARK   34  A    between atoms: C33_39  and  C34_40
REMARK   35  A    between atoms: C34_40  and  C35_41
REMARK   36  A    between atoms: C35_41  and  C36_42
REMARK   37  A    between atoms: C36_42  and  C37_43
REMARK   38  A    between atoms: C37_43  and  C38_44
REMARK   39  A    between atoms: C38_44  and  C39_45
REMARK   40  A    between atoms: C39_45  and  C40_46
REMARK   41  A    between atoms: C40_46  and  C41_47
REMARK   42  A    between atoms: C41_47  and  C42_48
REMARK   43  A    between atoms: C42_48  and  C43_49
REMARK   44  A    between atoms: C43_49  and  C44_50
REMARK                            x       y       z     vdW  Elec       q    Type
REMARK                         _______ _______ _______ _____ _____    ______ ____
ROOT
ATOM     24  C   UNK A   1       6.117 -17.863  14.352  0.00  0.00    +0.227 C 
ENDROOT
BRANCH  24  25
ATOM     25  N   UNK A   1       5.787 -16.437  14.411  0.00  0.00    -0.709 N 
ATOM     26  H   UNK A   1       6.358 -15.789  13.970  0.00  0.00    +0.399 HD
ATOM     27  C   UNK A   0       4.690 -16.027  15.078  0.00  0.00    +0.495 C 
ATOM     50  O   UNK A   0       3.976 -16.838  15.628  0.00  0.00    -0.532 OA
BRANCH  27  28
ATOM     28  C   UNK A   0       4.350 -14.560  15.138  0.00  0.00    +0.258 C 
BRANCH  28  29
ATOM     29  O   UNK A   0       3.220 -14.368  15.991  0.00  0.00    -0.533 OA
ATOM     30  H   UNK A   0       2.424 -14.833  15.700  0.00  0.00    +0.384 HD
ENDBRANCH  28  29
BRANCH  28  31
ATOM     31  C   UNK A   0       4.026 -14.061  13.754  0.00  0.00    -0.089 C 
ATOM     32  C   UNK A   0       2.884 -13.462  13.524  0.00  0.00    -0.002 C 
BRANCH  32  33
ATOM     33  C   UNK A   0       2.559 -12.963  12.140  0.00  0.00    +0.050 C 
BRANCH  33  34
ATOM     34  C   UNK A   0       1.224 -13.557  11.684  0.00  0.00    +0.010 C 
BRANCH  34  35
ATOM     35  C   UNK A   0       0.895 -13.051  10.278  0.00  0.00    +0.005 C 
BRANCH  35  36
ATOM     36  C   UNK A   0      -0.440 -13.644   9.822  0.00  0.00    +0.000 C 
BRANCH  36  37
ATOM     37  C   UNK A   0      -0.769 -13.138   8.417  0.00  0.00    +0.001 C 
BRANCH  37  38
ATOM     38  C   UNK A   0      -2.104 -13.731   7.961  0.00  0.00    -0.001 C 
BRANCH  38  39
ATOM     39  C   UNK A   0      -2.434 -13.225   6.555  0.00  0.00    +0.000 C 
BRANCH  39  40
ATOM     40  C   UNK A   0      -3.768 -13.819   6.099  0.00  0.00    -0.000 C 
BRANCH  40  41
ATOM     41  C   UNK A   0      -4.098 -13.313   4.694  0.00  0.00    +0.000 C 
BRANCH  41  42
ATOM     42  C   UNK A   0      -5.432 -13.906   4.238  0.00  0.00    -0.000 C 
BRANCH  42  43
ATOM     43  C   UNK A   0      -5.762 -13.400   2.832  0.00  0.00    +0.000 C 
BRANCH  43  44
ATOM     44  C   UNK A   0      -7.096 -13.993   2.376  0.00  0.00    +0.000 C 
BRANCH  44  45
ATOM     45  C   UNK A   0      -7.426 -13.487   0.970  0.00  0.00    +0.000 C 
BRANCH  45  46
ATOM     46  C   UNK A   0      -8.761 -14.081   0.515  0.00  0.00    -0.000 C 
BRANCH  46  47
ATOM     47  C   UNK A   0      -9.090 -13.575  -0.891  0.00  0.00    -0.000 C 
BRANCH  47  48
ATOM     48  C   UNK A   0     -10.425 -14.168  -1.347  0.00  0.00    -0.006 C 
ATOM     49  C   UNK A   0     -10.754 -13.662  -2.753  0.00  0.00    +0.006 C 
ENDBRANCH  47  48
ENDBRANCH  46  47
ENDBRANCH  45  46
ENDBRANCH  44  45
ENDBRANCH  43  44
ENDBRANCH  42  43
ENDBRANCH  41  42
ENDBRANCH  40  41
ENDBRANCH  39  40
ENDBRANCH  38  39
ENDBRANCH  37  38
ENDBRANCH  36  37
ENDBRANCH  35  36
ENDBRANCH  34  35
ENDBRANCH  33  34
ENDBRANCH  32  33
ENDBRANCH  28  31
ENDBRANCH  27  28
ENDBRANCH  24  25
BRANCH  24  21
ATOM     21  C   UNK A   1       6.960 -18.140  13.105  0.00  0.00    +0.253 C 
BRANCH  21  20
ATOM     19  C   UNK A   1       6.817 -16.797  11.072  0.00  0.00    -0.022 C 
ATOM     20  C   UNK A   1       6.231 -17.641  11.884  0.00  0.00    -0.088 C 
BRANCH  19  18
ATOM     18  C   UNK A   1       6.088 -16.297   9.851  0.00  0.00    +0.044 C 
BRANCH  18  17
ATOM     17  C   UNK A   1       6.067 -14.768   9.859  0.00  0.00    +0.010 C 
BRANCH  17  16
ATOM     16  C   UNK A   1       5.327 -14.261   8.620  0.00  0.00    +0.001 C 
BRANCH  16  15
ATOM     15  C   UNK A   1       5.306 -12.731   8.628  0.00  0.00    +0.002 C 
BRANCH  15  14
ATOM     14  C   UNK A   1       4.566 -12.224   7.389  0.00  0.00    +0.000 C 
BRANCH  14  13
ATOM     13  C   UNK A   1       4.546 -10.694   7.397  0.00  0.00    +0.001 C 
BRANCH  13  12
ATOM     12  C   UNK A   1       3.806 -10.187   6.158  0.00  0.00    +0.000 C 
BRANCH  12  11
ATOM     11  C   UNK A   1       3.785  -8.658   6.166  0.00  0.00    -0.000 C 
BRANCH  11  10
ATOM     10  C   UNK A   1       3.045  -8.151   4.926  0.00  0.00    -0.000 C 
BRANCH  10   9
ATOM      9  C   UNK A   1       3.024  -6.621   4.935  0.00  0.00    +0.000 C 
BRANCH   9   8
ATOM      8  C   UNK A   1       2.284  -6.114   3.695  0.00  0.00    +0.000 C 
BRANCH   8   7
ATOM      7  C   UNK A   1       2.264  -4.584   3.704  0.00  0.00    +0.000 C 
BRANCH   7   6
ATOM      6  C   UNK A   1       1.524  -4.077   2.464  0.00  0.00    +0.000 C 
BRANCH   6   5
ATOM      5  C   UNK A   1       1.503  -2.548   2.473  0.00  0.00    +0.000 C 
BRANCH   5   4
ATOM      4  C   UNK A   1       0.763  -2.041   1.233  0.00  0.00    -0.000 C 
BRANCH   4   3
ATOM      3  C   UNK A   1       0.742  -0.511   1.242  0.00  0.00    -0.000 C 
BRANCH   3   2
ATOM      1  C   UNK A   1      -0.019   1.526   0.010  0.00  0.00    +0.006 C 
ATOM      2  C   UNK A   1       0.002  -0.004   0.002  0.00  0.00    -0.006 C 
ENDBRANCH   3   2
ENDBRANCH   4   3
ENDBRANCH   5   4
ENDBRANCH   6   5
ENDBRANCH   7   6
ENDBRANCH   8   7
ENDBRANCH   9   8
ENDBRANCH  10   9
ENDBRANCH  11  10
ENDBRANCH  12  11
ENDBRANCH  13  12
ENDBRANCH  14  13
ENDBRANCH  15  14
ENDBRANCH  16  15
ENDBRANCH  17  16
ENDBRANCH  18  17
ENDBRANCH  19  18
ENDBRANCH  21  20
BRANCH  21  22
ATOM     22  O   UNK A   1       8.215 -17.466  13.220  0.00  0.00    -0.528 OA
ATOM     23  H   UNK A   1       8.139 -16.506  13.306  0.00  0.00    +0.368 HD
ENDBRANCH  21  22
ENDBRANCH  24  21
BRANCH  24  51
ATOM     51  C   UNK A   1       6.909 -18.256  15.601  0.00  0.00    +0.172 C 
BRANCH  51  52
ATOM     52  O   UNK A   1       8.166 -17.576  15.601  0.00  0.00    -0.553 OA
ATOM     53  H   UNK A   1       8.722 -17.778  16.366  0.00  0.00    +0.376 HD
ENDBRANCH  51  52
ENDBRANCH  24  51
TORSDOF 42
