REMARK  Name = ZINC95486223
REMARK  0 active torsions:
REMARK  status: ('A' for Active; 'I' for Inactive)
REMARK                            x       y       z     vdW  Elec       q    Type
REMARK                         _______ _______ _______ _____ _____    ______ ____
ROOT
ATOM      1  C   UNL     1      -0.019   1.526   0.010  0.00  0.00    +0.005 C 
ATOM      2  C   UNL     1       1.416   2.058  -0.000  0.00  0.00    +0.010 C 
ATOM      3  C   UNL     1       1.407   3.568   0.241  0.00  0.00    +0.011 C 
ATOM      4  C   UNL     1       2.724   4.175  -0.248  0.00  0.00    +0.059 C 
ATOM      5  C   UNL     1       2.430   5.379  -1.145  0.00  0.00    +0.154 C 
ATOM      6  C   UNL     1       3.630   6.329  -1.133  0.00  0.00    +0.048 C 
ATOM      7  C   UNL     1       3.401   7.444  -2.154  0.00  0.00    +0.256 C 
ATOM      8  N   UNL     1       3.151   6.860  -3.479  0.00  0.00    -0.405 N 
ATOM      9  H   UNL     1       3.952   6.314  -3.763  0.00  0.00    +0.425 HD
ATOM     10  C   UNL     1       2.924   7.942  -4.444  0.00  0.00    +0.262 C 
ATOM     11  C   UNL     1       2.787   7.365  -5.853  0.00  0.00    +0.059 C 
ATOM     12  C   UNL     1       2.793   5.837  -5.782  0.00  0.00    +0.044 C 
ATOM     13  C   UNL     1       1.715   5.375  -4.799  0.00  0.00    +0.016 C 
ATOM     14  C   UNL     1       1.737   3.849  -4.697  0.00  0.00    +0.051 C 
ATOM     15  C   UNL     1       0.724   3.253  -5.676  0.00  0.00    +0.008 C 
ATOM     16  C   UNL     1      -0.299   2.409  -4.915  0.00  0.00    +0.008 C 
ATOM     17  C   UNL     1      -0.088   0.930  -5.242  0.00  0.00    +0.030 C 
ATOM     18  C   UNL     1      -1.374   0.334  -5.818  0.00  0.00    +0.042 C 
ATOM     19  C   UNL     1      -2.106  -0.447  -4.729  0.00  0.00    +0.161 C 
ATOM     20  C   UNL     1      -2.575  -1.797  -5.278  0.00  0.00    +0.052 C 
ATOM     21  C   UNL     1      -3.372  -2.514  -4.193  0.00  0.00    +0.258 C 
ATOM     22  N   UNL     1      -2.845  -2.194  -2.852  0.00  0.00    -0.404 N 
ATOM     23  H   UNL     1      -3.330  -1.376  -2.503  0.00  0.00    +0.423 HD
ATOM     24  C   UNL     1      -3.161  -3.345  -1.997  0.00  0.00    +0.262 C 
ATOM     25  C   UNL     1      -2.622  -3.121  -0.585  0.00  0.00    +0.063 C 
ATOM     26  C   UNL     1      -1.095  -3.024  -0.692  0.00  0.00    +0.055 C 
ATOM     27  C   UNL     1      -0.741  -1.818  -1.549  0.00  0.00    +0.024 C 
ATOM     28  C   UNL     1      -1.160  -0.526  -0.848  0.00  0.00    +0.022 C 
ATOM     29  C   UNL     1      -1.413  -1.920  -2.918  0.00  0.00    +0.339 C 
ATOM     30  O   UNL     1      -1.216  -0.685  -3.629  0.00  0.00    -0.352 OA
ATOM     31  C   UNL     1       1.970   5.990  -3.422  0.00  0.00    +0.337 C 
ATOM     32  O   UNL     1       2.199   4.936  -2.482  0.00  0.00    -0.341 OA
ATOM     33  C   UNL     1       0.002  -0.004   0.002  0.00  0.00    +0.017 C 
ENDROOT
TORSDOF 0
