REMARK  Name = ZINC95486271
REMARK  8 active torsions:
REMARK  status: ('A' for Active; 'I' for Inactive)
REMARK    1  A    between atoms: C1_1  and  C2_2
REMARK    2  A    between atoms: C2_2  and  C4_4
REMARK    3  A    between atoms: C5_5  and  C6_6
REMARK    4  A    between atoms: C7_7  and  O4_26
REMARK    5  A    between atoms: C9_9  and  O3_24
REMARK    6  A    between atoms: C12_13  and  C15_18
REMARK    7  A    between atoms: O3_24  and  C21_25
REMARK    8  A    between atoms: O4_26  and  C22_27
REMARK                            x       y       z     vdW  Elec       q    Type
REMARK                         _______ _______ _______ _____ _____    ______ ____
ROOT
ATOM      5  C   UNL     1       0.251   1.280  -2.493  0.00  0.00    -0.161 A 
ATOM      6  C   UNL     1      -0.694   2.090  -1.842  0.00  0.00    +0.249 A 
ATOM      9  C   UNL     1      -0.597   3.471  -1.900  0.00  0.00    -0.202 A 
ATOM     10  C   UNL     1       0.434   4.069  -2.606  0.00  0.00    +0.258 A 
ATOM     13  C   UNL     1       1.384   3.272  -3.266  0.00  0.00    -0.319 A 
ATOM     14  C   UNL     1       2.476   3.889  -4.029  0.00  0.00    +0.404 C 
ATOM     15  O   UNL     1       2.477   5.073  -4.298  0.00  0.00    -0.433 OA
ATOM     16  C   UNL     1       3.613   2.971  -4.449  0.00  0.00    +0.036 C 
ATOM     17  C   UNL     1       2.976   1.647  -4.898  0.00  0.00    +0.234 C 
ATOM     24  O   UNL     1       2.224   1.095  -3.818  0.00  0.00    -0.288 OA
ATOM     25  C   UNL     1       1.303   1.872  -3.203  0.00  0.00    +0.256 A 
ENDROOT
BRANCH  17  18
ATOM     18  C   UNL     1       4.058   0.680  -5.305  0.00  0.00    -0.091 A 
ATOM     19  C   UNL     1       4.681  -0.101  -4.349  0.00  0.00    +0.039 A 
ATOM     20  C   UNL     1       5.673  -0.988  -4.722  0.00  0.00    +0.006 A 
ATOM     21  C   UNL     1       6.042  -1.095  -6.050  0.00  0.00    +0.014 A 
ATOM     22  C   UNL     1       5.418  -0.315  -7.005  0.00  0.00    +0.008 A 
ATOM     23  C   UNL     1       4.423   0.570  -6.633  0.00  0.00    +0.023 A 
ENDBRANCH  17  18
BRANCH   5   4
ATOM      3  C   UNL     1       0.178  -0.807  -1.230  0.00  0.00    +0.016 C 
ATOM      4  C   UNL     1       0.141  -0.184  -2.424  0.00  0.00    +0.039 C 
BRANCH   3   2
ATOM      1  C   UNL     1      -0.493  -0.082   1.147  0.00  0.00    +0.076 C 
ATOM      2  C   UNL     1       0.467  -0.043  -0.014  0.00  0.00    -0.088 C 
ATOM     26  C   UNL     1       1.579   0.688   0.066  0.00  0.00    +0.005 C 
ENDBRANCH   3   2
ENDBRANCH   5   4
BRANCH   6   7
ATOM      7  O   UNL     1      -1.710   1.515  -1.151  0.00  0.00    -0.289 OA
ATOM      8  C   UNL     1      -2.638   2.394  -0.512  0.00  0.00    +0.246 C 
ENDBRANCH   6   7
BRANCH  10  11
ATOM     11  O   UNL     1       0.525   5.420  -2.659  0.00  0.00    -0.283 OA
ATOM     12  C   UNL     1      -0.476   6.166  -1.964  0.00  0.00    +0.246 C 
ENDBRANCH  10  11
TORSDOF 5
