REMARK  Name = ZINC95486011
REMARK  7 active torsions:
REMARK  status: ('A' for Active; 'I' for Inactive)
REMARK    1  A    between atoms: C1_1  and  C2_2
REMARK    2  A    between atoms: C2_2  and  C4_4
REMARK    3  A    between atoms: C17_20  and  O5_30
REMARK    4  A    between atoms: C18_21  and  O4_28
REMARK    5  A    between atoms: C21_24  and  O3_27
REMARK    6  A    between atoms: O4_28  and  C23_29
REMARK    7  A    between atoms: O5_30  and  C24_31
REMARK                            x       y       z     vdW  Elec       q    Type
REMARK                         _______ _______ _______ _____ _____    ______ ____
ROOT
ATOM      3  C   UNL     1      -0.000  -0.750  -1.307  0.00  0.00    +0.214 C 
ATOM      4  C   UNL     1      -1.299  -0.460  -2.101  0.00  0.00    +0.103 C 
ATOM      5  C   UNL     1      -0.793  -0.414  -3.517  0.00  0.00    -0.230 A 
ATOM      6  C   UNL     1       0.602  -0.301  -3.455  0.00  0.00    +0.188 A 
ATOM      7  C   UNL     1       1.364  -0.243  -4.630  0.00  0.00    -0.033 A 
ATOM      8  C   UNL     1       0.701  -0.295  -5.828  0.00  0.00    +0.154 A 
ATOM      9  C   UNL     1      -0.690  -0.403  -5.893  0.00  0.00    -0.282 A 
ATOM     10  C   UNL     1      -1.374  -0.455  -7.199  0.00  0.00    +0.387 C 
ATOM     11  O   UNL     1      -0.771  -0.623  -8.239  0.00  0.00    -0.429 OA
ATOM     12  C   UNL     1      -2.879  -0.285  -7.155  0.00  0.00    +0.116 C 
ATOM     15  C   UNL     1      -3.510  -0.792  -8.421  0.00  0.00    -0.121 A 
ATOM     16  C   UNL     1      -2.876  -0.524  -9.626  0.00  0.00    +0.009 A 
ATOM     17  C   UNL     1      -3.429  -0.947 -10.821  0.00  0.00    +0.095 A 
ATOM     20  C   UNL     1      -4.632  -1.647 -10.810  0.00  0.00    +0.120 A 
ATOM     23  C   UNL     1      -5.257  -1.916  -9.607  0.00  0.00    -0.045 A 
ATOM     24  C   UNL     1      -4.697  -1.493  -8.407  0.00  0.00    -0.051 A 
ATOM     25  C   UNL     1      -5.434  -1.835  -7.138  0.00  0.00    +0.100 C 
ATOM     26  C   UNL     1      -4.909  -1.025  -5.953  0.00  0.00    +0.077 C 
ATOM     27  C   UNL     1      -3.384  -1.106  -5.962  0.00  0.00    +0.203 C 
ATOM     28  O   UNL     1      -2.817  -0.579  -4.765  0.00  0.00    -0.281 OA
ATOM     29  C   UNL     1      -1.470  -0.467  -4.717  0.00  0.00    +0.240 A 
ATOM     30  O   UNL     1       1.036  -0.255  -2.178  0.00  0.00    -0.282 OA
ENDROOT
BRANCH   3   2
ATOM      1  C   UNL     1      -0.018   1.503   0.010  0.00  0.00    +0.087 C 
ATOM      2  C   UNL     1       0.002  -0.004   0.002  0.00  0.00    -0.132 C 
ATOM     31  C   UNL     1       0.022  -0.665   1.133  0.00  0.00    +0.050 C 
ENDBRANCH   3   2
BRANCH  12  13
ATOM     13  O   UNL     1      -3.212   1.092  -6.967  0.00  0.00    -0.514 OA
ATOM     14  H   UNL     1      -2.922   1.669  -7.686  0.00  0.00    +0.385 HD
ENDBRANCH  12  13
BRANCH  17  18
ATOM     18  O   UNL     1      -2.802  -0.680 -11.998  0.00  0.00    -0.304 OA
ATOM     19  C   UNL     1      -1.572   0.043 -11.928  0.00  0.00    +0.240 C 
ENDBRANCH  17  18
BRANCH  20  21
ATOM     21  O   UNL     1      -5.189  -2.065 -11.978  0.00  0.00    -0.303 OA
ATOM     22  C   UNL     1      -6.424  -2.779 -11.889  0.00  0.00    +0.240 C 
ENDBRANCH  20  21
TORSDOF 4
