REMARK  Name = ZINC00057731
REMARK  2 active torsions:
REMARK  status: ('A' for Active; 'I' for Inactive)
REMARK    1  A    between atoms: C1_1  and  O1_2
REMARK    2  A    between atoms: O1_2  and  C2_3
REMARK                            x       y       z     vdW  Elec       q    Type
REMARK                         _______ _______ _______ _____ _____    ______ ____
ROOT
ATOM      3  C   UNL     1       0.605  -0.606  -1.054  0.00  0.00    +0.216 A 
ATOM      4  C   UNL     1      -0.131  -0.926  -2.202  0.00  0.00    -0.193 A 
ATOM      5  C   UNL     1      -1.559  -0.620  -2.287  0.00  0.00    +0.167 A 
ATOM      6  C   UNL     1      -2.221  -0.953  -3.426  0.00  0.00    -0.079 A 
ATOM      7  C   UNL     1      -1.529  -1.577  -4.482  0.00  0.00    +0.511 A 
ATOM      8  O   UNL     1      -0.219  -1.856  -4.401  0.00  0.00    -0.267 OA
ATOM      9  O   UNL     1      -2.135  -1.870  -5.497  0.00  0.00    -0.455 OA
ATOM     10  C   UNL     1       0.502  -1.552  -3.297  0.00  0.00    +0.185 A 
ATOM     11  C   UNL     1       1.851  -1.851  -3.239  0.00  0.00    +0.024 A 
ATOM     12  C   UNL     1       2.589  -1.537  -2.105  0.00  0.00    +0.123 A 
ATOM     13  O   UNL     1       3.886  -1.708  -1.778  0.00  0.00    -0.185 OA
ATOM     14  C   UNL     1       4.141  -1.220  -0.550  0.00  0.00    +0.232 A 
ATOM     15  C   UNL     1       3.022  -0.721  -0.009  0.00  0.00    -0.026 A 
ATOM     16  C   UNL     1       1.965  -0.908  -1.012  0.00  0.00    -0.173 A 
ENDROOT
BRANCH   3   2
ATOM      1  C   UNL     1      -0.017   1.425   0.010  0.00  0.00    +0.246 C 
ATOM      2  O   UNL     1       0.002  -0.004   0.002  0.00  0.00    -0.328 OA
ENDBRANCH   3   2
TORSDOF 1
