REMARK  Name = ZINC95486064
REMARK  4 active torsions:
REMARK  status: ('A' for Active; 'I' for Inactive)
REMARK    1  A    between atoms: C1_1  and  C2_2
REMARK    2  A    between atoms: C6_8  and  C14_19
REMARK    3  A    between atoms: C12_14  and  O1_16
REMARK    4  A    between atoms: O1_16  and  C13_17
REMARK                            x       y       z     vdW  Elec       q    Type
REMARK                         _______ _______ _______ _____ _____    ______ ____
ROOT
ATOM      1  C   UNL     1      -0.107   1.481  -0.002  0.00  0.00    +0.032 C 
ATOM      2  C   UNL     1      -0.031  -0.048   0.008  0.00  0.00    -0.004 C 
ATOM      3  C   UNL     1      -1.440  -0.615   0.146  0.00  0.00    +0.026 C 
ATOM      4  C   UNL     1      -1.425  -2.145   0.306  0.00  0.00    +0.027 C 
ATOM      5  C   UNL     1      -0.581  -2.456   1.528  0.00  0.00    +0.018 C 
ATOM      6  C   UNL     1      -0.319  -3.915   1.812  0.00  0.00    -0.169 C 
ATOM      7  C   UNL     1      -1.287  -5.066   1.907  0.00  0.00    +0.128 C 
ATOM      8  C   UNL     1       0.983  -3.902   1.955  0.00  0.00    +0.012 C 
ATOM      9  C   UNL     1       1.823  -4.835   1.083  0.00  0.00    +0.105 C 
ATOM     10  C   UNL     1       1.440  -4.156  -0.271  0.00  0.00    +0.035 C 
ATOM     11  C   UNL     1       1.395  -2.642  -0.119  0.00  0.00    +0.007 C 
ATOM     12  O   UNL     1       1.523  -2.697   2.273  0.00  0.00    -0.302 OA
ATOM     13  C   UNL     1       0.874  -2.007   1.175  0.00  0.00    +0.060 C 
ATOM     14  C   UNL     1       0.875  -0.498   1.167  0.00  0.00    +0.187 C 
ENDROOT
BRANCH  14  15
ATOM     15  O   UNL     1       0.363  -0.004   2.406  0.00  0.00    -0.366 OA
ATOM     16  C   UNL     1       1.371   0.304   3.370  0.00  0.00    +0.205 C 
ENDBRANCH  14  15
TORSDOF 1
