REMARK  Name = ZINC00086470
REMARK  5 active torsions:
REMARK  status: ('A' for Active; 'I' for Inactive)
REMARK    1  A    between atoms: C1_1  and  C2_2
REMARK    2  A    between atoms: C2_2  and  C21_26
REMARK    3  A    between atoms: C8_8  and  O3_23
REMARK    4  A    between atoms: C11_12  and  C14_17
REMARK    5  A    between atoms: O3_23  and  C20_24
REMARK                            x       y       z     vdW  Elec       q    Type
REMARK                         _______ _______ _______ _____ _____    ______ ____
ROOT
ATOM      1  C   UNL     1      -8.135   2.218   5.133  0.00  0.00    +0.085 C 
ATOM      2  C   UNL     1      -7.150   1.560   4.165  0.00  0.00    +0.148 C 
ATOM      3  C   UNL     1      -6.799   0.161   4.676  0.00  0.00    +0.036 C 
ATOM      4  C   UNL     1      -5.896   2.391   4.092  0.00  0.00    -0.069 C 
ATOM      5  C   UNL     1      -5.159   2.387   2.982  0.00  0.00    +0.071 C 
ATOM      6  C   UNL     1      -5.619   1.563   1.845  0.00  0.00    -0.215 A 
ATOM      7  C   UNL     1      -6.950   1.111   1.840  0.00  0.00    +0.243 A 
ATOM      8  C   UNL     1      -7.422   0.336   0.795  0.00  0.00    -0.133 A 
ATOM      9  C   UNL     1      -6.582  -0.002  -0.254  0.00  0.00    +0.257 A 
ATOM     12  C   UNL     1      -5.249   0.441  -0.257  0.00  0.00    -0.315 A 
ATOM     13  C   UNL     1      -4.344   0.084  -1.355  0.00  0.00    +0.405 C 
ATOM     14  O   UNL     1      -4.635  -0.768  -2.169  0.00  0.00    -0.429 OA
ATOM     15  C   UNL     1      -3.026   0.833  -1.421  0.00  0.00    +0.035 C 
ATOM     16  C   UNL     1      -2.514   0.980   0.019  0.00  0.00    +0.235 C 
ATOM     23  O   UNL     1      -3.485   1.681   0.796  0.00  0.00    -0.291 OA
ATOM     24  C   UNL     1      -4.761   1.235   0.798  0.00  0.00    +0.263 A 
ATOM     25  O   UNL     1      -7.756   1.452   2.877  0.00  0.00    -0.297 OA
ENDROOT
BRANCH  16  17
ATOM     17  C   UNL     1      -1.219   1.751   0.017  0.00  0.00    -0.093 A 
ATOM     18  C   UNL     1      -0.013   1.076   0.008  0.00  0.00    +0.024 A 
ATOM     19  C   UNL     1       1.175   1.783   0.000  0.00  0.00    +0.009 A 
ATOM     20  C   UNL     1       1.156   3.165   0.008  0.00  0.00    +0.015 A 
ATOM     21  C   UNL     1      -0.050   3.840   0.022  0.00  0.00    +0.006 A 
ATOM     22  C   UNL     1      -1.238   3.133   0.029  0.00  0.00    +0.037 A 
ENDBRANCH  16  17
BRANCH   9  10
ATOM     10  O   UNL     1      -7.046  -0.760  -1.277  0.00  0.00    -0.281 OA
ATOM     11  C   UNL     1      -8.412  -1.175  -1.209  0.00  0.00    +0.252 C 
ENDBRANCH   9  10
TORSDOF 2
