REMARK  Name = ZINC14760755
REMARK  12 active torsions:
REMARK  status: ('A' for Active; 'I' for Inactive)
REMARK    1  A    between atoms: C1_1  and  C2_2
REMARK    2  A    between atoms: C6_6  and  O1_8
REMARK    3  A    between atoms: C12_14  and  O4_18
REMARK    4  A    between atoms: C14_16  and  O3_17
REMARK    5  A    between atoms: O4_18  and  C15_19
REMARK    6  A    between atoms: C15_19  and  C16_20
REMARK    7  A    between atoms: C17_21  and  C18_22
REMARK    8  A    between atoms: C17_21  and  C19_23
REMARK    9  A    between atoms: C19_23  and  C20_24
REMARK   10  A    between atoms: C20_24  and  C21_25
REMARK   11  A    between atoms: C22_26  and  C23_27
REMARK   12  A    between atoms: C22_26  and  C24_28
REMARK                            x       y       z     vdW  Elec       q    Type
REMARK                         _______ _______ _______ _____ _____    ______ ____
ROOT
ATOM      1  C   UNL     1      -0.380   3.187   4.594  0.00  0.00    +0.101 C 
ATOM      2  C   UNL     1      -0.879   3.714   3.274  0.00  0.00    -0.035 A 
ATOM      3  C   UNL     1      -0.412   3.162   2.094  0.00  0.00    -0.009 A 
ATOM      4  C   UNL     1      -0.861   3.631   0.870  0.00  0.00    -0.015 A 
ATOM      5  C   UNL     1      -1.793   4.667   0.845  0.00  0.00    -0.192 A 
ATOM      6  C   UNL     1      -2.288   5.170  -0.453  0.00  0.00    +0.440 C 
ATOM      7  C   UNL     1      -2.081   4.326  -1.644  0.00  0.00    -0.229 A 
ATOM      8  C   UNL     1      -1.149   3.287  -1.600  0.00  0.00    +0.022 A 
ATOM      9  C   UNL     1      -0.984   2.491  -2.705  0.00  0.00    -0.033 A 
ATOM     10  C   UNL     1      -1.726   2.716  -3.859  0.00  0.00    +0.186 A 
ATOM     22  C   UNL     1      -2.647   3.751  -3.914  0.00  0.00    -0.114 A 
ATOM     23  C   UNL     1      -2.828   4.564  -2.807  0.00  0.00    +0.214 A 
ATOM     26  O   UNL     1      -2.848   6.247  -0.536  0.00  0.00    -0.425 OA
ATOM     27  C   UNL     1      -2.264   5.227   2.038  0.00  0.00    +0.173 A 
ATOM     30  C   UNL     1      -0.319   3.013  -0.383  0.00  0.00    +0.168 C 
ATOM     31  C   UNL     1      -1.799   4.744   3.253  0.00  0.00    -0.026 A 
ENDROOT
BRANCH  23  24
ATOM     24  O   UNL     1      -3.723   5.583  -2.848  0.00  0.00    -0.482 OA
ATOM     25  H   UNL     1      -3.350   6.421  -3.155  0.00  0.00    +0.403 HD
ENDBRANCH  23  24
BRANCH  27  28
ATOM     28  O   UNL     1      -3.169   6.237   2.007  0.00  0.00    -0.479 OA
ATOM     29  H   UNL     1      -4.089   5.941   2.016  0.00  0.00    +0.395 HD
ENDBRANCH  27  28
BRANCH  10  11
ATOM     11  O   UNL     1      -1.547   1.916  -4.941  0.00  0.00    -0.301 OA
BRANCH  11  12
ATOM     12  C   UNL     1      -2.339   2.199  -6.096  0.00  0.00    +0.235 C 
BRANCH  12  13
ATOM     13  C   UNL     1      -2.006   1.215  -7.187  0.00  0.00    -0.052 C 
ATOM     14  C   UNL     1      -1.826   1.635  -8.415  0.00  0.00    -0.096 C 
ATOM     21  C   UNL     1      -2.074   3.080  -8.761  0.00  0.00    +0.078 C 
BRANCH  14  15
ATOM     15  C   UNL     1      -1.370   0.672  -9.481  0.00  0.00    +0.067 C 
BRANCH  15  16
ATOM     16  C   UNL     1      -2.587   0.131 -10.233  0.00  0.00    +0.056 C 
BRANCH  16  17
ATOM     17  C   UNL     1      -2.132  -0.832 -11.299  0.00  0.00    -0.062 C 
ATOM     18  C   UNL     1      -2.551  -2.073 -11.284  0.00  0.00    -0.130 C 
ATOM     19  C   UNL     1      -2.203  -3.000 -12.420  0.00  0.00    +0.072 C 
ATOM     20  C   UNL     1      -3.382  -2.573 -10.131  0.00  0.00    +0.072 C 
ENDBRANCH  16  17
ENDBRANCH  15  16
ENDBRANCH  14  15
ENDBRANCH  12  13
ENDBRANCH  11  12
ENDBRANCH  10  11
TORSDOF 8
