REMARK  Name = ZINC95486014
REMARK  4 active torsions:
REMARK  status: ('A' for Active; 'I' for Inactive)
REMARK    1  A    between atoms: C1_1  and  C2_2
REMARK    2  A    between atoms: C2_2  and  C21_29
REMARK    3  A    between atoms: C9_10  and  C14_18
REMARK    4  A    between atoms: C19_23  and  O4_24
REMARK                            x       y       z     vdW  Elec       q    Type
REMARK                         _______ _______ _______ _____ _____    ______ ____
ROOT
ATOM      1  C   UNL     1      -0.019   1.526   0.010  0.00  0.00    +0.004 C 
ATOM      2  C   UNL     1       0.002  -0.004   0.002  0.00  0.00    +0.165 C 
ATOM      3  C   UNL     1       0.766  -0.474  -1.237  0.00  0.00    +0.049 C 
ATOM      4  C   UNL     1      -1.407  -0.501  -0.091  0.00  0.00    -0.142 C 
ATOM      5  C   UNL     1      -2.017  -1.108   0.920  0.00  0.00    +0.003 C 
ATOM      6  C   UNL     1      -3.445  -1.568   0.822  0.00  0.00    +0.082 C 
ATOM      7  C   UNL     1      -3.686  -2.749   1.720  0.00  0.00    +0.342 C 
ATOM      8  O   UNL     1      -4.705  -3.582   1.443  0.00  0.00    -0.616 OA
ATOM      9  C   UNL     1      -2.905  -3.002   2.803  0.00  0.00    -0.486 C 
ATOM     10  C   UNL     1      -3.216  -4.066   3.691  0.00  0.00    +0.405 C 
ATOM     11  C   UNL     1      -2.346  -4.326   4.893  0.00  0.00    -0.013 C 
ATOM     23  C   UNL     1      -0.952  -3.734   4.679  0.00  0.00    +0.248 C 
ATOM     24  O   UNL     1      -1.070  -2.364   4.273  0.00  0.00    -0.319 OA
ATOM     25  O   UNL     1      -4.184  -4.767   3.481  0.00  0.00    -0.485 OA
ATOM     26  C   UNL     1      -1.712  -2.173   3.090  0.00  0.00    +0.234 C 
ATOM     27  C   UNL     1      -1.282  -1.288   2.180  0.00  0.00    -0.294 C 
ATOM     28  C   UNL     1      -0.043  -0.451   2.383  0.00  0.00    +0.274 C 
ATOM     29  O   UNL     1       0.691  -0.454   1.156  0.00  0.00    -0.380 OA
ENDROOT
BRANCH  11  12
ATOM     12  C   UNL     1      -2.224  -5.813   5.107  0.00  0.00    -0.060 A 
ATOM     13  C   UNL     1      -1.675  -6.611   4.121  0.00  0.00    +0.070 A 
ATOM     14  C   UNL     1      -1.562  -7.977   4.315  0.00  0.00    +0.028 A 
ATOM     15  C   UNL     1      -2.003  -8.548   5.507  0.00  0.00    +0.039 A 
ATOM     16  O   UNL     1      -1.784  -9.894   5.453  0.00  0.00    -0.310 OA
ATOM     17  C   UNL     1      -1.582 -10.196   4.059  0.00  0.00    +0.427 C 
ATOM     18  C   UNL     1      -2.552  -7.747   6.494  0.00  0.00    +0.015 A 
ATOM     19  O   UNL     1      -1.067  -8.967   3.515  0.00  0.00    -0.307 OA
ATOM     20  C   UNL     1      -2.658  -6.378   6.297  0.00  0.00    +0.123 A 
BRANCH  20  21
ATOM     21  O   UNL     1      -3.193  -5.591   7.268  0.00  0.00    -0.488 OA
ATOM     22  H   UNL     1      -4.151  -5.479   7.201  0.00  0.00    +0.394 HD
ENDBRANCH  20  21
ENDBRANCH  11  12
TORSDOF 2
