REMARK  Name = ZINC95486102
REMARK  7 active torsions:
REMARK  status: ('A' for Active; 'I' for Inactive)
REMARK    1  A    between atoms: C2_2  and  C3_3
REMARK    2  A    between atoms: C13_20  and  O6_25
REMARK    3  A    between atoms: C14_22  and  O5_24
REMARK    4  A    between atoms: O6_25  and  C15_26
REMARK    5  A    between atoms: C15_26  and  C16_28
REMARK    6  A    between atoms: C16_28  and  C17_29
REMARK    7  A    between atoms: C17_29  and  O8_30
REMARK                            x       y       z     vdW  Elec       q    Type
REMARK                         _______ _______ _______ _____ _____    ______ ____
ROOT
ATOM      3  C   UNL     1      -1.240  -0.856  -0.050  0.00  0.00    -0.043 C 
ATOM      4  C   UNL     1      -1.290  -1.739   1.199  0.00  0.00    +0.269 C 
ATOM      5  O   UNL     1      -0.108  -2.542   1.277  0.00  0.00    -0.347 OA
ATOM      6  C   UNL     1       0.130  -3.340   0.204  0.00  0.00    +0.522 C 
ATOM      7  C   UNL     1      -0.016  -2.708  -1.129  0.00  0.00    -0.213 C 
ATOM      8  C   UNL     1       0.832  -2.964  -2.122  0.00  0.00    +0.182 C 
ATOM      9  O   UNL     1       0.444  -4.508   0.330  0.00  0.00    -0.435 OA
ATOM     10  C   UNL     1      -2.465   0.052  -0.073  0.00  0.00    +0.186 C 
ATOM     13  C   UNL     1      -3.752  -0.721  -0.277  0.00  0.00    +0.165 C 
ATOM     21  C   UNL     1      -3.629  -1.499  -1.576  0.00  0.00    +0.011 C 
ATOM     22  C   UNL     1      -4.759  -2.503  -1.863  0.00  0.00    +0.061 C 
ATOM     23  C   UNL     1      -4.007  -3.586  -2.639  0.00  0.00    +0.483 C 
ATOM     24  O   UNL     1      -2.686  -3.446  -2.411  0.00  0.00    -0.316 OA
ATOM     25  O   UNL     1      -4.516  -4.418  -3.353  0.00  0.00    -0.436 OA
ATOM     26  C   UNL     1      -2.478  -2.526  -1.361  0.00  0.00    +0.165 C 
ATOM     27  C   UNL     1      -1.181  -1.753  -1.302  0.00  0.00    +0.105 C 
ENDROOT
BRANCH   3   2
ATOM      1  C   UNL     1       0.747   0.003   1.080  0.00  0.00    +0.043 C 
ATOM      2  C   UNL     1       0.002  -0.004   0.002  0.00  0.00    -0.020 C 
ENDBRANCH   3   2
BRANCH  10  11
ATOM     11  O   UNL     1      -2.328   0.992  -1.140  0.00  0.00    -0.545 OA
ATOM     12  H   UNL     1      -3.070   1.607  -1.220  0.00  0.00    +0.387 HD
ENDBRANCH  10  11
BRANCH  13  14
ATOM     14  O   UNL     1      -4.861   0.178  -0.351  0.00  0.00    -0.335 OA
BRANCH  14  15
ATOM     15  C   UNL     1      -5.490   0.465   0.799  0.00  0.00    +0.467 C 
ATOM     20  O   UNL     1      -5.113  -0.030   1.834  0.00  0.00    -0.498 OA
BRANCH  15  16
ATOM     16  C   UNL     1      -6.669   1.404   0.799  0.00  0.00    +0.121 C 
BRANCH  16  17
ATOM     17  C   UNL     1      -7.197   1.559   2.226  0.00  0.00    +0.202 C 
BRANCH  17  18
ATOM     18  O   UNL     1      -8.315   2.450   2.226  0.00  0.00    -0.573 OA
ATOM     19  H   UNL     1      -8.702   2.596   3.100  0.00  0.00    +0.391 HD
ENDBRANCH  17  18
ENDBRANCH  16  17
ENDBRANCH  15  16
ENDBRANCH  14  15
ENDBRANCH  13  14
TORSDOF 7
