REMARK  Name = ZINC00135449
REMARK  7 active torsions:
REMARK  status: ('A' for Active; 'I' for Inactive)
REMARK    1  A    between atoms: C1_1  and  N1_2
REMARK    2  A    between atoms: C6_7  and  O4_25
REMARK    3  A    between atoms: C7_8  and  O3_23
REMARK    4  A    between atoms: C15_17  and  O2_21
REMARK    5  A    between atoms: C16_18  and  O1_20
REMARK    6  A    between atoms: O2_21  and  C18_22
REMARK    7  A    between atoms: O3_23  and  C19_24
REMARK                            x       y       z     vdW  Elec       q    Type
REMARK                         _______ _______ _______ _____ _____    ______ ____
ROOT
ATOM      1  C   UNL     1       0.660   1.520  -0.041  0.00  0.00    +0.331 C 
ATOM      2  N   UNL     1       0.445   0.067  -0.011  0.00  0.00    -0.383 N 
ATOM      3  H   UNL     1      -0.540  -0.124   0.094  0.00  0.00    +0.426 HD
ATOM      4  C   UNL     1       0.926  -0.522  -1.260  0.00  0.00    +0.268 C 
ATOM      5  C   UNL     1       0.547  -1.992  -1.346  0.00  0.00    +0.129 C 
ATOM      6  C   UNL     1       0.679  -2.689  -0.022  0.00  0.00    -0.067 A 
ATOM      7  C   UNL     1       0.506  -4.067   0.014  0.00  0.00    +0.023 A 
ATOM      8  C   UNL     1       0.640  -4.769   1.198  0.00  0.00    +0.128 A 
ATOM     11  C   UNL     1       0.947  -4.088   2.371  0.00  0.00    +0.091 A 
ATOM     14  C   UNL     1       1.100  -2.704   2.342  0.00  0.00    -0.008 A 
ATOM     15  C   UNL     1       1.426  -1.960   3.582  0.00  0.00    -0.029 A 
ATOM     16  C   UNL     1       1.921  -2.626   4.700  0.00  0.00    -0.004 A 
ATOM     17  C   UNL     1       2.235  -1.910   5.842  0.00  0.00    +0.112 A 
ATOM     20  C   UNL     1       2.057  -0.529   5.867  0.00  0.00    +0.097 A 
ATOM     23  C   UNL     1       1.557   0.130   4.755  0.00  0.00    +0.047 A 
ATOM     24  C   UNL     1       1.233  -0.581   3.618  0.00  0.00    -0.104 A 
ATOM     25  C   UNL     1       0.669   0.123   2.414  0.00  0.00    +0.116 C 
ATOM     26  C   UNL     1       0.973  -2.005   1.138  0.00  0.00    -0.123 A 
ATOM     27  C   UNL     1       1.180  -0.513   1.123  0.00  0.00    +0.241 C 
ENDROOT
BRANCH   8   9
ATOM      9  O   UNL     1       0.471  -6.118   1.216  0.00  0.00    -0.485 OA
ATOM     10  H   UNL     1       1.284  -6.618   1.059  0.00  0.00    +0.407 HD
ENDBRANCH   8   9
BRANCH  11  12
ATOM     12  O   UNL     1       1.097  -4.769   3.539  0.00  0.00    -0.325 OA
ATOM     13  C   UNL     1      -0.091  -5.061   4.277  0.00  0.00    +0.246 C 
ENDBRANCH  11  12
BRANCH  17  18
ATOM     18  O   UNL     1       2.717  -2.555   6.938  0.00  0.00    -0.300 OA
ATOM     19  C   UNL     1       2.874  -3.972   6.840  0.00  0.00    +0.249 C 
ENDBRANCH  17  18
BRANCH  20  21
ATOM     21  O   UNL     1       2.375   0.174   6.987  0.00  0.00    -0.482 OA
ATOM     22  H   UNL     1       3.289   0.489   7.007  0.00  0.00    +0.396 HD
ENDBRANCH  20  21
TORSDOF 4
