REMARK  Name = ZINC95486252
REMARK  5 active torsions:
REMARK  status: ('A' for Active; 'I' for Inactive)
REMARK    1  A    between atoms: C1_1  and  C2_2
REMARK    2  A    between atoms: C6_6  and  C18_23
REMARK    3  A    between atoms: C6_6  and  C19_24
REMARK    4  A    between atoms: C10_11  and  C17_22
REMARK    5  A    between atoms: C14_16  and  O2_21
REMARK                            x       y       z     vdW  Elec       q    Type
REMARK                         _______ _______ _______ _____ _____    ______ ____
ROOT
ATOM      1  C   UNL     1       1.004   1.227   0.386  0.00  0.00    +0.017 C 
ATOM      2  C   UNL     1       0.621  -0.254   0.202  0.00  0.00    -0.031 C 
ATOM      3  C   UNL     1      -0.899  -0.350   0.099  0.00  0.00    +0.018 C 
ATOM      4  C   UNL     1      -1.569   0.073   1.405  0.00  0.00    -0.001 C 
ATOM      5  C   UNL     1      -1.103  -0.826   2.546  0.00  0.00    +0.013 C 
ATOM      6  C   UNL     1       0.414  -0.756   2.704  0.00  0.00    -0.051 C 
ATOM      7  C   UNL     1       0.819   0.598   3.293  0.00  0.00    +0.021 C 
ATOM      8  C   UNL     1       0.814  -1.799   3.773  0.00  0.00    +0.013 C 
ATOM      9  C   UNL     1       1.275  -0.700  -1.120  0.00  0.00    -0.048 C 
ATOM     10  C   UNL     1       1.129   0.411  -2.154  0.00  0.00    +0.042 C 
ATOM     11  C   UNL     1       1.393   0.061  -3.632  0.00  0.00    +0.027 C 
ATOM     12  C   UNL     1       0.023  -0.306  -4.293  0.00  0.00    +0.162 C 
ATOM     15  C   UNL     1      -0.423  -1.632  -3.808  0.00  0.00    -0.053 C 
ATOM     16  C   UNL     1      -0.821  -1.683  -2.359  0.00  0.00    +0.207 C 
ATOM     17  O   UNL     1      -0.058  -2.668  -1.695  0.00  0.00    -0.349 OA
ATOM     18  C   UNL     1       1.260  -2.157  -1.386  0.00  0.00    +0.134 C 
ATOM     19  C   UNL     1       2.280  -2.571  -2.477  0.00  0.00    +0.017 C 
ATOM     20  C   UNL     1       1.759  -2.931  -0.138  0.00  0.00    +0.023 C 
ATOM     21  C   UNL     1       0.901  -2.560   1.067  0.00  0.00    +0.020 C 
ATOM     22  C   UNL     1       1.117  -1.075   1.392  0.00  0.00    +0.012 C 
ENDROOT
BRANCH  12  13
ATOM     13  O   UNL     1       0.182  -0.337  -5.715  0.00  0.00    -0.569 OA
ATOM     14  H   UNL     1      -0.627  -0.558  -6.196  0.00  0.00    +0.378 HD
ENDBRANCH  12  13
TORSDOF 1
