REMARK  Name = ZINC95486166
REMARK  13 active torsions:
REMARK  status: ('A' for Active; 'I' for Inactive)
REMARK    1  A    between atoms: C1_1  and  C2_2
REMARK    2  A    between atoms: C6_7  and  O5_34
REMARK    3  A    between atoms: C7_8  and  C14_18
REMARK    4  A    between atoms: C8_9  and  O1_16
REMARK    5  A    between atoms: C10_11  and  C12_15
REMARK    6  A    between atoms: N1_13  and  C11_14
REMARK    7  A    between atoms: O1_16  and  C13_17
REMARK    8  A    between atoms: C19_23  and  O4_32
REMARK    9  A    between atoms: C21_25  and  O3_30
REMARK   10  A    between atoms: C23_27  and  O2_28
REMARK   11  A    between atoms: O2_28  and  C24_29
REMARK   12  A    between atoms: O3_30  and  C25_31
REMARK   13  A    between atoms: O4_32  and  C26_33
REMARK                            x       y       z     vdW  Elec       q    Type
REMARK                         _______ _______ _______ _____ _____    ______ ____
ROOT
ATOM      1  C   UNL     1       0.023   1.576  -0.109  0.00  0.00    +0.093 C 
ATOM      2  C   UNL     1       0.034   0.046  -0.087  0.00  0.00    +0.165 C 
ATOM      3  C   UNL     1      -1.400  -0.476   0.004  0.00  0.00    +0.134 C 
ATOM      4  C   UNL     1      -1.387  -1.964   0.255  0.00  0.00    -0.061 A 
ATOM      5  C   UNL     1      -2.551  -2.683   0.027  0.00  0.00    +0.003 A 
ATOM      6  C   UNL     1      -2.589  -4.048   0.246  0.00  0.00    +0.166 A 
ATOM      9  C   UNL     1      -1.442  -4.707   0.701  0.00  0.00    -0.038 A 
ATOM     26  C   UNL     1      -0.273  -3.978   0.926  0.00  0.00    +0.156 A 
ATOM     29  C   UNL     1      -0.250  -2.606   0.700  0.00  0.00    -0.162 A 
ATOM     30  C   UNL     1       1.036  -1.861   0.949  0.00  0.00    +0.226 C 
ATOM     31  C   UNL     1       1.987  -2.091  -0.227  0.00  0.00    +0.099 C 
ATOM     32  N   UNL     1       0.784  -0.425   1.088  0.00  0.00    -0.380 N 
ATOM     33  H   UNL     1       0.243  -0.259   1.923  0.00  0.00    +0.424 HD
ATOM     34  C   UNL     1       2.062   0.294   1.176  0.00  0.00    +0.325 C 
ENDROOT
BRANCH   9  10
ATOM     10  C   UNL     1      -1.468  -6.168   0.942  0.00  0.00    -0.150 A 
ATOM     11  C   UNL     1      -1.832  -6.674   2.212  0.00  0.00    +0.081 A 
ATOM     12  C   UNL     1      -2.173  -5.811   3.264  0.00  0.00    -0.061 A 
ATOM     13  C   UNL     1      -2.520  -6.322   4.478  0.00  0.00    +0.091 A 
ATOM     14  C   UNL     1      -2.542  -7.696   4.697  0.00  0.00    -0.120 A 
ATOM     15  C   UNL     1      -2.214  -8.575   3.689  0.00  0.00    +0.189 A 
ATOM     18  C   UNL     1      -1.851  -8.073   2.423  0.00  0.00    -0.129 A 
ATOM     19  C   UNL     1      -1.509  -8.942   1.367  0.00  0.00    +0.226 A 
ATOM     22  C   UNL     1      -1.159  -8.427   0.140  0.00  0.00    -0.181 A 
ATOM     23  C   UNL     1      -1.142  -7.051  -0.080  0.00  0.00    +0.216 A 
BRANCH  15  16
ATOM     16  O   UNL     1      -2.238  -9.914   3.913  0.00  0.00    -0.290 OA
ATOM     17  C   UNL     1      -2.615 -10.346   5.222  0.00  0.00    +0.246 C 
ENDBRANCH  15  16
BRANCH  19  20
ATOM     20  O   UNL     1      -1.525 -10.286   1.562  0.00  0.00    -0.282 OA
ATOM     21  C   UNL     1      -1.167 -11.107   0.448  0.00  0.00    +0.248 C 
ENDBRANCH  19  20
BRANCH  23  24
ATOM     24  O   UNL     1      -0.798  -6.569  -1.302  0.00  0.00    -0.309 OA
ATOM     25  C   UNL     1      -0.473  -7.528  -2.310  0.00  0.00    +0.246 C 
ENDBRANCH  23  24
ENDBRANCH   9  10
BRANCH   6   7
ATOM      7  O   UNL     1      -3.734  -4.744   0.021  0.00  0.00    -0.482 OA
ATOM      8  H   UNL     1      -3.816  -5.087  -0.880  0.00  0.00    +0.401 HD
ENDBRANCH   6   7
BRANCH  26  27
ATOM     27  O   UNL     1       0.845  -4.611   1.368  0.00  0.00    -0.325 OA
ATOM     28  C   UNL     1       1.053  -4.650   2.781  0.00  0.00    +0.235 C 
ENDBRANCH  26  27
TORSDOF 6
