REMARK  Name = ZINC95485964
REMARK  18 active torsions:
REMARK  status: ('A' for Active; 'I' for Inactive)
REMARK    1  A    between atoms: C1_1  and  C2_2
REMARK    2  A    between atoms: C8_8  and  O2_19
REMARK    3  A    between atoms: C10_10  and  O1_18
REMARK    4  A    between atoms: C11_11  and  C12_12
REMARK    5  A    between atoms: C12_12  and  C13_13
REMARK    6  A    between atoms: C13_13  and  C14_14
REMARK    7  A    between atoms: C15_15  and  C16_16
REMARK    8  A    between atoms: C15_15  and  C17_17
REMARK    9  A    between atoms: C21_24  and  C22_25
REMARK   10  A    between atoms: C21_24  and  C28_31
REMARK   11  A    between atoms: C22_25  and  C23_26
REMARK   12  A    between atoms: C23_26  and  C24_27
REMARK   13  A    between atoms: C25_28  and  C26_29
REMARK   14  A    between atoms: C25_28  and  C27_30
REMARK   15  A    between atoms: C28_31  and  C29_32
REMARK   16  A    between atoms: C29_32  and  C30_33
REMARK   17  A    between atoms: C31_34  and  C32_35
REMARK   18  A    between atoms: C31_34  and  C33_36
REMARK                            x       y       z     vdW  Elec       q    Type
REMARK                         _______ _______ _______ _____ _____    ______ ____
ROOT
ATOM      1  C   UNL     1       0.823   5.563  -2.950  0.00  0.00    +0.099 C 
ATOM      2  C   UNL     1       1.325   4.573  -1.930  0.00  0.00    -0.036 A 
ATOM      3  C   UNL     1       1.522   3.274  -2.297  0.00  0.00    +0.005 A 
ATOM      4  C   UNL     1       1.987   2.342  -1.357  0.00  0.00    +0.009 A 
ATOM      5  C   UNL     1       2.186   0.994  -1.711  0.00  0.00    +0.017 A 
ATOM      6  C   UNL     1       2.640   0.094  -0.797  0.00  0.00    -0.004 A 
ATOM      7  C   UNL     1       2.928   0.503   0.519  0.00  0.00    -0.212 A 
ATOM      8  C   UNL     1       3.452  -0.442   1.513  0.00  0.00    +0.409 C 
ATOM      9  C   UNL     1       3.368  -1.924   1.220  0.00  0.00    +0.042 C 
ATOM     10  C   UNL     1       3.672  -2.091  -0.257  0.00  0.00    +0.380 C 
ATOM     11  O   UNL     1       4.573  -2.803  -0.632  0.00  0.00    -0.422 OA
ATOM     12  O   UNL     1       3.943  -0.042   2.549  0.00  0.00    -0.430 OA
ATOM     13  C   UNL     1       2.731   1.834   0.907  0.00  0.00    +0.218 A 
ATOM     16  C   UNL     1       2.812  -1.337  -1.241  0.00  0.00    -0.066 C 
ATOM     29  C   UNL     1       2.255   2.767  -0.032  0.00  0.00    -0.122 A 
ATOM     30  C   UNL     1       2.041   4.114   0.320  0.00  0.00    +0.148 A 
ATOM     33  C   UNL     1       1.585   5.000  -0.633  0.00  0.00    -0.113 A 
ENDROOT
BRANCH  13  14
ATOM     14  O   UNL     1       2.995   2.221   2.177  0.00  0.00    -0.462 OA
ATOM     15  H   UNL     1       3.903   2.523   2.315  0.00  0.00    +0.398 HD
ENDBRANCH  13  14
BRANCH  30  31
ATOM     31  O   UNL     1       2.288   4.537   1.586  0.00  0.00    -0.472 OA
ATOM     32  H   UNL     1       3.191   4.851   1.726  0.00  0.00    +0.387 HD
ENDBRANCH  30  31
BRANCH  16  17
ATOM     17  C   UNL     1       3.477  -1.364  -2.619  0.00  0.00    +0.063 C 
BRANCH  17  18
ATOM     18  C   UNL     1       4.776  -0.556  -2.574  0.00  0.00    +0.046 C 
BRANCH  18  19
ATOM     19  C   UNL     1       5.398  -0.529  -3.946  0.00  0.00    -0.054 C 
ATOM     20  C   UNL     1       5.576   0.614  -4.561  0.00  0.00    -0.132 C 
ATOM     21  C   UNL     1       6.309   0.655  -5.878  0.00  0.00    +0.071 C 
ATOM     22  C   UNL     1       5.049   1.888  -3.953  0.00  0.00    +0.070 C 
ENDBRANCH  18  19
ENDBRANCH  17  18
ENDBRANCH  16  17
BRANCH  16  23
ATOM     23  C   UNL     1       1.440  -2.009  -1.331  0.00  0.00    +0.065 C 
BRANCH  23  24
ATOM     24  C   UNL     1       1.611  -3.456  -1.796  0.00  0.00    +0.049 C 
BRANCH  24  25
ATOM     25  C   UNL     1       0.256  -4.105  -1.926  0.00  0.00    -0.057 C 
ATOM     26  C   UNL     1       0.010  -5.235  -1.312  0.00  0.00    -0.129 C 
ATOM     27  C   UNL     1      -1.369  -5.840  -1.370  0.00  0.00    +0.073 C 
ATOM     28  C   UNL     1       1.106  -5.931  -0.546  0.00  0.00    +0.071 C 
ENDBRANCH  24  25
ENDBRANCH  23  24
ENDBRANCH  16  23
BRANCH  33  34
ATOM     34  C   UNL     1       1.360   6.443  -0.264  0.00  0.00    +0.081 C 
BRANCH  34  35
ATOM     35  C   UNL     1      -0.075   6.624   0.235  0.00  0.00    +0.058 C 
BRANCH  35  36
ATOM     36  C   UNL     1      -0.299   8.068   0.605  0.00  0.00    -0.065 C 
ATOM     37  C   UNL     1      -0.740   8.377   1.799  0.00  0.00    -0.126 C 
ATOM     38  C   UNL     1      -0.835   9.822   2.216  0.00  0.00    +0.072 C 
ATOM     39  C   UNL     1      -1.153   7.289   2.755  0.00  0.00    +0.073 C 
ENDBRANCH  35  36
ENDBRANCH  34  35
ENDBRANCH  33  34
TORSDOF 11
