REMARK  Name = ZINC95486187
REMARK  12 active torsions:
REMARK  status: ('A' for Active; 'I' for Inactive)
REMARK    1  A    between atoms: C1_1  and  C2_2
REMARK    2  A    between atoms: C2_2  and  C24_32
REMARK    3  A    between atoms: C3_3  and  C4_4
REMARK    4  A    between atoms: C4_4  and  C5_5
REMARK    5  A    between atoms: C6_6  and  O6_31
REMARK    6  A    between atoms: C10_10  and  O1_11
REMARK    7  A    between atoms: C16_19  and  O4_28
REMARK    8  A    between atoms: C17_21  and  C18_23
REMARK    9  A    between atoms: C18_23  and  C19_24
REMARK   10  A    between atoms: C20_25  and  C21_26
REMARK   11  A    between atoms: C20_25  and  C22_27
REMARK   12  A    between atoms: O4_28  and  C23_29
REMARK                            x       y       z     vdW  Elec       q    Type
REMARK                         _______ _______ _______ _____ _____    ______ ____
ROOT
ATOM      6  C   UNL     1      -2.482  -1.548   3.769  0.00  0.00    -0.161 A 
ATOM      7  C   UNL     1      -3.800  -1.250   4.101  0.00  0.00    +0.195 A 
ATOM     10  C   UNL     1      -4.378  -1.776   5.245  0.00  0.00    -0.030 A 
ATOM     11  C   UNL     1      -3.642  -2.609   6.074  0.00  0.00    +0.182 A 
ATOM     12  C   UNL     1      -2.311  -2.915   5.739  0.00  0.00    -0.262 A 
ATOM     13  C   UNL     1      -1.566  -3.806   6.635  0.00  0.00    +0.431 A 
ATOM     14  C   UNL     1      -2.244  -4.332   7.779  0.00  0.00    -0.250 A 
ATOM     15  C   UNL     1      -3.522  -3.998   7.996  0.00  0.00    +0.163 A 
ATOM     16  C   UNL     1      -4.336  -4.577   9.132  0.00  0.00    +0.143 C 
ATOM     17  C   UNL     1      -3.427  -5.286  10.105  0.00  0.00    +0.356 C 
ATOM     18  O   UNL     1      -3.567  -5.176  11.299  0.00  0.00    -0.418 OA
ATOM     19  C   UNL     1      -2.329  -6.145   9.509  0.00  0.00    +0.151 C 
ATOM     22  C   UNL     1      -1.435  -5.227   8.679  0.00  0.00    +0.102 C 
ATOM     28  O   UNL     1      -0.401  -4.090   6.411  0.00  0.00    -0.434 OA
ATOM     29  O   UNL     1      -4.174  -3.130   7.192  0.00  0.00    -0.227 OA
ATOM     30  C   UNL     1      -1.734  -2.383   4.579  0.00  0.00    +0.221 A 
ENDROOT
BRANCH   7   8
ATOM      8  O   UNL     1      -4.527  -0.434   3.295  0.00  0.00    -0.484 OA
ATOM      9  H   UNL     1      -5.013  -0.898   2.600  0.00  0.00    +0.400 HD
ENDBRANCH   7   8
BRANCH  19  20
ATOM     20  O   UNL     1      -2.899  -7.154   8.674  0.00  0.00    -0.360 OA
ATOM     21  C   UNL     1      -3.206  -8.370   9.358  0.00  0.00    +0.214 C 
ENDBRANCH  19  20
BRANCH  30  31
ATOM     31  O   UNL     1      -0.451  -2.680   4.254  0.00  0.00    -0.468 OA
ATOM     32  H   UNL     1       0.200  -2.067   4.623  0.00  0.00    +0.399 HD
ENDBRANCH  30  31
BRANCH   6   5
ATOM      5  C   UNL     1      -1.871  -0.965   2.521  0.00  0.00    +0.129 C 
BRANCH   5   4
ATOM      1  C   UNL     1      -3.224  -0.036   0.230  0.00  0.00    +0.076 C 
ATOM      2  C   UNL     1      -2.783  -1.475   0.315  0.00  0.00    -0.130 C 
ATOM      3  C   UNL     1      -3.111  -2.431  -0.803  0.00  0.00    +0.073 C 
ATOM      4  C   UNL     1      -2.115  -1.895   1.361  0.00  0.00    -0.050 C 
ENDBRANCH   5   4
ENDBRANCH   6   5
BRANCH  22  23
ATOM     23  C   UNL     1      -0.595  -4.362   9.620  0.00  0.00    +0.067 C 
BRANCH  23  24
ATOM     24  C   UNL     1       0.412  -3.579   8.819  0.00  0.00    -0.022 C 
ATOM     25  C   UNL     1       0.412  -2.270   8.867  0.00  0.00    -0.142 C 
ATOM     26  C   UNL     1       1.504  -1.490   8.179  0.00  0.00    +0.072 C 
ATOM     27  C   UNL     1      -0.678  -1.543   9.611  0.00  0.00    +0.064 C 
ENDBRANCH  23  24
ENDBRANCH  22  23
TORSDOF 7
