REMARK  Name = ZINC95486118
REMARK  10 active torsions:
REMARK  status: ('A' for Active; 'I' for Inactive)
REMARK    1  A    between atoms: C1_1  and  C2_2
REMARK    2  A    between atoms: C2_2  and  C4_4
REMARK    3  A    between atoms: C7_8  and  C30_37
REMARK    4  A    between atoms: C13_17  and  C29_36
REMARK    5  A    between atoms: C16_20  and  O1_35
REMARK    6  A    between atoms: C17_22  and  C27_33
REMARK    7  A    between atoms: C17_22  and  C28_34
REMARK    8  A    between atoms: C21_27  and  C26_32
REMARK    9  A    between atoms: C22_28  and  C25_31
REMARK   10  A    between atoms: C30_37  and  O2_38
REMARK                            x       y       z     vdW  Elec       q    Type
REMARK                         _______ _______ _______ _____ _____    ______ ____
ROOT
ATOM      3  C   UNL     1      -2.313  -0.930   0.436  0.00  0.00    +0.036 C 
ATOM      4  C   UNL     1      -3.482  -0.742   1.425  0.00  0.00    +0.015 C 
ATOM      5  C   UNL     1      -4.370   0.349   0.794  0.00  0.00    +0.019 C 
ATOM      6  C   UNL     1      -4.245   0.105  -0.744  0.00  0.00    -0.038 C 
ATOM     10  C   UNL     1      -5.356  -0.874  -1.100  0.00  0.00    +0.020 C 
ATOM     11  C   UNL     1      -5.067  -1.725  -2.331  0.00  0.00    +0.014 C 
ATOM     12  C   UNL     1      -3.750  -2.480  -2.137  0.00  0.00    -0.029 C 
ATOM     13  C   UNL     1      -3.846  -3.302  -0.846  0.00  0.00    +0.018 C 
ATOM     14  C   UNL     1      -3.489  -3.455  -3.295  0.00  0.00    -0.028 C 
ATOM     15  C   UNL     1      -4.668  -4.442  -3.296  0.00  0.00    +0.017 C 
ATOM     16  C   UNL     1      -2.208  -4.249  -3.031  0.00  0.00    +0.018 C 
ATOM     17  C   UNL     1      -1.996  -5.276  -4.136  0.00  0.00    +0.009 C 
ATOM     18  C   UNL     1      -1.936  -4.670  -5.533  0.00  0.00    -0.003 C 
ATOM     19  C   UNL     1      -0.504  -4.492  -5.990  0.00  0.00    -0.037 C 
ATOM     20  C   UNL     1       0.399  -3.939  -4.885  0.00  0.00    +0.034 C 
ATOM     21  C   UNL     1       0.044  -5.892  -6.367  0.00  0.00    +0.016 C 
ATOM     22  C   UNL     1      -0.355  -3.623  -7.236  0.00  0.00    +0.169 C 
ATOM     25  C   UNL     1      -1.154  -2.334  -7.053  0.00  0.00    -0.015 C 
ATOM     26  C   UNL     1      -2.627  -2.692  -6.987  0.00  0.00    +0.014 C 
ATOM     27  C   UNL     1      -2.965  -3.613  -5.805  0.00  0.00    -0.028 C 
ATOM     28  C   UNL     1      -4.253  -4.341  -6.295  0.00  0.00    +0.008 C 
ATOM     29  C   UNL     1      -3.350  -2.726  -4.619  0.00  0.00    +0.014 C 
ATOM     30  C   UNL     1      -2.302  -1.613  -4.520  0.00  0.00    +0.010 C 
ATOM     31  C   UNL     1      -2.592  -0.663  -3.366  0.00  0.00    -0.003 C 
ATOM     32  C   UNL     1      -2.642  -1.440  -2.042  0.00  0.00    +0.011 C 
ATOM     33  C   UNL     1      -2.833  -0.447  -0.919  0.00  0.00    -0.000 C 
ENDROOT
BRANCH   3   2
ATOM      1  C   UNL     1      -1.311   1.415   1.014  0.00  0.00    +0.069 C 
ATOM      2  C   UNL     1      -1.142  -0.075   0.866  0.00  0.00    -0.116 C 
ATOM     34  C   UNL     1       0.019  -0.630   1.110  0.00  0.00    -0.007 C 
ENDBRANCH   3   2
BRANCH  22  23
ATOM     23  O   UNL     1       1.025  -3.301  -7.425  0.00  0.00    -0.563 OA
ATOM     24  H   UNL     1       1.196  -2.745  -8.198  0.00  0.00    +0.375 HD
ENDBRANCH  22  23
BRANCH   6   7
ATOM      7  C   UNL     1      -4.428   1.438  -1.501  0.00  0.00    +0.175 C 
BRANCH   7   8
ATOM      8  O   UNL     1      -5.732   1.961  -1.238  0.00  0.00    -0.569 OA
ATOM      9  H   UNL     1      -5.917   2.800  -1.683  0.00  0.00    +0.378 HD
ENDBRANCH   7   8
ENDBRANCH   6   7
TORSDOF 4
