REMARK  Name = ZINC95486346
REMARK  11 active torsions:
REMARK  status: ('A' for Active; 'I' for Inactive)
REMARK    1  A    between atoms: C1_1  and  O1_2
REMARK    2  A    between atoms: O1_2  and  C2_3
REMARK    3  A    between atoms: C7_8  and  O2_9
REMARK    4  A    between atoms: C12_15  and  O6_27
REMARK    5  A    between atoms: C13_16  and  O4_24
REMARK    6  A    between atoms: C14_17  and  O3_22
REMARK    7  A    between atoms: O3_22  and  C18_23
REMARK    8  A    between atoms: O4_24  and  C19_25
REMARK    9  A    between atoms: C19_25  and  O5_26
REMARK   10  A    between atoms: O6_27  and  C20_28
REMARK   11  A    between atoms: C20_28  and  O7_29
REMARK                            x       y       z     vdW  Elec       q    Type
REMARK                         _______ _______ _______ _____ _____    ______ ____
ROOT
ATOM      3  C   UNL     1      -0.527  -0.329   1.859  0.00  0.00    +0.115 A 
ATOM      4  C   UNL     1       0.306   0.386   2.702  0.00  0.00    -0.008 A 
ATOM      5  C   UNL     1       1.215  -0.288   3.510  0.00  0.00    -0.025 A 
ATOM      6  C   UNL     1       1.265  -1.682   3.495  0.00  0.00    -0.107 A 
ATOM      7  C   UNL     1       2.201  -2.403   4.426  0.00  0.00    +0.121 C 
ATOM      8  C   UNL     1       3.509  -1.631   4.583  0.00  0.00    +0.247 C 
ATOM      9  C   UNL     1       3.242  -0.196   4.959  0.00  0.00    -0.110 A 
ATOM     10  C   UNL     1       4.099   0.482   5.798  0.00  0.00    -0.096 A 
ATOM     11  C   UNL     1       5.345  -0.152   6.349  0.00  0.00    +0.134 C 
ATOM     12  C   UNL     1       5.580  -1.542   5.781  0.00  0.00    +0.279 C 
ATOM     13  C   UNL     1       3.824   1.816   6.119  0.00  0.00    +0.097 A 
ATOM     16  C   UNL     1       2.714   2.463   5.596  0.00  0.00    +0.105 A 
ATOM     21  C   UNL     1       1.860   1.785   4.737  0.00  0.00    +0.123 A 
ATOM     26  N   UNL     1       4.312  -2.259   5.641  0.00  0.00    -0.503 N 
ATOM     27  H   UNL     1       4.500  -3.219   5.394  0.00  0.00    +0.436 HD
ATOM     28  H   UNL     1       3.803  -2.229   6.512  0.00  0.00    +0.430 HD
ATOM     29  C   UNL     1       0.438  -2.390   2.648  0.00  0.00    +0.050 A 
ATOM     30  C   UNL     1       2.126   0.453   4.415  0.00  0.00    -0.023 A 
ATOM     31  C   UNL     1      -0.461  -1.720   1.833  0.00  0.00    +0.096 A 
ENDROOT
BRANCH   3   2
ATOM      1  C   UNL     1      -1.426   1.752   1.141  0.00  0.00    +0.250 C 
ATOM      2  O   UNL     1      -1.414   0.326   1.062  0.00  0.00    -0.299 OA
ENDBRANCH   3   2
BRANCH  13  14
ATOM     14  O   UNL     1       4.656   2.482   6.963  0.00  0.00    -0.327 OA
ATOM     15  C   UNL     1       4.363   2.403   8.360  0.00  0.00    +0.245 C 
ENDBRANCH  13  14
BRANCH  31  32
ATOM     32  O   UNL     1      -1.277  -2.422   1.002  0.00  0.00    -0.482 OA
ATOM     33  H   UNL     1      -0.901  -2.584   0.126  0.00  0.00    +0.396 HD
ENDBRANCH  31  32
BRANCH  16  17
ATOM     17  O   UNL     1       2.462   3.760   5.924  0.00  0.00    -0.286 OA
BRANCH  17  18
ATOM     18  C   UNL     1       3.073   4.765   5.112  0.00  0.00    +0.401 C 
BRANCH  18  19
ATOM     19  O   UNL     1       2.387   4.848   3.861  0.00  0.00    -0.583 OA
ATOM     20  H   UNL     1       2.748   5.511   3.258  0.00  0.00    +0.398 HD
ENDBRANCH  18  19
ENDBRANCH  17  18
ENDBRANCH  16  17
BRANCH  21  22
ATOM     22  O   UNL     1       0.774   2.413   4.213  0.00  0.00    -0.289 OA
BRANCH  22  23
ATOM     23  C   UNL     1      -0.412   2.431   5.010  0.00  0.00    +0.389 C 
BRANCH  23  24
ATOM     24  O   UNL     1      -0.266   3.389   6.060  0.00  0.00    -0.574 OA
ATOM     25  H   UNL     1      -1.035   3.455   6.642  0.00  0.00    +0.398 HD
ENDBRANCH  23  24
ENDBRANCH  22  23
ENDBRANCH  21  22
TORSDOF 9
