REMARK  Name = ZINC95486184
REMARK  25 active torsions:
REMARK  status: ('A' for Active; 'I' for Inactive)
REMARK    1  A    between atoms: C1_1  and  C2_2
REMARK    2  A    between atoms: C4_4  and  O8_60
REMARK    3  A    between atoms: C8_8  and  C26_30
REMARK    4  A    between atoms: C11_12  and  O2_27
REMARK    5  A    between atoms: C12_13  and  C15_17
REMARK    6  A    between atoms: C13_14  and  O1_16
REMARK    7  A    between atoms: C15_17  and  C16_18
REMARK    8  A    between atoms: C17_19  and  C18_20
REMARK    9  A    between atoms: C17_19  and  C24_26
REMARK   10  A    between atoms: C18_20  and  C19_21
REMARK   11  A    between atoms: C19_21  and  C20_22
REMARK   12  A    between atoms: C21_23  and  C22_24
REMARK   13  A    between atoms: C21_23  and  C23_25
REMARK   14  A    between atoms: C29_34  and  O5_49
REMARK   15  A    between atoms: C30_35  and  C33_39
REMARK   16  A    between atoms: C31_36  and  O4_38
REMARK   17  A    between atoms: C33_39  and  C34_40
REMARK   18  A    between atoms: C35_41  and  C36_42
REMARK   19  A    between atoms: C35_41  and  C42_48
REMARK   20  A    between atoms: C36_42  and  C37_43
REMARK   21  A    between atoms: C37_43  and  C38_44
REMARK   22  A    between atoms: C39_45  and  C40_46
REMARK   23  A    between atoms: C39_45  and  C41_47
REMARK   24  A    between atoms: C47_55  and  C50_59
REMARK   25  A    between atoms: C49_57  and  O7_58
REMARK                            x       y       z     vdW  Elec       q    Type
REMARK                         _______ _______ _______ _____ _____    ______ ____
ROOT
ATOM      1  C   UNL     1      -5.641  -7.097   3.151  0.00  0.00    +0.099 C 
ATOM      2  C   UNL     1      -4.598  -6.283   2.429  0.00  0.00    -0.033 A 
ATOM      3  C   UNL     1      -4.988  -5.221   1.637  0.00  0.00    -0.017 A 
ATOM      4  C   UNL     1      -4.029  -4.475   0.967  0.00  0.00    +0.174 A 
ATOM      7  C   UNL     1      -2.675  -4.804   1.105  0.00  0.00    -0.180 A 
ATOM      8  C   UNL     1      -2.286  -5.872   1.913  0.00  0.00    -0.019 A 
ATOM      9  C   UNL     1      -0.847  -6.240   2.108  0.00  0.00    +0.115 C 
ATOM     42  C   UNL     1       0.067  -5.685   1.058  0.00  0.00    -0.010 A 
ATOM     43  C   UNL     1      -0.306  -4.615   0.241  0.00  0.00    -0.177 A 
ATOM     44  C   UNL     1       0.582  -4.111  -0.721  0.00  0.00    +0.186 A 
ATOM     47  C   UNL     1       1.831  -4.690  -0.869  0.00  0.00    -0.131 A 
ATOM     58  C   UNL     1       2.189  -5.759  -0.061  0.00  0.00    +0.160 A 
ATOM     61  C   UNL     1       1.307  -6.248   0.895  0.00  0.00    -0.026 A 
ATOM     62  C   UNL     1      -1.648  -4.021   0.386  0.00  0.00    +0.446 C 
ATOM     63  O   UNL     1      -1.902  -2.923  -0.072  0.00  0.00    -0.422 OA
ATOM     64  C   UNL     1      -3.260  -6.604   2.570  0.00  0.00    -0.007 A 
ENDROOT
BRANCH   9  10
ATOM     10  C   UNL     1      -0.391  -5.720   3.473  0.00  0.00    +0.115 C 
ATOM     11  C   UNL     1      -1.120  -6.476   4.542  0.00  0.00    -0.009 A 
ATOM     12  C   UNL     1      -2.205  -5.927   5.230  0.00  0.00    -0.178 A 
ATOM     13  C   UNL     1      -2.637  -4.550   4.928  0.00  0.00    +0.441 C 
ATOM     14  C   UNL     1      -1.690  -3.674   4.206  0.00  0.00    -0.180 A 
ATOM     15  C   UNL     1      -1.875  -2.286   4.216  0.00  0.00    +0.170 A 
ATOM     18  C   UNL     1      -0.984  -1.472   3.547  0.00  0.00    -0.019 A 
ATOM     19  C   UNL     1       0.084  -2.033   2.875  0.00  0.00    -0.033 A 
ATOM     20  C   UNL     1       1.061  -1.143   2.151  0.00  0.00    +0.100 C 
ATOM     21  C   UNL     1       0.266  -3.404   2.862  0.00  0.00    -0.006 A 
ATOM     22  O   UNL     1      -3.736  -4.148   5.261  0.00  0.00    -0.415 OA
ATOM     23  C   UNL     1      -2.874  -6.670   6.213  0.00  0.00    +0.185 A 
ATOM     26  C   UNL     1      -2.446  -7.953   6.511  0.00  0.00    -0.132 A 
ATOM     37  C   UNL     1      -1.362  -8.488   5.829  0.00  0.00    +0.160 A 
ATOM     40  C   UNL     1      -0.709  -7.747   4.851  0.00  0.00    -0.025 A 
ATOM     41  C   UNL     1      -0.618  -4.240   3.522  0.00  0.00    -0.016 A 
BRANCH  15  16
ATOM     16  O   UNL     1      -2.926  -1.742   4.877  0.00  0.00    -0.479 OA
ATOM     17  H   UNL     1      -2.740  -1.524   5.801  0.00  0.00    +0.394 HD
ENDBRANCH  15  16
BRANCH  23  24
ATOM     24  O   UNL     1      -3.934  -6.135   6.869  0.00  0.00    -0.475 OA
ATOM     25  H   UNL     1      -4.786  -6.304   6.444  0.00  0.00    +0.397 HD
ENDBRANCH  23  24
BRANCH  37  38
ATOM     38  O   UNL     1      -0.936  -9.743   6.121  0.00  0.00    -0.487 OA
ATOM     39  H   UNL     1      -1.300 -10.426   5.541  0.00  0.00    +0.395 HD
ENDBRANCH  37  38
BRANCH  26  27
ATOM     27  C   UNL     1      -3.152  -8.762   7.567  0.00  0.00    +0.131 C 
BRANCH  27  28
ATOM     28  C   UNL     1      -4.266  -9.554   6.933  0.00  0.00    -0.057 C 
ATOM     29  C   UNL     1      -4.289 -10.859   7.046  0.00  0.00    -0.116 C 
ATOM     30  C   UNL     1      -3.145 -11.578   7.713  0.00  0.00    +0.076 C 
BRANCH  29  31
ATOM     31  C   UNL     1      -5.460 -11.641   6.510  0.00  0.00    +0.058 C 
BRANCH  31  32
ATOM     32  C   UNL     1      -5.140 -12.135   5.098  0.00  0.00    +0.055 C 
BRANCH  32  33
ATOM     33  C   UNL     1      -6.311 -12.918   4.561  0.00  0.00    -0.062 C 
ATOM     34  C   UNL     1      -6.976 -12.472   3.524  0.00  0.00    -0.129 C 
ATOM     35  C   UNL     1      -8.055 -13.320   2.901  0.00  0.00    +0.071 C 
ATOM     36  C   UNL     1      -6.662 -11.113   2.955  0.00  0.00    +0.070 C 
ENDBRANCH  32  33
ENDBRANCH  31  32
ENDBRANCH  29  31
ENDBRANCH  27  28
ENDBRANCH  26  27
ENDBRANCH   9  10
BRANCH   4   5
ATOM      5  O   UNL     1      -4.402  -3.432   0.183  0.00  0.00    -0.483 OA
ATOM      6  H   UNL     1      -4.449  -2.587   0.649  0.00  0.00    +0.399 HD
ENDBRANCH   4   5
BRANCH  44  45
ATOM     45  O   UNL     1       0.218  -3.063  -1.502  0.00  0.00    -0.473 OA
ATOM     46  H   UNL     1       0.443  -2.199  -1.130  0.00  0.00    +0.396 HD
ENDBRANCH  44  45
BRANCH  58  59
ATOM     59  O   UNL     1       3.411  -6.332  -0.206  0.00  0.00    -0.487 OA
ATOM     60  H   UNL     1       4.080  -5.990   0.402  0.00  0.00    +0.395 HD
ENDBRANCH  58  59
BRANCH  47  48
ATOM     48  C   UNL     1       2.794  -4.162  -1.901  0.00  0.00    +0.130 C 
BRANCH  48  49
ATOM     49  C   UNL     1       3.648  -3.083  -1.286  0.00  0.00    -0.055 C 
ATOM     50  C   UNL     1       4.950  -3.218  -1.250  0.00  0.00    -0.117 C 
ATOM     51  C   UNL     1       5.593  -4.467  -1.795  0.00  0.00    +0.076 C 
BRANCH  50  52
ATOM     52  C   UNL     1       5.805  -2.125  -0.664  0.00  0.00    +0.059 C 
BRANCH  52  53
ATOM     53  C   UNL     1       6.098  -2.439   0.805  0.00  0.00    +0.054 C 
BRANCH  53  54
ATOM     54  C   UNL     1       6.954  -1.346   1.391  0.00  0.00    -0.063 C 
ATOM     55  C   UNL     1       8.086  -1.644   1.978  0.00  0.00    -0.130 C 
ATOM     56  C   UNL     1       8.962  -0.547   2.528  0.00  0.00    +0.071 C 
ATOM     57  C   UNL     1       8.514  -3.084   2.104  0.00  0.00    +0.072 C 
ENDBRANCH  53  54
ENDBRANCH  52  53
ENDBRANCH  50  52
ENDBRANCH  48  49
ENDBRANCH  47  48
TORSDOF 17
