REMARK  Name = ZINC95485922
REMARK  16 active torsions:
REMARK  status: ('A' for Active; 'I' for Inactive)
REMARK    1  A    between atoms: C1_1  and  C2_2
REMARK    2  A    between atoms: C2_2  and  C28_34
REMARK    3  A    between atoms: C3_3  and  C4_4
REMARK    4  A    between atoms: C4_4  and  C5_5
REMARK    5  A    between atoms: C5_5  and  C6_6
REMARK    6  A    between atoms: C6_6  and  C27_33
REMARK    7  A    between atoms: C7_7  and  C8_8
REMARK    8  A    between atoms: C8_8  and  C9_9
REMARK    9  A    between atoms: C10_10  and  O6_32
REMARK   10  A    between atoms: C11_11  and  C22_27
REMARK   11  A    between atoms: C14_14  and  O1_15
REMARK   12  A    between atoms: C17_19  and  O5_26
REMARK   13  A    between atoms: C20_22  and  O4_25
REMARK   14  A    between atoms: C22_27  and  C23_28
REMARK   15  A    between atoms: C24_29  and  C25_30
REMARK   16  A    between atoms: C24_29  and  C26_31
REMARK                            x       y       z     vdW  Elec       q    Type
REMARK                         _______ _______ _______ _____ _____    ______ ____
ROOT
ATOM     11  C   UNL     1       4.566   3.575   2.288  0.00  0.00    -0.156 A 
ATOM     12  C   UNL     1       4.862   4.050   1.015  0.00  0.00    +0.198 A 
ATOM     15  C   UNL     1       5.210   5.377   0.816  0.00  0.00    -0.132 A 
ATOM     21  C   UNL     1       5.264   6.254   1.891  0.00  0.00    +0.183 A 
ATOM     22  C   UNL     1       4.954   5.776   3.176  0.00  0.00    -0.262 A 
ATOM     23  C   UNL     1       4.991   6.723   4.306  0.00  0.00    +0.445 A 
ATOM     24  C   UNL     1       5.074   8.153   3.946  0.00  0.00    -0.244 A 
ATOM     25  C   UNL     1       4.852   9.151   4.902  0.00  0.00    +0.194 A 
ATOM     28  C   UNL     1       4.930  10.482   4.529  0.00  0.00    -0.013 A 
ATOM     29  C   UNL     1       5.227  10.820   3.219  0.00  0.00    +0.088 A 
ATOM     30  C   UNL     1       5.452   9.841   2.268  0.00  0.00    +0.075 A 
ATOM     33  C   UNL     1       5.381   8.493   2.620  0.00  0.00    +0.146 A 
ATOM     34  O   UNL     1       4.955   6.349   5.464  0.00  0.00    -0.422 OA
ATOM     35  O   UNL     1       5.612   7.541   1.692  0.00  0.00    -0.210 OA
ATOM     36  C   UNL     1       4.607   4.433   3.372  0.00  0.00    +0.215 A 
ENDROOT
BRANCH  12  13
ATOM     13  O   UNL     1       4.810   3.204  -0.045  0.00  0.00    -0.478 OA
ATOM     14  H   UNL     1       3.945   3.163  -0.474  0.00  0.00    +0.398 HD
ENDBRANCH  12  13
BRANCH  25  26
ATOM     26  O   UNL     1       4.562   8.816   6.185  0.00  0.00    -0.477 OA
ATOM     27  H   UNL     1       5.339   8.723   6.753  0.00  0.00    +0.403 HD
ENDBRANCH  25  26
BRANCH  30  31
ATOM     31  O   UNL     1       5.743  10.193   0.987  0.00  0.00    -0.478 OA
ATOM     32  H   UNL     1       6.688  10.301   0.814  0.00  0.00    +0.392 HD
ENDBRANCH  30  31
BRANCH  36  37
ATOM     37  O   UNL     1       4.317   3.977   4.616  0.00  0.00    -0.471 OA
ATOM     38  H   UNL     1       5.085   3.646   5.102  0.00  0.00    +0.401 HD
ENDBRANCH  36  37
BRANCH  11  10
ATOM     10  C   UNL     1       4.195   2.128   2.486  0.00  0.00    +0.131 C 
BRANCH  10   9
ATOM      7  C   UNL     1       2.213   1.119   1.480  0.00  0.00    -0.124 C 
ATOM      8  C   UNL     1       3.140   0.237   0.682  0.00  0.00    +0.076 C 
ATOM      9  C   UNL     1       2.703   1.969   2.347  0.00  0.00    -0.045 C 
BRANCH   7   6
ATOM      6  C   UNL     1       0.723   1.022   1.279  0.00  0.00    +0.059 C 
BRANCH   6   5
ATOM      5  C   UNL     1       0.309   1.904   0.099  0.00  0.00    +0.053 C 
BRANCH   5   4
ATOM      1  C   UNL     1      -1.284   4.230   0.184  0.00  0.00    +0.071 C 
ATOM      2  C   UNL     1      -1.927   2.880  -0.003  0.00  0.00    -0.130 C 
ATOM      3  C   UNL     1      -3.428   2.764  -0.077  0.00  0.00    +0.072 C 
ATOM      4  C   UNL     1      -1.182   1.807  -0.102  0.00  0.00    -0.062 C 
ENDBRANCH   5   4
ENDBRANCH   6   5
ENDBRANCH   7   6
ENDBRANCH  10   9
ENDBRANCH  11  10
BRANCH  15  16
ATOM     16  C   UNL     1       5.529   5.870  -0.572  0.00  0.00    +0.135 C 
BRANCH  16  17
ATOM     17  C   UNL     1       4.268   6.362  -1.233  0.00  0.00    -0.054 C 
ATOM     18  C   UNL     1       3.933   5.917  -2.418  0.00  0.00    -0.126 C 
ATOM     19  C   UNL     1       2.601   6.292  -3.015  0.00  0.00    +0.073 C 
ATOM     20  C   UNL     1       4.879   5.029  -3.185  0.00  0.00    +0.076 C 
ENDBRANCH  16  17
ENDBRANCH  15  16
TORSDOF 11
