REMARK  Name = ZINC53296154
REMARK  2 active torsions:
REMARK  status: ('A' for Active; 'I' for Inactive)
REMARK    1  A    between atoms: C1_1  and  O1_2
REMARK    2  A    between atoms: O1_2  and  C2_3
REMARK                            x       y       z     vdW  Elec       q    Type
REMARK                         _______ _______ _______ _____ _____    ______ ____
ROOT
ATOM      3  C   UNL     1       0.606  -0.607  -1.056  0.00  0.00    +0.162 A 
ATOM      4  C   UNL     1       1.174   0.160  -2.064  0.00  0.00    -0.086 A 
ATOM      5  C   UNL     1       1.782  -0.456  -3.138  0.00  0.00    +0.096 A 
ATOM      6  C   UNL     1       1.834  -1.839  -3.219  0.00  0.00    -0.192 A 
ATOM      7  C   UNL     1       1.275  -2.607  -2.213  0.00  0.00    +0.163 A 
ATOM      8  O   UNL     1       1.319  -3.967  -2.239  0.00  0.00    -0.297 OA
ATOM      9  C   UNL     1       1.731  -4.555  -3.380  0.00  0.00    +0.490 C 
ATOM     10  C   UNL     1       2.897  -3.908  -4.101  0.00  0.00    +0.062 C 
ATOM     11  O   UNL     1       1.196  -5.550  -3.808  0.00  0.00    -0.432 OA
ATOM     12  C   UNL     1       2.501  -2.463  -4.419  0.00  0.00    +0.116 C 
ATOM     13  C   UNL     1       0.661  -1.989  -1.129  0.00  0.00    -0.021 A 
ENDROOT
BRANCH   3   2
ATOM      1  C   UNL     1      -0.017   1.425   0.010  0.00  0.00    +0.248 C 
ATOM      2  O   UNL     1       0.002  -0.004   0.002  0.00  0.00    -0.311 OA
ENDBRANCH   3   2
TORSDOF 1
