REMARK  Name = ZINC14645872
REMARK  5 active torsions:
REMARK  status: ('A' for Active; 'I' for Inactive)
REMARK    1  A    between atoms: C1_1  and  O1_2
REMARK    2  A    between atoms: O1_2  and  C2_3
REMARK    3  A    between atoms: C3_4  and  C8_10
REMARK    4  A    between atoms: C7_8  and  O2_9
REMARK    5  A    between atoms: C14_17  and  O5_21
REMARK                            x       y       z     vdW  Elec       q    Type
REMARK                         _______ _______ _______ _____ _____    ______ ____
ROOT
ATOM      5  C   UNL     1       0.002  -0.004   0.002  0.00  0.00    -0.231 A 
ATOM      6  C   UNL     1      -0.016   1.353   0.009  0.00  0.00    +0.335 A 
ATOM      7  O   UNL     1       1.100   2.087   0.003  0.00  0.00    -0.212 OA
ATOM      8  C   UNL     1       2.338   1.552  -0.012  0.00  0.00    +0.177 A 
ATOM      9  C   UNL     1       3.458   2.370  -0.018  0.00  0.00    +0.023 A 
ATOM     10  C   UNL     1       4.728   1.816  -0.035  0.00  0.00    +0.119 A 
ATOM     11  C   UNL     1       4.896   0.431  -0.046  0.00  0.00    -0.026 A 
ATOM     12  O   UNL     1       6.234   0.153  -0.063  0.00  0.00    -0.292 OA
ATOM     13  C   UNL     1       6.873   1.376  -0.475  0.00  0.00    +0.444 C 
ATOM     14  C   UNL     1       3.789  -0.402  -0.039  0.00  0.00    +0.219 A 
ATOM     17  O   UNL     1       5.961   2.402  -0.043  0.00  0.00    -0.295 OA
ATOM     18  C   UNL     1       2.505   0.156  -0.022  0.00  0.00    -0.241 A 
ATOM     19  C   UNL     1       1.304  -0.694  -0.015  0.00  0.00    +0.434 A 
ATOM     20  O   UNL     1       1.382  -1.911  -0.022  0.00  0.00    -0.420 OA
ENDROOT
BRANCH   5   4
ATOM      3  C   UNL     1      -1.585  -1.584   1.104  0.00  0.00    +0.098 A 
ATOM      4  C   UNL     1      -1.264  -0.777   0.010  0.00  0.00    -0.035 A 
ATOM     21  C   UNL     1      -2.139  -0.697  -1.071  0.00  0.00    +0.031 A 
ATOM     22  C   UNL     1      -3.314  -1.422  -1.064  0.00  0.00    +0.028 A 
ATOM     23  C   UNL     1      -3.633  -2.222   0.018  0.00  0.00    +0.010 A 
ATOM     24  C   UNL     1      -2.773  -2.305   1.103  0.00  0.00    +0.089 A 
BRANCH   3   2
ATOM      1  C   UNL     1      -0.932  -0.720   3.221  0.00  0.00    +0.220 C 
ATOM      2  O   UNL     1      -0.739  -1.664   2.166  0.00  0.00    -0.317 OA
ENDBRANCH   3   2
BRANCH  24  25
ATOM     25  O   UNL     1      -3.091  -3.093   2.164  0.00  0.00    -0.484 OA
ATOM     26  H   UNL     1      -3.597  -2.640   2.853  0.00  0.00    +0.387 HD
ENDBRANCH  24  25
ENDBRANCH   5   4
BRANCH  14  15
ATOM     15  O   UNL     1       3.949  -1.751  -0.049  0.00  0.00    -0.462 OA
ATOM     16  H   UNL     1       3.986  -2.136  -0.935  0.00  0.00    +0.402 HD
ENDBRANCH  14  15
TORSDOF 4
