REMARK  Name = ZINC95486255
REMARK  10 active torsions:
REMARK  status: ('A' for Active; 'I' for Inactive)
REMARK    1  A    between atoms: C1_1  and  O1_2
REMARK    2  A    between atoms: O1_2  and  C2_3
REMARK    3  A    between atoms: C3_4  and  C8_10
REMARK    4  A    between atoms: C7_8  and  O2_9
REMARK    5  A    between atoms: C13_17  and  O8_26
REMARK    6  A    between atoms: C14_18  and  O7_25
REMARK    7  A    between atoms: C15_19  and  O6_23
REMARK    8  A    between atoms: C16_20  and  O5_21
REMARK    9  A    between atoms: O5_21  and  C17_22
REMARK   10  A    between atoms: O6_23  and  C18_24
REMARK                            x       y       z     vdW  Elec       q    Type
REMARK                         _______ _______ _______ _____ _____    ______ ____
ROOT
ATOM      5  C   UNL     1      -1.152  -0.625   2.506  0.00  0.00    -0.242 A 
ATOM      6  C   UNL     1      -0.082  -1.335   2.950  0.00  0.00    +0.347 A 
ATOM      7  O   UNL     1       0.549  -1.051   4.091  0.00  0.00    -0.202 OA
ATOM      8  C   UNL     1      -0.002  -0.251   5.027  0.00  0.00    +0.146 A 
ATOM      9  C   UNL     1      -1.104   0.563   4.705  0.00  0.00    -0.232 A 
ATOM     10  C   UNL     1      -1.671   1.405   5.668  0.00  0.00    +0.184 A 
ATOM     13  C   UNL     1      -1.145   1.425   6.951  0.00  0.00    +0.047 A 
ATOM     16  C   UNL     1      -0.060   0.614   7.273  0.00  0.00    +0.132 A 
ATOM     19  C   UNL     1       0.510  -0.219   6.320  0.00  0.00    +0.062 A 
ATOM     22  C   UNL     1      -1.635   0.499   3.331  0.00  0.00    +0.433 A 
ATOM     23  O   UNL     1      -2.426   1.322   2.904  0.00  0.00    -0.427 OA
ENDROOT
BRANCH   5   4
ATOM      3  C   UNL     1      -1.201  -0.638   0.010  0.00  0.00    +0.086 A 
ATOM      4  C   UNL     1      -1.813  -0.966   1.222  0.00  0.00    -0.030 A 
ATOM     24  C   UNL     1      -3.046  -1.616   1.221  0.00  0.00    +0.036 A 
ATOM     25  C   UNL     1      -3.658  -1.933   0.026  0.00  0.00    +0.030 A 
ATOM     26  C   UNL     1      -3.053  -1.608  -1.175  0.00  0.00    +0.010 A 
ATOM     27  C   UNL     1      -1.830  -0.957  -1.187  0.00  0.00    +0.092 A 
BRANCH   3   2
ATOM      1  C   UNL     1      -0.017   1.425   0.010  0.00  0.00    +0.232 C 
ATOM      2  O   UNL     1       0.002  -0.004   0.002  0.00  0.00    -0.331 OA
ENDBRANCH   3   2
BRANCH  27  28
ATOM     28  O   UNL     1      -1.242  -0.634  -2.371  0.00  0.00    -0.490 OA
ATOM     29  H   UNL     1      -0.660  -1.323  -2.721  0.00  0.00    +0.394 HD
ENDBRANCH  27  28
ENDBRANCH   5   4
BRANCH  10  11
ATOM     11  O   UNL     1      -2.727   2.197   5.348  0.00  0.00    -0.458 OA
ATOM     12  H   UNL     1      -3.588   1.782   5.493  0.00  0.00    +0.398 HD
ENDBRANCH  10  11
BRANCH  13  14
ATOM     14  O   UNL     1      -1.690   2.239   7.896  0.00  0.00    -0.463 OA
ATOM     15  H   UNL     1      -2.402   1.828   8.406  0.00  0.00    +0.388 HD
ENDBRANCH  13  14
BRANCH  16  17
ATOM     17  O   UNL     1       0.446   0.637   8.534  0.00  0.00    -0.315 OA
ATOM     18  C   UNL     1      -0.110  -0.284   9.474  0.00  0.00    +0.246 C 
ENDBRANCH  16  17
BRANCH  19  20
ATOM     20  O   UNL     1       1.571  -1.006   6.651  0.00  0.00    -0.314 OA
ATOM     21  C   UNL     1       2.874  -0.447   6.470  0.00  0.00    +0.240 C 
ENDBRANCH  19  20
TORSDOF 7
