REMARK  Name = ZINC95486365
REMARK  16 active torsions:
REMARK  status: ('A' for Active; 'I' for Inactive)
REMARK    1  A    between atoms: C1_1  and  C2_2
REMARK    2  A    between atoms: C2_2  and  C3_3
REMARK    3  A    between atoms: C2_2  and  C4_4
REMARK    4  A    between atoms: C5_5  and  C6_6
REMARK    5  A    between atoms: C6_6  and  C7_8
REMARK    6  A    between atoms: C6_6  and  O2_19
REMARK    7  A    between atoms: C7_8  and  C8_9
REMARK    8  A    between atoms: C8_9  and  C16_18
REMARK    9  A    between atoms: C9_10  and  C10_11
REMARK   10  A    between atoms: C10_11  and  C11_12
REMARK   11  A    between atoms: C11_12  and  C12_13
REMARK   12  A    between atoms: C12_13  and  C13_14
REMARK   13  A    between atoms: C12_13  and  C14_15
REMARK   14  A    between atoms: C12_13  and  O1_17
REMARK   15  A    between atoms: O2_19  and  C17_20
REMARK   16  A    between atoms: C17_20  and  C18_22
REMARK                            x       y       z     vdW  Elec       q    Type
REMARK                         _______ _______ _______ _____ _____    ______ ____
ROOT
ATOM     10  C   UNL     1      -3.948  -1.639  -2.229  0.00  0.00    +0.100 C 
ENDROOT
BRANCH  10  11
ATOM     11  C   UNL     1      -5.401  -2.041  -2.207  0.00  0.00    -0.137 C 
ATOM     12  C   UNL     1      -5.801  -3.439  -2.603  0.00  0.00    +0.073 C 
ATOM     13  C   UNL     1      -6.314  -1.176  -1.842  0.00  0.00    -0.035 C 
BRANCH  13  14
ATOM     14  C   UNL     1      -7.773  -1.548  -1.909  0.00  0.00    +0.058 C 
BRANCH  14  15
ATOM     15  C   UNL     1      -8.423  -1.312  -0.544  0.00  0.00    +0.006 C 
BRANCH  15  16
ATOM     16  C   UNL     1      -9.904  -1.690  -0.612  0.00  0.00    +0.157 C 
ATOM     21  C   UNL     1     -10.576  -0.917  -1.749  0.00  0.00    +0.064 C 
BRANCH  16  17
ATOM     17  O   UNL     1     -10.027  -3.093  -0.851  0.00  0.00    -0.555 OA
ATOM     18  H   UNL     1      -9.623  -3.646  -0.169  0.00  0.00    +0.375 HD
ENDBRANCH  16  17
BRANCH  16  19
ATOM     19  C   UNL     1     -10.571  -1.342   0.694  0.00  0.00    -0.073 C 
ATOM     20  C   UNL     1     -11.142  -2.281   1.408  0.00  0.00    +0.021 C 
ENDBRANCH  16  19
ENDBRANCH  15  16
ENDBRANCH  14  15
ENDBRANCH  13  14
ENDBRANCH  10  11
BRANCH  10   5
ATOM      5  C   UNL     1      -3.286  -2.046  -0.911  0.00  0.00    +0.217 C 
BRANCH   5   4
ATOM      3  C   UNL     1      -1.245  -1.005  -0.066  0.00  0.00    -0.023 C 
ATOM      4  C   UNL     1      -1.809  -1.756  -0.980  0.00  0.00    -0.062 C 
BRANCH   3   2
ATOM      1  C   UNL     1       0.450   0.795  -0.249  0.00  0.00    +0.026 C 
ATOM      2  C   UNL     1       0.232  -0.715  -0.135  0.00  0.00    +0.005 C 
ATOM     22  C   UNL     1       0.914  -1.235   1.132  0.00  0.00    +0.024 C 
ENDBRANCH   3   2
ENDBRANCH   5   4
BRANCH   5   6
ATOM      6  O   UNL     1      -3.868  -1.304   0.163  0.00  0.00    -0.340 OA
BRANCH   6   7
ATOM      7  C   UNL     1      -3.902  -1.898   1.366  0.00  0.00    +0.457 C 
ATOM      8  C   UNL     1      -4.500  -1.177   2.547  0.00  0.00    +0.151 C 
ATOM      9  O   UNL     1      -3.452  -3.012   1.503  0.00  0.00    -0.508 OA
ENDBRANCH   6   7
ENDBRANCH   5   6
ENDBRANCH  10   5
TORSDOF 11
