REMARK  Name = ZINC95486104
REMARK  9 active torsions:
REMARK  status: ('A' for Active; 'I' for Inactive)
REMARK    1  A    between atoms: C1_1  and  C2_2
REMARK    2  A    between atoms: C2_2  and  C3_3
REMARK    3  A    between atoms: C4_5  and  C17_31
REMARK    4  A    between atoms: C12_20  and  O6_25
REMARK    5  A    between atoms: C13_22  and  O5_24
REMARK    6  A    between atoms: O6_25  and  C14_26
REMARK    7  A    between atoms: C14_26  and  C15_28
REMARK    8  A    between atoms: C15_28  and  C16_29
REMARK    9  A    between atoms: C16_29  and  O8_30
REMARK                            x       y       z     vdW  Elec       q    Type
REMARK                         _______ _______ _______ _____ _____    ______ ____
ROOT
ATOM      3  C   UNL     1      -1.406  -0.542  -0.037  0.00  0.00    +0.188 C 
ATOM      4  C   UNL     1      -1.432  -2.059  -0.250  0.00  0.00    -0.042 C 
ATOM      7  C   UNL     1      -2.884  -2.559  -0.141  0.00  0.00    +0.059 C 
ATOM      8  C   UNL     1      -3.671  -1.891  -1.243  0.00  0.00    +0.157 C 
ATOM      9  C   UNL     1      -3.110  -2.414  -2.599  0.00  0.00    +0.011 C 
ATOM     10  C   UNL     1      -1.721  -1.817  -2.746  0.00  0.00    +0.166 C 
ATOM     18  C   UNL     1      -4.194  -1.827  -3.519  0.00  0.00    +0.061 C 
ATOM     19  C   UNL     1      -5.440  -1.974  -2.643  0.00  0.00    +0.484 C 
ATOM     20  O   UNL     1      -6.581  -1.953  -3.039  0.00  0.00    -0.435 OA
ATOM     21  O   UNL     1      -5.054  -2.150  -1.364  0.00  0.00    -0.318 OA
ATOM     22  C   UNL     1      -3.439  -2.199   1.239  0.00  0.00    +0.076 C 
ATOM     23  C   UNL     1      -3.200  -0.726   1.488  0.00  0.00    +0.481 C 
ATOM     24  O   UNL     1      -4.089  -0.007   1.878  0.00  0.00    -0.439 OA
ATOM     25  C   UNL     1      -0.849  -2.379  -1.626  0.00  0.00    +0.183 C 
ATOM     28  O   UNL     1      -1.967  -0.229   1.241  0.00  0.00    -0.355 OA
ENDROOT
BRANCH   3   2
ATOM      1  C   UNL     1       0.059   1.480   0.035  0.00  0.00    +0.029 C 
ATOM      2  C   UNL     1       0.039  -0.044  -0.096  0.00  0.00    +0.050 C 
ENDBRANCH   3   2
BRANCH   4   5
ATOM      5  C   UNL     1      -0.599  -2.727   0.814  0.00  0.00    -0.034 C 
ATOM      6  C   UNL     1       0.510  -3.342   0.487  0.00  0.00    +0.057 C 
ENDBRANCH   4   5
BRANCH  25  26
ATOM     26  O   UNL     1      -0.758  -3.797  -1.778  0.00  0.00    -0.541 OA
ATOM     27  H   UNL     1      -0.396  -4.079  -2.629  0.00  0.00    +0.385 HD
ENDBRANCH  25  26
BRANCH  10  11
ATOM     11  O   UNL     1      -1.172  -2.170  -4.017  0.00  0.00    -0.336 OA
BRANCH  11  12
ATOM     12  C   UNL     1      -0.312  -1.302  -4.572  0.00  0.00    +0.466 C 
ATOM     17  O   UNL     1      -0.035  -0.275  -3.998  0.00  0.00    -0.497 OA
BRANCH  12  13
ATOM     13  C   UNL     1       0.307  -1.606  -5.912  0.00  0.00    +0.120 C 
BRANCH  13  14
ATOM     14  C   UNL     1       1.241  -0.463  -6.314  0.00  0.00    +0.203 C 
BRANCH  14  15
ATOM     15  O   UNL     1       1.828  -0.752  -7.584  0.00  0.00    -0.573 OA
ATOM     16  H   UNL     1       2.434  -0.068  -7.902  0.00  0.00    +0.391 HD
ENDBRANCH  14  15
ENDBRANCH  13  14
ENDBRANCH  12  13
ENDBRANCH  11  12
ENDBRANCH  10  11
TORSDOF 8
