REMARK  Name = ZINC00113319
REMARK  6 active torsions:
REMARK  status: ('A' for Active; 'I' for Inactive)
REMARK    1  A    between atoms: C1_1  and  O1_2
REMARK    2  A    between atoms: O1_2  and  C2_3
REMARK    3  A    between atoms: C7_8  and  O2_9
REMARK    4  A    between atoms: O2_9  and  C8_10
REMARK    5  A    between atoms: C13_17  and  O4_19
REMARK    6  A    between atoms: O4_19  and  C14_20
REMARK                            x       y       z     vdW  Elec       q    Type
REMARK                         _______ _______ _______ _____ _____    ______ ____
ROOT
ATOM      3  C   UNL     1      -1.201  -0.638   0.010  0.00  0.00    +0.158 A 
ATOM      4  C   UNL     1      -2.377   0.099   0.020  0.00  0.00    -0.090 A 
ATOM      5  C   UNL     1      -3.597  -0.546   0.025  0.00  0.00    +0.115 A 
ATOM      6  C   UNL     1      -3.664  -1.931   0.024  0.00  0.00    -0.159 A 
ATOM      7  C   UNL     1      -2.493  -2.672   0.018  0.00  0.00    +0.236 A 
ATOM      8  N   UNL     1      -2.510  -4.078   0.027  0.00  0.00    -0.624 N 
ATOM      9  H   UNL     1      -1.710  -4.589  -0.174  0.00  0.00    +0.424 HD
ATOM     10  C   UNL     1      -3.711  -4.713   0.335  0.00  0.00    +0.260 A 
ATOM     11  C   UNL     1      -4.894  -4.041   0.347  0.00  0.00    -0.259 A 
ATOM     12  C   UNL     1      -5.888  -4.969   0.701  0.00  0.00    -0.008 A 
ATOM     13  C   UNL     1      -5.268  -6.152   0.881  0.00  0.00    +0.152 A 
ATOM     14  O   UNL     1      -3.948  -5.987   0.653  0.00  0.00    -0.178 OA
ATOM     15  C   UNL     1      -5.026  -2.580   0.026  0.00  0.00    +0.301 C 
ATOM     18  C   UNL     1      -1.259  -2.025   0.003  0.00  0.00    +0.006 A 
ENDROOT
BRANCH   3   2
ATOM      1  C   UNL     1      -0.017   1.425   0.010  0.00  0.00    +0.246 C 
ATOM      2  O   UNL     1       0.002  -0.004   0.002  0.00  0.00    -0.303 OA
ENDBRANCH   3   2
BRANCH  15  16
ATOM     16  O   UNL     1      -5.626  -2.430  -1.263  0.00  0.00    -0.375 OA
ATOM     17  C   UNL     1      -7.053  -2.362  -1.235  0.00  0.00    +0.199 C 
ENDBRANCH  15  16
BRANCH  18  19
ATOM     19  O   UNL     1      -0.109  -2.752  -0.012  0.00  0.00    -0.318 OA
ATOM     20  C   UNL     1       0.452  -3.106   1.254  0.00  0.00    +0.216 C 
ENDBRANCH  18  19
TORSDOF 3
