REMARK  Name = ZINC14721302
REMARK  5 active torsions:
REMARK  status: ('A' for Active; 'I' for Inactive)
REMARK    1  A    between atoms: C1_1  and  N1_2
REMARK    2  A    between atoms: C6_7  and  O3_19
REMARK    3  A    between atoms: C11_13  and  O2_17
REMARK    4  A    between atoms: O2_17  and  C15_18
REMARK    5  A    between atoms: O3_19  and  C16_20
REMARK                            x       y       z     vdW  Elec       q    Type
REMARK                         _______ _______ _______ _____ _____    ______ ____
ROOT
ATOM      1  C   UNL     1      -1.408   5.913   0.049  0.00  0.00    +0.332 C 
ATOM      2  N   UNL     1      -0.107   5.241   0.029  0.00  0.00    -0.509 N 
ATOM      3  C   UNL     1       0.989   5.901   0.548  0.00  0.00    +0.258 A 
ATOM      4  C   UNL     1       0.846   7.180   1.071  0.00  0.00    -0.033 A 
ATOM      5  C   UNL     1       1.941   7.849   1.595  0.00  0.00    +0.130 A 
ATOM      6  C   UNL     1       3.201   7.248   1.601  0.00  0.00    -0.044 A 
ATOM      7  O   UNL     1       4.095   8.114   2.165  0.00  0.00    -0.295 OA
ATOM      8  C   UNL     1       3.454   9.403   2.128  0.00  0.00    +0.437 C 
ATOM      9  C   UNL     1       3.364   5.975   1.084  0.00  0.00    +0.216 A 
ATOM     12  O   UNL     1       2.050   9.089   2.155  0.00  0.00    -0.299 OA
ATOM     13  C   UNL     1       2.259   5.293   0.553  0.00  0.00    -0.236 A 
ATOM     14  C   UNL     1       2.408   3.941  -0.002  0.00  0.00    +0.442 A 
ATOM     15  C   UNL     1       1.202   3.288  -0.545  0.00  0.00    -0.175 A 
ATOM     16  C   UNL     1       1.273   2.005  -1.092  0.00  0.00    +0.087 A 
ATOM     17  C   UNL     1       0.136   1.412  -1.595  0.00  0.00    +0.012 A 
ATOM     18  C   UNL     1      -1.076   2.086  -1.566  0.00  0.00    -0.001 A 
ATOM     19  C   UNL     1      -1.164   3.353  -1.024  0.00  0.00    +0.069 A 
ATOM     22  O   UNL     1       3.490   3.380  -0.014  0.00  0.00    -0.445 OA
ATOM     23  C   UNL     1      -0.022   3.973  -0.508  0.00  0.00    +0.198 A 
ENDROOT
BRANCH   9  10
ATOM     10  O   UNL     1       4.589   5.388   1.090  0.00  0.00    -0.312 OA
ATOM     11  C   UNL     1       5.418   5.604  -0.053  0.00  0.00    +0.244 C 
ENDBRANCH   9  10
BRANCH  19  20
ATOM     20  O   UNL     1      -2.360   4.001  -0.997  0.00  0.00    -0.309 OA
ATOM     21  C   UNL     1      -3.485   3.308  -1.542  0.00  0.00    +0.233 C 
ENDBRANCH  19  20
TORSDOF 2
