REMARK  Name = ZINC04654685
REMARK  8 active torsions:
REMARK  status: ('A' for Active; 'I' for Inactive)
REMARK    1  A    between atoms: C1_1  and  C2_2
REMARK    2  A    between atoms: C4_4  and  O3_27
REMARK    3  A    between atoms: C7_7  and  C8_8
REMARK    4  A    between atoms: C11_11  and  O1_21
REMARK    5  A    between atoms: C15_15  and  C18_20
REMARK    6  A    between atoms: C16_17  and  C17_19
REMARK    7  A    between atoms: C22_25  and  O2_26
REMARK    8  A    between atoms: O3_27  and  C23_28
REMARK                            x       y       z     vdW  Elec       q    Type
REMARK                         _______ _______ _______ _____ _____    ______ ____
ROOT
ATOM     16  C   UNL     1       4.976   0.828  -0.291  0.00  0.00    -0.013 A 
ATOM     17  C   UNL     1       5.622   0.317  -1.415  0.00  0.00    +0.075 A 
ATOM     18  C   UNL     1       6.836  -0.320  -1.276  0.00  0.00    +0.012 A 
ATOM     19  C   UNL     1       7.408  -0.454  -0.019  0.00  0.00    +0.137 A 
ATOM     22  C   UNL     1       6.766   0.054   1.108  0.00  0.00    -0.150 A 
ATOM     23  C   UNL     1       7.428  -0.123   2.449  0.00  0.00    +0.236 C 
ATOM     24  N   UNL     1       6.857   0.805   3.435  0.00  0.00    -0.512 N 
ATOM     25  H   UNL     1       7.110   1.768   3.182  0.00  0.00    +0.432 HD
ATOM     26  H   UNL     1       7.232   0.586   4.366  0.00  0.00    +0.436 HD
ATOM     27  C   UNL     1       5.389   0.674   3.456  0.00  0.00    +0.181 C 
ATOM     28  C   UNL     1       5.003  -0.804   3.551  0.00  0.00    +0.088 C 
ATOM     29  C   UNL     1       4.829   1.269   2.163  0.00  0.00    +0.127 C 
ATOM     30  C   UNL     1       8.927   0.152   2.312  0.00  0.00    +0.093 C 
ATOM     31  C   UNL     1       5.559   0.699   0.974  0.00  0.00    -0.060 A 
ENDROOT
BRANCH  16  15
ATOM      1  C   UNL     1       4.906   3.665  -0.742  0.00  0.00    +0.095 C 
ATOM      2  C   UNL     1       3.623   2.879  -0.654  0.00  0.00    -0.002 A 
ATOM      3  C   UNL     1       2.406   3.534  -0.793  0.00  0.00    -0.103 A 
ATOM      4  C   UNL     1       1.217   2.841  -0.717  0.00  0.00    +0.181 A 
ATOM      7  C   UNL     1       1.229   1.449  -0.496  0.00  0.00    -0.108 A 
ATOM      8  C   UNL     1       2.465   0.776  -0.354  0.00  0.00    +0.023 A 
ATOM      9  C   UNL     1       2.477  -0.609  -0.134  0.00  0.00    -0.016 A 
ATOM     10  C   UNL     1       1.303  -1.296  -0.059  0.00  0.00    +0.060 A 
ATOM     11  C   UNL     1       0.081  -0.645  -0.197  0.00  0.00    -0.029 A 
ATOM     12  C   UNL     1       0.029   0.715  -0.414  0.00  0.00    +0.156 A 
ATOM     15  C   UNL     1       3.671   1.514  -0.436  0.00  0.00    -0.122 A 
BRANCH   4   5
ATOM      5  O   UNL     1       0.036   3.498  -0.855  0.00  0.00    -0.291 OA
ATOM      6  C   UNL     1       0.101   4.908  -1.077  0.00  0.00    +0.249 C 
ENDBRANCH   4   5
BRANCH  12  13
ATOM     13  O   UNL     1      -1.168   1.341  -0.553  0.00  0.00    -0.478 OA
ATOM     14  H   UNL     1      -1.544   1.660   0.279  0.00  0.00    +0.395 HD
ENDBRANCH  12  13
ENDBRANCH  16  15
BRANCH  19  20
ATOM     20  O   UNL     1       8.604  -1.084   0.113  0.00  0.00    -0.493 OA
ATOM     21  H   UNL     1       9.369  -0.514  -0.044  0.00  0.00    +0.399 HD
ENDBRANCH  19  20
TORSDOF 4
