REMARK  Name = ZINC95485998
REMARK  16 active torsions:
REMARK  status: ('A' for Active; 'I' for Inactive)
REMARK    1  A    between atoms: C1_1  and  C2_2
REMARK    2  A    between atoms: C2_2  and  C3_3
REMARK    3  A    between atoms: C5_7  and  O9_41
REMARK    4  A    between atoms: C6_9  and  O6_33
REMARK    5  A    between atoms: C7_11  and  C21_32
REMARK    6  A    between atoms: C8_12  and  O3_24
REMARK    7  A    between atoms: C11_16  and  C14_22
REMARK    8  A    between atoms: C11_16  and  C15_23
REMARK    9  A    between atoms: C13_18  and  O1_20
REMARK   10  A    between atoms: O3_24  and  C16_25
REMARK   11  A    between atoms: C16_25  and  C17_27
REMARK   12  A    between atoms: O6_33  and  C22_34
REMARK   13  A    between atoms: C22_34  and  C23_36
REMARK   14  A    between atoms: O9_41  and  C27_42
REMARK   15  A    between atoms: C27_42  and  C28_44
REMARK   16  A    between atoms: N1_49  and  C33_51
REMARK                            x       y       z     vdW  Elec       q    Type
REMARK                         _______ _______ _______ _____ _____    ______ ____
ROOT
ATOM      3  C   UNL     1       0.268  -1.154   1.075  0.00  0.00    +0.189 C 
ATOM      4  C   UNL     1       0.343  -2.687   1.282  0.00  0.00    -0.036 C 
ATOM      5  C   UNL     1       0.549  -2.936   2.788  0.00  0.00    +0.186 C 
ATOM     17  C   UNL     1       1.552  -1.920   3.333  0.00  0.00    +0.181 C 
ATOM     26  C   UNL     1       2.856  -1.957   2.524  0.00  0.00    -0.051 C 
ATOM     27  C   UNL     1       3.569  -3.292   2.744  0.00  0.00    +0.067 C 
ATOM     28  C   UNL     1       3.742  -0.796   2.986  0.00  0.00    +0.212 C 
ATOM     37  C   UNL     1       5.005  -0.729   2.129  0.00  0.00    +0.011 C 
ATOM     38  C   UNL     1       4.611  -0.473   0.672  0.00  0.00    +0.045 C 
ATOM     39  C   UNL     1       3.751  -1.638   0.178  0.00  0.00    -0.041 C 
ATOM     40  C   UNL     1       3.330  -1.379  -1.270  0.00  0.00    +0.055 C 
ATOM     41  C   UNL     1       4.567  -2.931   0.240  0.00  0.00    +0.035 C 
ATOM     42  C   UNL     1       2.514  -1.785   1.040  0.00  0.00    +0.146 C 
ATOM     43  C   UNL     1       1.691  -3.034   0.582  0.00  0.00    +0.167 C 
ATOM     46  O   UNL     1       1.609  -0.683   0.874  0.00  0.00    -0.332 OA
ENDROOT
BRANCH   3   2
ATOM      1  C   UNL     1      -0.751   0.679  -0.282  0.00  0.00    +0.014 C 
ATOM      2  C   UNL     1      -0.586  -0.836  -0.154  0.00  0.00    +0.010 C 
ENDBRANCH   3   2
BRANCH  43  44
ATOM     44  O   UNL     1       1.540  -3.105  -0.838  0.00  0.00    -0.523 OA
ATOM     45  H   UNL     1       0.922  -3.787  -1.134  0.00  0.00    +0.374 HD
ENDBRANCH  43  44
BRANCH   5   6
ATOM      6  O   UNL     1      -0.698  -2.791   3.470  0.00  0.00    -0.333 OA
BRANCH   6   7
ATOM      7  C   UNL     1      -0.876  -3.529   4.583  0.00  0.00    +0.541 C 
ATOM     16  O   UNL     1       0.004  -4.275   4.965  0.00  0.00    -0.511 OA
BRANCH   7   8
ATOM      8  C   UNL     1      -2.137  -3.431   5.339  0.00  0.00    -0.231 A 
ATOM      9  C   UNL     1      -3.169  -2.568   4.896  0.00  0.00    +0.163 A 
ATOM     10  C   UNL     1      -4.322  -2.497   5.613  0.00  0.00    -0.086 A 
ATOM     11  C   UNL     1      -4.465  -3.280   6.774  0.00  0.00    +0.516 A 
ATOM     12  N   UNL     1      -3.473  -4.094   7.176  0.00  0.00    -0.490 N 
ATOM     13  C   UNL     1      -3.647  -4.899   8.388  0.00  0.00    +0.329 C 
ATOM     14  O   UNL     1      -5.498  -3.221   7.420  0.00  0.00    -0.533 OA
ATOM     15  C   UNL     1      -2.324  -4.185   6.480  0.00  0.00    +0.404 A 
ENDBRANCH   7   8
ENDBRANCH   6   7
ENDBRANCH   5   6
BRANCH  17  18
ATOM     18  O   UNL     1       0.986  -0.610   3.254  0.00  0.00    -0.314 OA
BRANCH  18  19
ATOM     19  C   UNL     1       0.280  -0.183   4.319  0.00  0.00    +0.532 C 
ATOM     25  O   UNL     1       0.148  -0.903   5.290  0.00  0.00    -0.496 OA
BRANCH  19  20
ATOM     20  C   UNL     1      -0.332   1.156   4.308  0.00  0.00    -0.230 A 
ATOM     21  C   UNL     1      -1.124   1.781   5.378  0.00  0.00    -0.002 A 
ATOM     22  C   UNL     1      -1.468   2.995   4.921  0.00  0.00    +0.177 A 
ATOM     23  O   UNL     1      -0.964   3.160   3.688  0.00  0.00    -0.169 OA
ATOM     24  C   UNL     1      -0.278   2.080   3.304  0.00  0.00    +0.278 A 
ENDBRANCH  19  20
ENDBRANCH  18  19
ENDBRANCH  17  18
BRANCH  28  29
ATOM     29  O   UNL     1       4.108  -0.995   4.353  0.00  0.00    -0.347 OA
BRANCH  29  30
ATOM     30  C   UNL     1       4.321   0.109   5.096  0.00  0.00    +0.537 C 
ATOM     36  O   UNL     1       4.198   1.211   4.597  0.00  0.00    -0.496 OA
BRANCH  30  31
ATOM     31  C   UNL     1       4.702  -0.019   6.513  0.00  0.00    -0.231 A 
ATOM     32  C   UNL     1       4.964   1.071   7.465  0.00  0.00    -0.000 A 
ATOM     33  C   UNL     1       5.274   0.478   8.628  0.00  0.00    +0.178 A 
ATOM     34  O   UNL     1       5.223  -0.854   8.470  0.00  0.00    -0.170 OA
ATOM     35  C   UNL     1       4.879  -1.173   7.218  0.00  0.00    +0.276 A 
ENDBRANCH  30  31
ENDBRANCH  29  30
ENDBRANCH  28  29
TORSDOF 11
