REMARK  Name = ZINC95486177
REMARK  13 active torsions:
REMARK  status: ('A' for Active; 'I' for Inactive)
REMARK    1  A    between atoms: C1_1  and  C2_2
REMARK    2  A    between atoms: C6_7  and  C30_46
REMARK    3  A    between atoms: C10_15  and  C11_17
REMARK    4  A    between atoms: C15_22  and  C28_42
REMARK    5  A    between atoms: C18_27  and  C27_41
REMARK    6  A    between atoms: C19_28  and  O7_40
REMARK    7  A    between atoms: C21_31  and  C25_36
REMARK    8  A    between atoms: C22_33  and  C23_34
REMARK    9  A    between atoms: C22_33  and  C24_35
REMARK   10  A    between atoms: C25_36  and  O6_38
REMARK   11  A    between atoms: O6_38  and  C26_39
REMARK   12  A    between atoms: C28_42  and  O9_44
REMARK   13  A    between atoms: O9_44  and  C29_45
REMARK                            x       y       z     vdW  Elec       q    Type
REMARK                         _______ _______ _______ _____ _____    ______ ____
ROOT
ATOM      1  C   UNL     1      -0.016   1.768  -1.088  0.00  0.00    +0.054 C 
ATOM      2  C   UNL     1       0.023   0.236  -1.212  0.00  0.00    -0.058 C 
ATOM      3  C   UNL     1       1.018  -0.138  -2.304  0.00  0.00    +0.040 C 
ATOM      4  C   UNL     1       2.445   0.213  -1.931  0.00  0.00    +0.059 C 
ATOM      5  C   UNL     1       2.817  -0.062  -0.482  0.00  0.00    +0.017 C 
ATOM      6  C   UNL     1       1.830  -0.968   0.231  0.00  0.00    +0.020 C 
ATOM      7  C   UNL     1       1.681  -2.319  -0.526  0.00  0.00    +0.049 C 
ATOM      8  C   UNL     1       2.266  -1.363   1.622  0.00  0.00    +0.018 C 
ATOM     13  C   UNL     1       3.758  -1.558   1.827  0.00  0.00    +0.067 C 
ATOM     14  C   UNL     1       4.681  -0.597   1.113  0.00  0.00    +0.014 C 
ATOM     15  C   UNL     1       5.048   0.643   1.890  0.00  0.00    -0.041 C 
ATOM     16  C   UNL     1       5.831   0.230   3.156  0.00  0.00    +0.030 C 
ATOM     17  C   UNL     1       3.857   1.487   2.336  0.00  0.00    +0.038 C 
ATOM     18  C   UNL     1       5.980   1.564   1.086  0.00  0.00    +0.034 C 
ATOM     23  C   UNL     1       5.306   1.892  -0.248  0.00  0.00    +0.020 C 
ATOM     24  C   UNL     1       5.205   0.590  -1.033  0.00  0.00    +0.171 C 
ATOM     27  C   UNL     1       4.282  -0.419  -0.346  0.00  0.00    -0.019 C 
ATOM     28  C   UNL     1       4.596  -1.761  -1.056  0.00  0.00    +0.033 C 
ATOM     29  C   UNL     1      -1.365  -0.212  -1.646  0.00  0.00    +0.272 C 
ATOM     35  O   UNL     1      -2.323  -0.232  -0.606  0.00  0.00    -0.346 OA
ATOM     36  C   UNL     1      -2.056  -0.992   0.466  0.00  0.00    +0.513 C 
ATOM     37  O   UNL     1      -2.899  -1.699   0.957  0.00  0.00    -0.427 OA
ATOM     38  C   UNL     1      -0.662  -0.923   1.039  0.00  0.00    +0.062 C 
ATOM     39  O   UNL     1      -0.113   0.375   1.263  0.00  0.00    -0.269 OA
ATOM     40  C   UNL     1       0.434  -0.332   0.148  0.00  0.00    +0.078 C 
ENDROOT
BRANCH  29  30
ATOM     30  C   UNL     1      -1.859   0.720  -2.722  0.00  0.00    -0.187 A 
ATOM     31  C   UNL     1      -1.852   0.478  -4.115  0.00  0.00    -0.044 A 
ATOM     32  C   UNL     1      -2.381   1.566  -4.702  0.00  0.00    +0.169 A 
ATOM     33  O   UNL     1      -2.706   2.450  -3.745  0.00  0.00    -0.172 OA
ATOM     34  C   UNL     1      -2.396   1.940  -2.541  0.00  0.00    +0.208 A 
ENDBRANCH  29  30
BRANCH   8   9
ATOM      9  C   UNL     1       1.707  -0.605   2.785  0.00  0.00    +0.445 C 
ATOM     12  O   UNL     1       1.519   0.585   2.697  0.00  0.00    -0.451 OA
BRANCH   9  10
ATOM     10  O   UNL     1       1.415  -1.247   3.927  0.00  0.00    -0.359 OA
ATOM     11  C   UNL     1       0.885  -0.461   4.996  0.00  0.00    +0.257 C 
ENDBRANCH   9  10
ENDBRANCH   8   9
BRANCH  18  19
ATOM     19  C   UNL     1       6.216   2.832   1.862  0.00  0.00    +0.470 C 
ATOM     22  O   UNL     1       5.539   3.809   1.645  0.00  0.00    -0.498 OA
BRANCH  19  20
ATOM     20  O   UNL     1       7.180   2.878   2.796  0.00  0.00    -0.352 OA
ATOM     21  C   UNL     1       7.348   4.113   3.494  0.00  0.00    +0.255 C 
ENDBRANCH  19  20
ENDBRANCH  18  19
BRANCH  24  25
ATOM     25  O   UNL     1       4.838   0.848  -2.380  0.00  0.00    -0.549 OA
ATOM     26  H   UNL     1       5.412   1.484  -2.829  0.00  0.00    +0.377 HD
ENDBRANCH  24  25
TORSDOF 6
