REMARK  Name = ZINC13359254
REMARK  12 active torsions:
REMARK  status: ('A' for Active; 'I' for Inactive)
REMARK    1  A    between atoms: C1_1  and  C2_2
REMARK    2  A    between atoms: C5_5  and  C14_16
REMARK    3  A    between atoms: C8_8  and  O2_14
REMARK    4  A    between atoms: C10_10  and  O1_12
REMARK    5  A    between atoms: O1_12  and  C12_13
REMARK    6  A    between atoms: O2_14  and  C13_15
REMARK    7  A    between atoms: C17_19  and  C26_31
REMARK    8  A    between atoms: C18_21  and  C25_30
REMARK    9  A    between atoms: C20_23  and  O4_28
REMARK   10  A    between atoms: C22_25  and  O3_26
REMARK   11  A    between atoms: O3_26  and  C23_27
REMARK   12  A    between atoms: O4_28  and  C24_29
REMARK                            x       y       z     vdW  Elec       q    Type
REMARK                         _______ _______ _______ _____ _____    ______ ____
ROOT
ATOM      6  C   UNL     1       0.039   2.591   4.711  0.00  0.00    -0.125 A 
ATOM      7  C   UNL     1      -0.651   2.292   3.516  0.00  0.00    +0.069 A 
ATOM      8  C   UNL     1       0.008   1.794   2.380  0.00  0.00    -0.041 A 
ATOM      9  C   UNL     1      -0.725   1.529   1.262  0.00  0.00    +0.138 A 
ATOM     10  C   UNL     1      -0.027   0.995   0.037  0.00  0.00    +0.125 C 
ATOM     11  N   UNL     1      -2.035   1.734   1.220  0.00  0.00    -0.506 NA
ATOM     12  C   UNL     1      -2.714   2.192   2.246  0.00  0.00    +0.209 A 
ATOM     13  C   UNL     1      -4.203   2.397   2.134  0.00  0.00    +0.148 C 
ATOM     14  C   UNL     1      -2.053   2.496   3.444  0.00  0.00    -0.166 A 
ATOM     15  C   UNL     1      -2.741   2.996   4.569  0.00  0.00    +0.211 A 
ATOM     18  C   UNL     1      -2.049   3.281   5.724  0.00  0.00    -0.168 A 
ATOM     19  C   UNL     1      -0.671   3.083   5.803  0.00  0.00    +0.205 A 
ENDROOT
BRANCH   6   5
ATOM      1  C   UNL     1       0.761  -2.228   6.393  0.00  0.00    +0.090 C 
ATOM      2  C   UNL     1       1.687  -1.102   6.014  0.00  0.00    -0.027 A 
ATOM      3  C   UNL     1       1.164   0.085   5.595  0.00  0.00    -0.029 A 
ATOM      4  C   UNL     1       2.017   1.141   5.245  0.00  0.00    +0.043 A 
ATOM      5  C   UNL     1       1.499   2.384   4.802  0.00  0.00    -0.065 A 
ATOM     22  C   UNL     1       2.371   3.404   4.460  0.00  0.00    +0.083 A 
ATOM     23  C   UNL     1       3.745   3.220   4.541  0.00  0.00    -0.107 A 
ATOM     24  C   UNL     1       4.276   2.021   4.963  0.00  0.00    +0.170 A 
ATOM     27  C   UNL     1       3.418   0.961   5.320  0.00  0.00    -0.099 A 
ATOM     28  C   UNL     1       3.933  -0.276   5.756  0.00  0.00    +0.170 A 
ATOM     31  C   UNL     1       3.063  -1.289   6.096  0.00  0.00    -0.109 A 
BRANCH  24  25
ATOM     25  O   UNL     1       5.622   1.860   5.036  0.00  0.00    -0.291 OA
ATOM     26  C   UNL     1       6.430   2.977   4.659  0.00  0.00    +0.237 C 
ENDBRANCH  24  25
BRANCH  28  29
ATOM     29  O   UNL     1       5.274  -0.468   5.840  0.00  0.00    -0.291 OA
ATOM     30  C   UNL     1       5.719  -1.750   6.290  0.00  0.00    +0.237 C 
ENDBRANCH  28  29
ENDBRANCH   6   5
BRANCH  15  16
ATOM     16  O   UNL     1      -4.082   3.197   4.512  0.00  0.00    -0.294 OA
ATOM     17  C   UNL     1      -4.713   3.706   5.689  0.00  0.00    +0.241 C 
ENDBRANCH  15  16
BRANCH  19  20
ATOM     20  O   UNL     1      -0.015   3.373   6.956  0.00  0.00    -0.298 OA
ATOM     21  C   UNL     1      -0.800   3.874   8.040  0.00  0.00    +0.240 C 
ENDBRANCH  19  20
TORSDOF 5
