REMARK  Name = ZINC14779985
REMARK  8 active torsions:
REMARK  status: ('A' for Active; 'I' for Inactive)
REMARK    1  A    between atoms: C1_1  and  C2_2
REMARK    2  A    between atoms: C3_3  and  O4_21
REMARK    3  A    between atoms: C4_4  and  C17_20
REMARK    4  A    between atoms: C5_5  and  O3_19
REMARK    5  A    between atoms: C6_6  and  C8_9
REMARK    6  A    between atoms: C7_7  and  O1_8
REMARK    7  A    between atoms: C8_9  and  C9_11
REMARK    8  A    between atoms: C10_12  and  C11_13
REMARK                            x       y       z     vdW  Elec       q    Type
REMARK                         _______ _______ _______ _____ _____    ______ ____
ROOT
ATOM      1  C   UNL     1       1.134   1.500  -2.495  0.00  0.00    +0.114 C 
ATOM      2  C   UNL     1       1.836   1.820  -1.201  0.00  0.00    -0.140 A 
ATOM      3  C   UNL     1       1.221   1.533   0.011  0.00  0.00    +0.148 A 
ATOM      6  C   UNL     1       1.857   1.829   1.210  0.00  0.00    -0.140 A 
ATOM      7  C   UNL     1       1.177   1.518   2.518  0.00  0.00    +0.114 C 
ATOM      8  C   UNL     1       3.115   2.404   1.206  0.00  0.00    +0.161 A 
ATOM     11  C   UNL     1       3.744   2.698  -0.015  0.00  0.00    -0.200 A 
ATOM     22  C   UNL     1       3.091   2.400  -1.222  0.00  0.00    +0.162 A 
ENDROOT
BRANCH   3   4
ATOM      4  O   UNL     1      -0.012   0.964   0.024  0.00  0.00    -0.485 OA
ATOM      5  H   UNL     1       0.002  -0.003   0.025  0.00  0.00    +0.395 HD
ENDBRANCH   3   4
BRANCH   8   9
ATOM      9  O   UNL     1       3.736   2.688   2.377  0.00  0.00    -0.485 OA
ATOM     10  H   UNL     1       3.546   3.572   2.720  0.00  0.00    +0.397 HD
ENDBRANCH   8   9
BRANCH  11  12
ATOM     12  C   UNL     1       5.080   3.314  -0.029  0.00  0.00    +0.453 C 
ATOM     21  O   UNL     1       5.192   4.524  -0.119  0.00  0.00    -0.453 OA
BRANCH  12  13
ATOM     13  C   UNL     1       6.275   2.473   0.066  0.00  0.00    -0.090 C 
ATOM     14  C   UNL     1       7.495   3.043   0.160  0.00  0.00    +0.124 C 
BRANCH  14  15
ATOM     15  C   UNL     1       8.696   2.198   0.255  0.00  0.00    -0.083 A 
ATOM     16  C   UNL     1       8.577   0.804   0.256  0.00  0.00    +0.031 A 
ATOM     17  C   UNL     1       9.707   0.020   0.340  0.00  0.00    +0.004 A 
ATOM     18  C   UNL     1      10.957   0.608   0.436  0.00  0.00    +0.021 A 
ATOM     19  C   UNL     1      11.082   1.986   0.441  0.00  0.00    +0.004 A 
ATOM     20  C   UNL     1       9.962   2.784   0.352  0.00  0.00    +0.036 A 
ENDBRANCH  14  15
ENDBRANCH  12  13
ENDBRANCH  11  12
BRANCH  22  23
ATOM     23  O   UNL     1       3.691   2.679  -2.407  0.00  0.00    -0.486 OA
ATOM     24  H   UNL     1       3.495   3.563  -2.748  0.00  0.00    +0.399 HD
ENDBRANCH  22  23
TORSDOF 6
