REMARK  Name = ZINC85967841
REMARK  11 active torsions:
REMARK  status: ('A' for Active; 'I' for Inactive)
REMARK    1  A    between atoms: C1_1  and  C2_2
REMARK    2  A    between atoms: C2_2  and  C3_3
REMARK    3  A    between atoms: C2_2  and  C4_4
REMARK    4  A    between atoms: C10_10  and  C29_34
REMARK    5  A    between atoms: C12_12  and  O2_15
REMARK    6  A    between atoms: C16_18  and  O3_23
REMARK    7  A    between atoms: C17_20  and  C18_21
REMARK    8  A    between atoms: C17_20  and  C19_22
REMARK    9  A    between atoms: O3_23  and  C20_24
REMARK   10  A    between atoms: C20_24  and  C21_26
REMARK   11  A    between atoms: C22_27  and  C23_28
REMARK                            x       y       z     vdW  Elec       q    Type
REMARK                         _______ _______ _______ _____ _____    ______ ____
ROOT
ATOM      3  C   UNL     1      -3.200   1.183   1.212  0.00  0.00    -0.193 C 
ATOM      4  C   UNL     1      -2.949   0.292   0.221  0.00  0.00    +0.110 C 
ATOM      5  C   UNL     1      -3.922  -0.674  -0.126  0.00  0.00    -0.111 C 
ATOM      6  C   UNL     1      -3.678  -1.584  -1.155  0.00  0.00    +0.145 C 
ATOM      7  C   UNL     1      -4.617  -2.539  -1.562  0.00  0.00    -0.037 C 
ATOM      8  C   UNL     1      -5.807  -2.667  -0.965  0.00  0.00    -0.015 C 
ATOM      9  C   UNL     1      -6.154  -1.775   0.210  0.00  0.00    +0.010 C 
ATOM     10  C   UNL     1      -6.382  -2.666   1.433  0.00  0.00    +0.061 C 
ATOM     11  C   UNL     1      -7.469  -1.082  -0.147  0.00  0.00    +0.060 C 
ATOM     12  C   UNL     1      -8.534  -2.139  -0.447  0.00  0.00    +0.015 C 
ATOM     13  C   UNL     1      -8.146  -2.940  -1.691  0.00  0.00    +0.190 C 
ATOM     25  C   UNL     1      -6.825  -3.676  -1.434  0.00  0.00    -0.021 C 
ATOM     26  C   UNL     1      -6.341  -4.334  -2.727  0.00  0.00    +0.051 C 
ATOM     27  C   UNL     1      -7.029  -4.742  -0.356  0.00  0.00    +0.061 C 
ATOM     28  C   UNL     1      -5.150  -0.712   0.583  0.00  0.00    -0.052 C 
ATOM     29  C   UNL     1      -5.402   0.179   1.570  0.00  0.00    +0.018 C 
ATOM     32  C   UNL     1      -4.426   1.149   1.906  0.00  0.00    +0.388 C 
ATOM     33  O   UNL     1      -4.649   1.959   2.795  0.00  0.00    -0.471 OA
ENDROOT
BRANCH   3   2
ATOM      1  C   UNL     1      -2.739   3.614   1.379  0.00  0.00    +0.027 C 
ATOM      2  C   UNL     1      -2.160   2.212   1.577  0.00  0.00    +0.038 C 
ATOM     34  C   UNL     1      -1.754   2.029   3.041  0.00  0.00    +0.027 C 
ENDBRANCH   3   2
BRANCH  29  30
ATOM     30  O   UNL     1      -6.586   0.140   2.238  0.00  0.00    -0.460 OA
ATOM     31  H   UNL     1      -6.673   0.816   2.924  0.00  0.00    +0.400 HD
ENDBRANCH  29  30
BRANCH  13  14
ATOM     14  O   UNL     1      -9.172  -3.891  -1.984  0.00  0.00    -0.336 OA
BRANCH  14  15
ATOM     15  C   UNL     1     -10.164  -3.488  -2.804  0.00  0.00    +0.497 C 
ATOM     24  O   UNL     1     -10.158  -2.360  -3.258  0.00  0.00    -0.509 OA
BRANCH  15  16
ATOM     16  C   UNL     1     -11.247  -4.408  -3.148  0.00  0.00    -0.056 C 
ATOM     17  C   UNL     1     -12.240  -4.005  -3.969  0.00  0.00    +0.140 C 
BRANCH  17  18
ATOM     18  C   UNL     1     -13.330  -4.931  -4.315  0.00  0.00    -0.086 A 
ATOM     19  C   UNL     1     -13.344  -6.228  -3.791  0.00  0.00    +0.034 A 
ATOM     20  C   UNL     1     -14.369  -7.090  -4.120  0.00  0.00    +0.005 A 
ATOM     21  C   UNL     1     -15.382  -6.675  -4.966  0.00  0.00    +0.025 A 
ATOM     22  C   UNL     1     -15.376  -5.393  -5.489  0.00  0.00    +0.005 A 
ATOM     23  C   UNL     1     -14.361  -4.518  -5.165  0.00  0.00    +0.040 A 
ENDBRANCH  17  18
ENDBRANCH  15  16
ENDBRANCH  14  15
ENDBRANCH  13  14
TORSDOF 6
