REMARK  Name = ZINC95485982
REMARK  13 active torsions:
REMARK  status: ('A' for Active; 'I' for Inactive)
REMARK    1  A    between atoms: C1_1  and  C2_2
REMARK    2  A    between atoms: C2_2  and  C3_4
REMARK    3  A    between atoms: C2_2  and  C10_11
REMARK    4  A    between atoms: C3_4  and  C4_5
REMARK    5  A    between atoms: C4_5  and  C5_6
REMARK    6  A    between atoms: C5_6  and  C7_8
REMARK    7  A    between atoms: C7_8  and  C8_9
REMARK    8  A    between atoms: C7_8  and  C9_10
REMARK    9  A    between atoms: C13_15  and  C31_37
REMARK   10  A    between atoms: C14_16  and  C30_36
REMARK   11  A    between atoms: C26_30  and  O1_35
REMARK   12  A    between atoms: C27_32  and  C28_33
REMARK   13  A    between atoms: C27_32  and  C29_34
REMARK                            x       y       z     vdW  Elec       q    Type
REMARK                         _______ _______ _______ _____ _____    ______ ____
ROOT
ATOM      3  C   UNL     1       1.418  -1.201  -1.326  0.00  0.00    -0.006 C 
ATOM      4  C   UNL     1       0.884  -1.047  -2.766  0.00  0.00    +0.007 C 
ATOM      5  C   UNL     1       0.862  -2.494  -3.321  0.00  0.00    +0.016 C 
ATOM      6  C   UNL     1       0.429  -3.323  -2.087  0.00  0.00    -0.033 C 
ATOM      7  C   UNL     1      -1.077  -3.120  -1.909  0.00  0.00    +0.015 C 
ATOM      8  C   UNL     1       0.667  -4.777  -2.297  0.00  0.00    +0.019 C 
ATOM      9  C   UNL     1       0.976  -5.111  -3.750  0.00  0.00    +0.017 C 
ATOM     10  C   UNL     1       1.048  -6.634  -3.929  0.00  0.00    +0.019 C 
ATOM     11  C   UNL     1       2.338  -7.110  -3.274  0.00  0.00    +0.031 C 
ATOM     12  C   UNL     1       2.328  -6.754  -1.786  0.00  0.00    -0.100 C 
ATOM     13  C   UNL     1       3.617  -7.148  -1.050  0.00  0.00    +0.056 C 
ATOM     14  C   UNL     1       3.823  -8.656  -1.246  0.00  0.00    -0.015 C 
ATOM     15  C   UNL     1       3.862  -8.998  -2.734  0.00  0.00    +0.167 C 
ATOM     18  C   UNL     1       1.029  -6.977  -1.007  0.00  0.00    +0.000 C 
ATOM     19  C   UNL     1       2.528  -8.620  -3.397  0.00  0.00    -0.042 C 
ATOM     20  C   UNL     1       2.574  -9.013  -4.875  0.00  0.00    +0.028 C 
ATOM     21  C   UNL     1       1.370  -9.342  -2.706  0.00  0.00    +0.032 C 
ATOM     22  C   UNL     1       1.526  -5.547  -1.317  0.00  0.00    -0.078 C 
ATOM     23  C   UNL     1       2.108  -4.780  -0.123  0.00  0.00    +0.043 C 
ATOM     24  C   UNL     1       2.428  -3.350  -0.558  0.00  0.00    +0.023 C 
ATOM     25  C   UNL     1       1.115  -2.652  -0.903  0.00  0.00    -0.036 C 
ATOM     26  C   UNL     1       0.181  -2.656   0.309  0.00  0.00    +0.026 C 
ENDROOT
BRANCH   3   2
ATOM      1  C   UNL     1       0.605   1.148  -1.070  0.00  0.00    +0.007 C 
ATOM      2  C   UNL     1       0.703  -0.221  -0.393  0.00  0.00    -0.011 C 
BRANCH   2  27
ATOM     27  C   UNL     1       1.493  -0.090   0.910  0.00  0.00    +0.020 C 
BRANCH  27  28
ATOM     28  C   UNL     1       0.686   0.735   1.915  0.00  0.00    +0.049 C 
BRANCH  28  29
ATOM     29  C   UNL     1       1.514   0.972   3.151  0.00  0.00    -0.111 C 
ATOM     33  C   UNL     1       2.249   2.052   3.251  0.00  0.00    -0.009 C 
BRANCH  29  30
ATOM     30  C   UNL     1       1.498  -0.034   4.273  0.00  0.00    +0.010 C 
ATOM     31  C   UNL     1       2.100  -1.353   3.784  0.00  0.00    +0.024 C 
ATOM     32  C   UNL     1       0.056  -0.269   4.727  0.00  0.00    +0.022 C 
ENDBRANCH  29  30
ENDBRANCH  28  29
ENDBRANCH  27  28
ENDBRANCH   2  27
ENDBRANCH   3   2
BRANCH  15  16
ATOM     16  O   UNL     1       4.083 -10.401  -2.889  0.00  0.00    -0.564 OA
ATOM     17  H   UNL     1       4.911 -10.714  -2.501  0.00  0.00    +0.375 HD
ENDBRANCH  15  16
TORSDOF 6
