REMARK  Name = ZINC95486191
REMARK  18 active torsions:
REMARK  status: ('A' for Active; 'I' for Inactive)
REMARK    1  A    between atoms: C1_1  and  C2_2
REMARK    2  A    between atoms: C2_2  and  C28_35
REMARK    3  A    between atoms: C3_3  and  C4_4
REMARK    4  A    between atoms: C4_4  and  C5_5
REMARK    5  A    between atoms: C11_12  and  O4_22
REMARK    6  A    between atoms: C12_13  and  C14_16
REMARK    7  A    between atoms: C13_14  and  O2_15
REMARK    8  A    between atoms: C14_16  and  C15_17
REMARK    9  A    between atoms: C15_17  and  C16_18
REMARK   10  A    between atoms: C16_18  and  C17_19
REMARK   11  A    between atoms: C16_18  and  C18_20
REMARK   12  A    between atoms: C16_18  and  O3_21
REMARK   13  A    between atoms: C20_25  and  C23_30
REMARK   14  A    between atoms: C21_26  and  O7_29
REMARK   15  A    between atoms: C22_27  and  O6_28
REMARK   16  A    between atoms: C23_30  and  C24_31
REMARK   17  A    between atoms: C25_32  and  C26_33
REMARK   18  A    between atoms: C25_32  and  C27_34
REMARK                            x       y       z     vdW  Elec       q    Type
REMARK                         _______ _______ _______ _____ _____    ______ ____
ROOT
ATOM      6  C   UNL     1      -1.272  -0.085   4.448  0.00  0.00    +0.001 A 
ATOM      7  C   UNL     1      -2.612   0.224   4.207  0.00  0.00    -0.215 A 
ATOM      8  C   UNL     1      -2.986   1.341   3.315  0.00  0.00    +0.441 A 
ATOM      9  C   UNL     1      -4.397   1.762   3.367  0.00  0.00    -0.263 A 
ATOM     10  C   UNL     1      -5.321   0.931   4.025  0.00  0.00    +0.186 A 
ATOM     11  O   UNL     1      -4.935  -0.237   4.576  0.00  0.00    -0.217 OA
ATOM     12  C   UNL     1      -6.649   1.326   4.097  0.00  0.00    -0.029 A 
ATOM     13  C   UNL     1      -7.055   2.520   3.520  0.00  0.00    +0.193 A 
ATOM     16  C   UNL     1      -6.143   3.336   2.860  0.00  0.00    -0.169 A 
ATOM     24  C   UNL     1      -4.814   2.963   2.779  0.00  0.00    +0.220 A 
ATOM     27  O   UNL     1      -2.177   1.879   2.580  0.00  0.00    -0.421 OA
ATOM     28  C   UNL     1      -3.638  -0.517   4.816  0.00  0.00    +0.168 A 
ATOM     29  C   UNL     1      -3.300  -1.558   5.673  0.00  0.00    -0.119 A 
ATOM     35  C   UNL     1      -1.972  -1.858   5.913  0.00  0.00    +0.155 A 
ATOM     38  C   UNL     1      -0.955  -1.127   5.295  0.00  0.00    +0.060 A 
ENDROOT
BRANCH  13  14
ATOM     14  O   UNL     1      -8.357   2.895   3.599  0.00  0.00    -0.483 OA
ATOM     15  H   UNL     1      -8.566   3.427   4.379  0.00  0.00    +0.401 HD
ENDBRANCH  13  14
BRANCH  24  25
ATOM     25  O   UNL     1      -3.920   3.755   2.135  0.00  0.00    -0.472 OA
ATOM     26  H   UNL     1      -3.827   3.557   1.192  0.00  0.00    +0.403 HD
ENDBRANCH  24  25
BRANCH  35  36
ATOM     36  O   UNL     1      -1.653  -2.876   6.753  0.00  0.00    -0.479 OA
ATOM     37  H   UNL     1      -1.565  -3.734   6.316  0.00  0.00    +0.400 HD
ENDBRANCH  35  36
BRANCH  38  39
ATOM     39  O   UNL     1       0.348  -1.438   5.531  0.00  0.00    -0.476 OA
ATOM     40  H   UNL     1       0.735  -0.969   6.284  0.00  0.00    +0.390 HD
ENDBRANCH  38  39
BRANCH   6   5
ATOM      5  C   UNL     1      -0.180   0.712   3.783  0.00  0.00    +0.129 C 
BRANCH   5   4
ATOM      1  C   UNL     1       2.453   0.125   2.958  0.00  0.00    +0.074 C 
ATOM      2  C   UNL     1       1.291  -0.169   2.044  0.00  0.00    -0.131 C 
ATOM      3  C   UNL     1       1.529  -0.840   0.716  0.00  0.00    +0.072 C 
ATOM      4  C   UNL     1       0.075   0.160   2.404  0.00  0.00    -0.033 C 
ENDBRANCH   5   4
ENDBRANCH   6   5
BRANCH  16  17
ATOM     17  C   UNL     1      -6.603   4.627   2.234  0.00  0.00    +0.102 C 
BRANCH  17  18
ATOM     18  C   UNL     1      -6.489   5.760   3.257  0.00  0.00    +0.000 C 
BRANCH  18  19
ATOM     19  C   UNL     1      -6.956   7.070   2.621  0.00  0.00    +0.127 C 
ATOM     22  C   UNL     1      -6.841   8.203   3.644  0.00  0.00    +0.008 C 
ATOM     23  C   UNL     1      -8.413   6.930   2.176  0.00  0.00    +0.055 C 
BRANCH  19  20
ATOM     20  O   UNL     1      -6.138   7.368   1.487  0.00  0.00    -0.559 OA
ATOM     21  H   UNL     1      -5.200   7.470   1.695  0.00  0.00    +0.377 HD
ENDBRANCH  19  20
ENDBRANCH  18  19
ENDBRANCH  17  18
ENDBRANCH  16  17
BRANCH  29  30
ATOM     30  C   UNL     1      -4.385  -2.361   6.344  0.00  0.00    +0.136 C 
BRANCH  30  31
ATOM     31  C   UNL     1      -4.754  -3.534   5.472  0.00  0.00    -0.055 C 
ATOM     32  C   UNL     1      -4.645  -4.754   5.936  0.00  0.00    -0.125 C 
ATOM     33  C   UNL     1      -5.056  -5.924   5.080  0.00  0.00    +0.074 C 
ATOM     34  C   UNL     1      -4.109  -4.987   7.325  0.00  0.00    +0.077 C 
ENDBRANCH  30  31
ENDBRANCH  29  30
TORSDOF 12
