REMARK  Name = ZINC14763429
REMARK  4 active torsions:
REMARK  status: ('A' for Active; 'I' for Inactive)
REMARK    1  A    between atoms: C1_1  and  O1_2
REMARK    2  A    between atoms: O1_2  and  C2_3
REMARK    3  A    between atoms: C7_8  and  O2_9
REMARK    4  A    between atoms: O2_9  and  C8_10
REMARK                            x       y       z     vdW  Elec       q    Type
REMARK                         _______ _______ _______ _____ _____    ______ ____
ROOT
ATOM      3  C   UNL     1       5.646  -4.878  -1.475  0.00  0.00    +0.155 A 
ATOM      4  C   UNL     1       6.176  -3.950  -0.590  0.00  0.00    -0.085 A 
ATOM      5  C   UNL     1       5.359  -3.008  -0.002  0.00  0.00    +0.114 A 
ATOM      6  C   UNL     1       3.999  -2.973  -0.285  0.00  0.00    -0.193 A 
ATOM      7  C   UNL     1       3.471  -3.894  -1.173  0.00  0.00    +0.161 A 
ATOM      8  O   UNL     1       2.146  -3.866  -1.483  0.00  0.00    -0.293 OA
ATOM      9  C   UNL     1       1.529  -2.576  -1.428  0.00  0.00    +0.266 C 
ATOM     10  C   UNL     1       1.671  -2.019  -0.011  0.00  0.00    +0.017 C 
ATOM     11  C   UNL     1       1.270  -0.564  -0.011  0.00  0.00    -0.177 A 
ATOM     12  C   UNL     1       0.002  -0.004   0.002  0.00  0.00    +0.123 A 
ATOM     13  C   UNL     1      -0.017   1.392   0.010  0.00  0.00    -0.003 A 
ATOM     14  C   UNL     1       1.157   2.157   0.003  0.00  0.00    +0.072 A 
ATOM     15  O   UNL     1       0.820   3.469   0.013  0.00  0.00    -0.303 OA
ATOM     16  C   UNL     1      -0.561   3.510   0.426  0.00  0.00    +0.434 C 
ATOM     17  C   UNL     1       2.429   1.587  -0.013  0.00  0.00    +0.042 A 
ATOM     18  O   UNL     1      -1.083   2.226   0.030  0.00  0.00    -0.304 OA
ATOM     19  C   UNL     1       2.450   0.186  -0.021  0.00  0.00    +0.124 A 
ATOM     20  O   UNL     1       3.540  -0.616  -0.044  0.00  0.00    -0.285 OA
ATOM     21  C   UNL     1       3.155  -1.934   0.387  0.00  0.00    +0.247 C 
ATOM     22  C   UNL     1       4.289  -4.849  -1.767  0.00  0.00    +0.034 A 
ENDROOT
BRANCH   3   2
ATOM      1  C   UNL     1       7.837  -5.776  -1.706  0.00  0.00    +0.247 C 
ATOM      2  O   UNL     1       6.451  -5.809  -2.054  0.00  0.00    -0.300 OA
ENDBRANCH   3   2
BRANCH  22  23
ATOM     23  O   UNL     1       3.759  -5.755  -2.633  0.00  0.00    -0.311 OA
ATOM     24  C   UNL     1       3.281  -6.982  -2.078  0.00  0.00    +0.220 C 
ENDBRANCH  22  23
TORSDOF 2
