REMARK  Name = ZINC30726889
REMARK  6 active torsions:
REMARK  status: ('A' for Active; 'I' for Inactive)
REMARK    1  A    between atoms: C1_1  and  O1_2
REMARK    2  A    between atoms: O1_2  and  C2_3
REMARK    3  A    between atoms: C7_8  and  O2_9
REMARK    4  A    between atoms: O2_9  and  C8_10
REMARK    5  A    between atoms: C11_13  and  O3_23
REMARK    6  A    between atoms: O3_23  and  C19_24
REMARK                            x       y       z     vdW  Elec       q    Type
REMARK                         _______ _______ _______ _____ _____    ______ ____
ROOT
ATOM      3  C   UNL     1      -2.424   1.342   0.010  0.00  0.00    +0.107 A 
ATOM      4  C   UNL     1      -1.233   2.044   0.018  0.00  0.00    -0.040 A 
ATOM      5  C   UNL     1      -0.017   1.372   0.010  0.00  0.00    -0.065 A 
ATOM      6  C   UNL     1       0.002  -0.004   0.002  0.00  0.00    -0.094 A 
ATOM      7  C   UNL     1       1.289  -0.783   0.017  0.00  0.00    +0.200 C 
ATOM      8  C   UNL     1       1.514  -1.471  -1.318  0.00  0.00    +0.068 C 
ATOM      9  C   UNL     1       0.534  -2.596  -1.572  0.00  0.00    +0.187 C 
ATOM     12  C   UNL     1       0.234  -3.463  -0.399  0.00  0.00    -0.057 C 
ATOM     13  C   UNL     1       0.513  -3.141   0.858  0.00  0.00    +0.049 C 
ATOM     14  N   UNL     1       2.426   0.033   0.425  0.00  0.00    -0.516 NA
ATOM     15  C   UNL     1       2.503   1.374  -0.072  0.00  0.00    +0.232 C 
ATOM     16  C   UNL     1       2.401  -0.062   1.904  0.00  0.00    +0.231 C 
ATOM     17  C   UNL     1       1.806  -1.430   2.184  0.00  0.00    +0.005 C 
ATOM     18  C   UNL     1       1.181  -1.850   1.097  0.00  0.00    -0.114 C 
ATOM     19  C   UNL     1      -1.191  -0.714  -0.013  0.00  0.00    -0.023 A 
ATOM     20  C   UNL     1       1.239   2.189   0.002  0.00  0.00    +0.042 C 
ATOM     21  C   UNL     1      -2.404  -0.050  -0.009  0.00  0.00    +0.098 A 
ENDROOT
BRANCH   3   2
ATOM      1  C   UNL     1      -3.553   3.435   0.039  0.00  0.00    +0.237 C 
ATOM      2  O   UNL     1      -3.610   2.007   0.019  0.00  0.00    -0.305 OA
ENDBRANCH   3   2
BRANCH   9  10
ATOM     10  O   UNL     1       1.059  -3.419  -2.616  0.00  0.00    -0.374 OA
ATOM     11  C   UNL     1       0.063  -3.949  -3.494  0.00  0.00    +0.200 C 
ENDBRANCH   9  10
BRANCH  21  22
ATOM     22  O   UNL     1      -3.569  -0.751  -0.023  0.00  0.00    -0.304 OA
ATOM     23  C   UNL     1      -3.467  -2.176  -0.041  0.00  0.00    +0.235 C 
ENDBRANCH  21  22
TORSDOF 3
