REMARK  Name = ZINC00898806
REMARK  2 active torsions:
REMARK  status: ('A' for Active; 'I' for Inactive)
REMARK    1  A    between atoms: C1_1  and  O1_2
REMARK    2  A    between atoms: O1_2  and  C2_3
REMARK                            x       y       z     vdW  Elec       q    Type
REMARK                         _______ _______ _______ _____ _____    ______ ____
ROOT
ATOM      3  C   UNL     1       7.201  -0.534   0.387  0.00  0.00    +0.154 A 
ATOM      4  C   UNL     1       7.324   0.758  -0.107  0.00  0.00    -0.061 A 
ATOM      5  C   UNL     1       6.212   1.570  -0.202  0.00  0.00    +0.098 A 
ATOM      6  C   UNL     1       4.968   1.089   0.198  0.00  0.00    -0.103 A 
ATOM      7  C   UNL     1       4.849  -0.204   0.705  0.00  0.00    -0.037 A 
ATOM      8  C   UNL     1       3.504  -0.704   1.156  0.00  0.00    +0.118 C 
ATOM      9  C   UNL     1       2.399  -0.166   0.251  0.00  0.00    +0.254 C 
ATOM     10  N   UNL     1       1.093  -0.519   0.840  0.00  0.00    -0.512 N 
ATOM     11  H   UNL     1       1.017  -1.541   0.907  0.00  0.00    +0.441 HD
ATOM     12  H   UNL     1       1.023  -0.109   1.779  0.00  0.00    +0.435 HD
ATOM     13  C   UNL     1       0.002  -0.004   0.002  0.00  0.00    +0.278 C 
ATOM     14  C   UNL     1      -0.018   1.515   0.010  0.00  0.00    +0.132 C 
ATOM     15  C   UNL     1       1.363   2.107   0.000  0.00  0.00    -0.065 A 
ATOM     16  C   UNL     1       1.481   3.484  -0.139  0.00  0.00    +0.047 A 
ATOM     17  C   UNL     1       2.724   4.090  -0.185  0.00  0.00    +0.075 A 
ATOM     18  O   UNL     1       3.093   5.397  -0.327  0.00  0.00    -0.297 OA
ATOM     19  C   UNL     1       4.475   5.363  -0.731  0.00  0.00    +0.451 C 
ATOM     20  O   UNL     1       4.963   4.129  -0.174  0.00  0.00    -0.296 OA
ATOM     21  C   UNL     1       3.873   3.313  -0.084  0.00  0.00    +0.050 A 
ATOM     22  C   UNL     1       2.501   1.331   0.122  0.00  0.00    -0.128 A 
ATOM     23  C   UNL     1       3.757   1.935   0.082  0.00  0.00    +0.022 A 
ATOM     24  C   UNL     1       5.963  -1.012   0.793  0.00  0.00    -0.000 A 
ENDROOT
BRANCH   3   2
ATOM      1  C   UNL     1       9.540  -0.777   0.037  0.00  0.00    +0.254 C 
ATOM      2  O   UNL     1       8.297  -1.332   0.472  0.00  0.00    -0.310 OA
ENDBRANCH   3   2
TORSDOF 1
