REMARK  Name = ZINC40873959
REMARK  6 active torsions:
REMARK  status: ('A' for Active; 'I' for Inactive)
REMARK    1  A    between atoms: C1_1  and  C2_2
REMARK    2  A    between atoms: C2_2  and  C3_3
REMARK    3  A    between atoms: C2_2  and  C4_4
REMARK    4  A    between atoms: C9_10  and  O2_19
REMARK    5  A    between atoms: C12_14  and  C15_17
REMARK    6  A    between atoms: C12_14  and  O1_18
REMARK                            x       y       z     vdW  Elec       q    Type
REMARK                         _______ _______ _______ _____ _____    ______ ____
ROOT
ATOM      3  C   UNL     1      -1.433  -0.534   0.013  0.00  0.00    +0.018 C 
ATOM      4  C   UNL     1      -1.413  -2.063   0.004  0.00  0.00    +0.022 C 
ATOM      5  C   UNL     1      -2.838  -2.592  -0.165  0.00  0.00    +0.060 C 
ATOM      6  C   UNL     1      -3.130  -2.788  -1.631  0.00  0.00    -0.140 C 
ATOM      7  C   UNL     1      -4.433  -2.301  -2.211  0.00  0.00    +0.199 C 
ATOM     10  C   UNL     1      -4.159  -1.168  -3.202  0.00  0.00    +0.039 C 
ATOM     11  C   UNL     1      -4.957   0.072  -2.793  0.00  0.00    +0.067 C 
ATOM     12  C   UNL     1      -3.997   1.155  -2.295  0.00  0.00    +0.164 C 
ATOM     15  C   UNL     1      -4.789   2.414  -1.938  0.00  0.00    +0.009 C 
ATOM     16  C   UNL     1      -3.267   0.657  -1.074  0.00  0.00    -0.075 C 
ATOM     17  C   UNL     1      -2.252  -3.381  -2.400  0.00  0.00    +0.000 C 
ATOM     18  C   UNL     1      -2.162  -0.035  -1.208  0.00  0.00    -0.007 C 
ENDROOT
BRANCH   3   2
ATOM      1  C   UNL     1      -0.019   1.526   0.010  0.00  0.00    +0.014 C 
ATOM      2  C   UNL     1       0.002  -0.004   0.002  0.00  0.00    -0.019 C 
ATOM     19  C   UNL     1       0.742  -0.511   1.242  0.00  0.00    +0.013 C 
ENDBRANCH   3   2
BRANCH   7   8
ATOM      8  O   UNL     1      -5.273  -1.821  -1.159  0.00  0.00    -0.551 OA
ATOM      9  H   UNL     1      -5.489  -2.488  -0.493  0.00  0.00    +0.371 HD
ENDBRANCH   7   8
BRANCH  12  13
ATOM     13  O   UNL     1      -3.052   1.462  -3.323  0.00  0.00    -0.559 OA
ATOM     14  H   UNL     1      -2.410   2.142  -3.076  0.00  0.00    +0.373 HD
ENDBRANCH  12  13
TORSDOF 3
