REMARK  Name = ZINC26472270
REMARK  9 active torsions:
REMARK  status: ('A' for Active; 'I' for Inactive)
REMARK    1  A    between atoms: C1_1  and  C2_2
REMARK    2  A    between atoms: C2_2  and  C3_4
REMARK    3  A    between atoms: C6_8  and  C29_37
REMARK    4  A    between atoms: C12_17  and  C28_36
REMARK    5  A    between atoms: C15_20  and  O2_35
REMARK    6  A    between atoms: C16_22  and  C26_33
REMARK    7  A    between atoms: C16_22  and  C27_34
REMARK    8  A    between atoms: C20_27  and  C25_32
REMARK    9  A    between atoms: C21_28  and  C24_31
REMARK                            x       y       z     vdW  Elec       q    Type
REMARK                         _______ _______ _______ _____ _____    ______ ____
ROOT
ATOM      3  C   UNL     1      -2.625  -3.645   0.585  0.00  0.00    -0.038 C 
ATOM      4  C   UNL     1      -3.161  -4.508   1.761  0.00  0.00    +0.030 C 
ATOM      5  C   UNL     1      -3.054  -5.986   1.310  0.00  0.00    +0.017 C 
ATOM      6  C   UNL     1      -2.985  -5.881  -0.219  0.00  0.00    -0.132 C 
ATOM     10  C   UNL     1      -2.386  -7.066  -0.940  0.00  0.00    +0.003 C 
ATOM     11  C   UNL     1      -2.277  -6.737  -2.436  0.00  0.00    +0.028 C 
ATOM     12  C   UNL     1      -1.500  -5.449  -2.690  0.00  0.00    -0.013 C 
ATOM     13  C   UNL     1      -0.044  -5.717  -2.290  0.00  0.00    -0.005 C 
ATOM     14  C   UNL     1      -1.551  -5.079  -4.183  0.00  0.00    -0.026 C 
ATOM     15  C   UNL     1      -3.024  -4.822  -4.540  0.00  0.00    +0.031 C 
ATOM     16  C   UNL     1      -1.066  -6.260  -5.024  0.00  0.00    +0.009 C 
ATOM     17  C   UNL     1      -0.995  -5.854  -6.505  0.00  0.00    +0.012 C 
ATOM     18  C   UNL     1       0.015  -4.716  -6.628  0.00  0.00    -0.002 C 
ATOM     19  C   UNL     1       0.485  -4.491  -8.047  0.00  0.00    -0.037 C 
ATOM     20  C   UNL     1      -0.668  -4.361  -9.042  0.00  0.00    +0.033 C 
ATOM     21  C   UNL     1       1.315  -5.726  -8.480  0.00  0.00    +0.014 C 
ATOM     22  C   UNL     1       1.418  -3.287  -8.167  0.00  0.00    +0.165 C 
ATOM     25  C   UNL     1       0.899  -2.067  -7.419  0.00  0.00    -0.020 C 
ATOM     26  C   UNL     1       0.614  -2.409  -5.960  0.00  0.00    +0.014 C 
ATOM     27  C   UNL     1      -0.490  -3.482  -5.892  0.00  0.00    -0.035 C 
ATOM     28  C   UNL     1      -1.753  -2.888  -6.501  0.00  0.00    +0.026 C 
ATOM     29  C   UNL     1      -0.692  -3.847  -4.419  0.00  0.00    -0.001 C 
ATOM     30  C   UNL     1      -1.205  -2.664  -3.607  0.00  0.00    +0.004 C 
ATOM     31  C   UNL     1      -1.210  -3.020  -2.115  0.00  0.00    -0.018 C 
ATOM     32  C   UNL     1      -2.047  -4.274  -1.868  0.00  0.00    +0.042 C 
ATOM     33  C   UNL     1      -2.048  -4.662  -0.406  0.00  0.00    +0.017 C 
ENDROOT
BRANCH   3   2
ATOM      1  C   UNL     1      -1.895  -1.374   1.657  0.00  0.00    +0.047 C 
ATOM      2  C   UNL     1      -1.538  -2.727   1.097  0.00  0.00    +0.361 C 
ATOM     34  O   UNL     1      -0.383  -3.078   1.056  0.00  0.00    -0.463 OA
ENDBRANCH   3   2
BRANCH   6   7
ATOM      7  C   UNL     1      -4.375  -5.604  -0.728  0.00  0.00    +0.510 C 
ATOM      8  O   UNL     1      -4.568  -5.452  -1.922  0.00  0.00    -0.679 OA
ATOM      9  O   UNL     1      -5.307  -5.531   0.055  0.00  0.00    -0.699 OA
ENDBRANCH   6   7
BRANCH  22  23
ATOM     23  O   UNL     1       1.571  -2.957  -9.555  0.00  0.00    -0.567 OA
ATOM     24  H   UNL     1       2.190  -2.233  -9.721  0.00  0.00    +0.371 HD
ENDBRANCH  22  23
TORSDOF 3
