REMARK  Name = ZINC13382725
REMARK  11 active torsions:
REMARK  status: ('A' for Active; 'I' for Inactive)
REMARK    1  A    between atoms: C1_1  and  C2_2
REMARK    2  A    between atoms: C3_4  and  C23_30
REMARK    3  A    between atoms: C3_4  and  C24_31
REMARK    4  A    between atoms: C7_8  and  O5_28
REMARK    5  A    between atoms: C13_16  and  C18_23
REMARK    6  A    between atoms: C15_18  and  O4_22
REMARK    7  A    between atoms: C16_19  and  O3_20
REMARK    8  A    between atoms: O3_20  and  C17_21
REMARK    9  A    between atoms: C18_23  and  C19_24
REMARK   10  A    between atoms: C20_25  and  C21_26
REMARK   11  A    between atoms: C20_25  and  C22_27
REMARK                            x       y       z     vdW  Elec       q    Type
REMARK                         _______ _______ _______ _____ _____    ______ ____
ROOT
ATOM      1  C   UNL     1      -1.890   1.855  -0.529  0.00  0.00    +0.046 C 
ATOM      2  C   UNL     1      -1.154   1.486  -1.820  0.00  0.00    +0.206 C 
ATOM      3  C   UNL     1       0.344   1.860  -1.723  0.00  0.00    -0.035 C 
ATOM      4  C   UNL     1       1.203   0.894  -2.541  0.00  0.00    +0.056 C 
ATOM      5  C   UNL     1       0.805   1.898  -0.264  0.00  0.00    +0.060 C 
ATOM      6  C   UNL     1       0.359   3.249  -2.332  0.00  0.00    -0.210 A 
ATOM      7  C   UNL     1      -0.845   3.412  -3.006  0.00  0.00    +0.200 A 
ATOM      8  C   UNL     1      -1.110   4.618  -3.659  0.00  0.00    -0.055 A 
ATOM      9  C   UNL     1      -0.182   5.640  -3.643  0.00  0.00    +0.242 A 
ATOM     12  C   UNL     1       1.033   5.468  -2.967  0.00  0.00    -0.291 A 
ATOM     13  C   UNL     1       2.039   6.541  -2.931  0.00  0.00    +0.445 A 
ATOM     14  O   UNL     1       1.855   7.607  -3.492  0.00  0.00    -0.426 OA
ATOM     15  C   UNL     1       3.281   6.265  -2.183  0.00  0.00    -0.226 A 
ATOM     16  C   UNL     1       4.287   7.229  -2.087  0.00  0.00    +0.034 A 
ATOM     22  C   UNL     1       5.427   6.956  -1.385  0.00  0.00    -0.017 A 
ATOM     23  C   UNL     1       5.592   5.721  -0.766  0.00  0.00    +0.164 A 
ATOM     26  C   UNL     1       4.602   4.750  -0.854  0.00  0.00    +0.034 A 
ATOM     29  C   UNL     1       3.434   5.013  -1.565  0.00  0.00    +0.164 A 
ATOM     30  O   UNL     1       2.472   4.072  -1.652  0.00  0.00    -0.213 OA
ATOM     31  C   UNL     1       1.306   4.256  -2.306  0.00  0.00    +0.233 A 
ATOM     32  O   UNL     1      -1.612   2.291  -2.919  0.00  0.00    -0.284 OA
ENDROOT
BRANCH   9  10
ATOM     10  O   UNL     1      -0.446   6.808  -4.280  0.00  0.00    -0.470 OA
ATOM     11  H   UNL     1      -0.157   6.827  -5.203  0.00  0.00    +0.404 HD
ENDBRANCH   9  10
BRANCH  23  24
ATOM     24  O   UNL     1       6.730   5.462  -0.071  0.00  0.00    -0.477 OA
ATOM     25  H   UNL     1       7.435   5.069  -0.604  0.00  0.00    +0.397 HD
ENDBRANCH  23  24
BRANCH  26  27
ATOM     27  O   UNL     1       4.774   3.545  -0.246  0.00  0.00    -0.309 OA
ATOM     28  C   UNL     1       5.397   2.514  -1.014  0.00  0.00    +0.223 C 
ENDBRANCH  26  27
BRANCH  16  17
ATOM     17  C   UNL     1       4.114   8.568  -2.756  0.00  0.00    +0.127 C 
BRANCH  17  18
ATOM     18  C   UNL     1       3.345   9.489  -1.845  0.00  0.00    -0.037 C 
ATOM     19  C   UNL     1       3.844  10.657  -1.521  0.00  0.00    -0.133 C 
ATOM     20  C   UNL     1       3.133  11.527  -0.517  0.00  0.00    +0.074 C 
ATOM     21  C   UNL     1       5.128  11.129  -2.153  0.00  0.00    +0.074 C 
ENDBRANCH  17  18
ENDBRANCH  16  17
TORSDOF 5
