REMARK  Name = ZINC14677166
REMARK  3 active torsions:
REMARK  status: ('A' for Active; 'I' for Inactive)
REMARK    1  A    between atoms: C1_1  and  O1_2
REMARK    2  A    between atoms: O1_2  and  C2_3
REMARK    3  A    between atoms: C12_15  and  C13_17
REMARK                            x       y       z     vdW  Elec       q    Type
REMARK                         _______ _______ _______ _____ _____    ______ ____
ROOT
ATOM      3  C   UNL     1       1.354   3.510   0.009  0.00  0.00    +0.240 A 
ATOM      4  C   UNL     1       2.581   4.139   0.001  0.00  0.00    -0.090 A 
ATOM      5  C   UNL     1       3.756   3.389  -0.014  0.00  0.00    +0.153 A 
ATOM      6  C   UNL     1       3.691   1.987  -0.024  0.00  0.00    -0.193 A 
ATOM      7  C   UNL     1       2.452   1.338  -0.014  0.00  0.00    +0.241 A 
ATOM      8  O   UNL     1       2.370  -0.008  -0.021  0.00  0.00    -0.211 OA
ATOM      9  C   UNL     1       1.195  -0.656  -0.013  0.00  0.00    +0.198 A 
ATOM     16  C   UNL     1       0.002  -0.004   0.002  0.00  0.00    -0.136 A 
ATOM     17  C   UNL     1      -0.017   1.412   0.010  0.00  0.00    +0.425 A 
ATOM     18  O   UNL     1      -1.069   2.031   0.018  0.00  0.00    -0.450 OA
ATOM     19  C   UNL     1       5.086   1.528  -0.037  0.00  0.00    -0.013 A 
ATOM     20  C   UNL     1       5.842   2.634  -0.038  0.00  0.00    +0.212 A 
ATOM     21  O   UNL     1       5.061   3.729  -0.024  0.00  0.00    -0.184 OA
ATOM     22  C   UNL     1       1.281   2.108   0.001  0.00  0.00    -0.269 A 
ENDROOT
BRANCH   9  10
ATOM     10  C   UNL     1       1.198  -2.133  -0.021  0.00  0.00    -0.072 A 
ATOM     11  C   UNL     1      -0.008  -2.837  -0.008  0.00  0.00    +0.056 A 
ATOM     12  C   UNL     1       0.002  -4.216  -0.023  0.00  0.00    +0.014 A 
ATOM     13  C   UNL     1       1.204  -4.902  -0.038  0.00  0.00    +0.037 A 
ATOM     14  C   UNL     1       2.402  -4.211  -0.044  0.00  0.00    +0.009 A 
ATOM     15  C   UNL     1       2.407  -2.832  -0.037  0.00  0.00    +0.054 A 
ENDBRANCH   9  10
BRANCH   3   2
ATOM      1  C   UNL     1       0.362   5.669   0.031  0.00  0.00    +0.251 C 
ATOM      2  O   UNL     1       0.215   4.248   0.024  0.00  0.00    -0.273 OA
ENDBRANCH   3   2
TORSDOF 2
