REMARK  Name = ZINC95486297
REMARK  5 active torsions:
REMARK  status: ('A' for Active; 'I' for Inactive)
REMARK    1  A    between atoms: C1_1  and  O1_2
REMARK    2  A    between atoms: O1_2  and  C2_3
REMARK    3  A    between atoms: C5_6  and  O2_9
REMARK    4  A    between atoms: O2_9  and  C8_10
REMARK    5  A    between atoms: C14_17  and  O5_21
REMARK                            x       y       z     vdW  Elec       q    Type
REMARK                         _______ _______ _______ _____ _____    ______ ____
ROOT
ATOM      8  C   UNL     1       2.557  -3.785  -4.250  0.00  0.00    -0.012 A 
ATOM      9  C   UNL     1       3.254  -4.395  -5.246  0.00  0.00    +0.116 A 
ATOM     10  O   UNL     1       3.819  -3.654  -6.241  0.00  0.00    -0.681 OA
ATOM     11  C   UNL     1       3.387  -5.802  -5.243  0.00  0.00    +0.396 A 
ATOM     12  C   UNL     1       2.751  -6.541  -4.138  0.00  0.00    -0.252 A 
ATOM     13  C   UNL     1       2.832  -7.931  -4.054  0.00  0.00    +0.127 A 
ATOM     14  C   UNL     1       2.230  -8.584  -3.015  0.00  0.00    -0.076 A 
ATOM     15  C   UNL     1       1.537  -7.870  -2.041  0.00  0.00    +0.157 A 
ATOM     18  C   UNL     1       1.448  -6.489  -2.111  0.00  0.00    -0.055 A 
ATOM     19  C   UNL     1       2.054  -5.812  -3.159  0.00  0.00    +0.195 A 
ATOM     20  O   UNL     1       4.006  -6.382  -6.122  0.00  0.00    -0.479 OA
ATOM     21  O   UNL     1       1.987  -4.467  -3.246  0.00  0.00    -0.237 OA
ENDROOT
BRANCH  15  16
ATOM     16  O   UNL     1       0.944  -8.532  -1.015  0.00  0.00    -0.497 OA
ATOM     17  H   UNL     1       1.514  -8.652  -0.243  0.00  0.00    +0.391 HD
ENDBRANCH  15  16
BRANCH   8   7
ATOM      7  O   UNL     1       2.441  -2.439  -4.269  0.00  0.00    -0.202 OA
BRANCH   7   6
ATOM      3  C   UNL     1       0.603  -0.607  -1.058  0.00  0.00    +0.110 A 
ATOM      4  C   UNL     1       1.908  -1.064  -0.942  0.00  0.00    -0.066 A 
ATOM      5  C   UNL     1       2.523  -1.677  -2.016  0.00  0.00    +0.037 A 
ATOM      6  C   UNL     1       1.835  -1.836  -3.211  0.00  0.00    +0.072 A 
ATOM     22  C   UNL     1       0.531  -1.379  -3.327  0.00  0.00    +0.049 A 
ATOM     23  C   UNL     1      -0.086  -0.770  -2.251  0.00  0.00    -0.006 A 
BRANCH   3   2
ATOM      1  C   UNL     1       0.766   0.131   1.197  0.00  0.00    +0.232 C 
ATOM      2  O   UNL     1      -0.002  -0.004  -0.001  0.00  0.00    -0.320 OA
ENDBRANCH   3   2
ENDBRANCH   7   6
ENDBRANCH   8   7
TORSDOF 4
