REMARK  Name = ZINC95485984
REMARK  7 active torsions:
REMARK  status: ('A' for Active; 'I' for Inactive)
REMARK    1  A    between atoms: C1_1  and  C2_2
REMARK    2  A    between atoms: C5_5  and  C18_23
REMARK    3  A    between atoms: C5_5  and  C19_24
REMARK    4  A    between atoms: C12_13  and  C13_15
REMARK    5  A    between atoms: C14_16  and  C15_17
REMARK    6  A    between atoms: C14_16  and  C17_21
REMARK    7  A    between atoms: C15_17  and  C16_18
REMARK                            x       y       z     vdW  Elec       q    Type
REMARK                         _______ _______ _______ _____ _____    ______ ____
ROOT
ATOM      1  C   UNL     1       0.011   1.505   0.018  0.00  0.00    +0.026 C 
ATOM      2  C   UNL     1       0.054  -0.024  -0.003  0.00  0.00    -0.036 C 
ATOM      3  C   UNL     1      -1.373  -0.578   0.016  0.00  0.00    +0.015 C 
ATOM      4  C   UNL     1      -2.082  -0.137   1.297  0.00  0.00    +0.015 C 
ATOM      5  C   UNL     1      -1.317  -0.677   2.507  0.00  0.00    -0.064 C 
ATOM      6  C   UNL     1      -2.027  -0.251   3.794  0.00  0.00    +0.015 C 
ATOM      7  C   UNL     1      -1.259  -2.204   2.436  0.00  0.00    +0.019 C 
ATOM      8  C   UNL     1       0.104  -0.112   2.498  0.00  0.00    +0.019 C 
ATOM      9  C   UNL     1       0.755  -0.501  -1.281  0.00  0.00    +0.062 C 
ATOM     18  C   UNL     1       2.204  -0.075  -1.230  0.00  0.00    -0.130 C 
ATOM     19  C   UNL     1       2.751   0.575  -2.228  0.00  0.00    +0.035 C 
ATOM     20  C   UNL     1       3.006  -0.420   0.005  0.00  0.00    +0.052 C 
ATOM     21  C   UNL     1       2.231   0.064   1.234  0.00  0.00    +0.012 C 
ATOM     22  C   UNL     1       0.820  -0.532   1.220  0.00  0.00    -0.003 C 
ENDROOT
BRANCH   9  10
ATOM     10  C   UNL     1       0.094   0.124  -2.483  0.00  0.00    +0.021 C 
ATOM     11  C   UNL     1      -0.377  -0.650  -3.463  0.00  0.00    -0.152 C 
BRANCH  11  12
ATOM     12  C   UNL     1      -0.367  -2.105  -3.315  0.00  0.00    +0.457 C 
ATOM     13  O   UNL     1      -0.699  -2.812  -4.244  0.00  0.00    -0.457 OA
ENDBRANCH  11  12
BRANCH  11  14
ATOM     14  C   UNL     1      -0.918  -0.025  -4.723  0.00  0.00    -0.014 C 
BRANCH  14  15
ATOM     15  C   UNL     1       0.167   0.021  -5.767  0.00  0.00    +0.501 C 
ATOM     16  O   UNL     1      -0.065   0.493  -6.867  0.00  0.00    -0.705 OA
ATOM     17  O   UNL     1       1.278  -0.414  -5.512  0.00  0.00    -0.689 OA
ENDBRANCH  14  15
ENDBRANCH  11  14
ENDBRANCH   9  10
TORSDOF 4
