REMARK  Name = ZINC00900216
REMARK  6 active torsions:
REMARK  status: ('A' for Active; 'I' for Inactive)
REMARK    1  A    between atoms: C1_1  and  O1_2
REMARK    2  A    between atoms: O1_2  and  C2_3
REMARK    3  A    between atoms: C7_8  and  O2_9
REMARK    4  A    between atoms: O2_9  and  C8_10
REMARK    5  A    between atoms: C11_14  and  O3_15
REMARK    6  A    between atoms: O3_15  and  C12_16
REMARK                            x       y       z     vdW  Elec       q    Type
REMARK                         _______ _______ _______ _____ _____    ______ ____
ROOT
ATOM      3  C   UNL     1      -1.201  -0.638   0.010  0.00  0.00    +0.134 A 
ATOM      4  C   UNL     1      -2.351   0.096   0.019  0.00  0.00    +0.037 A 
ATOM      5  C   UNL     1      -3.594  -0.559   0.027  0.00  0.00    -0.116 A 
ATOM      6  C   UNL     1      -3.645  -1.976   0.025  0.00  0.00    +0.226 A 
ATOM      7  N   UNL     1      -4.820  -2.614   0.034  0.00  0.00    -0.463 N 
ATOM      8  H   UNL     1      -4.830  -3.584   0.032  0.00  0.00    +0.447 HD
ATOM      9  C   UNL     1      -5.968  -1.961   0.043  0.00  0.00    +0.335 A 
ATOM     10  C   UNL     1      -5.992  -0.550   0.045  0.00  0.00    -0.197 A 
ATOM     11  C   UNL     1      -7.413  -0.178   0.057  0.00  0.00    +0.036 A 
ATOM     12  C   UNL     1      -8.098  -1.328   0.061  0.00  0.00    +0.281 A 
ATOM     13  O   UNL     1      -7.253  -2.375   0.053  0.00  0.00    -0.169 OA
ATOM     14  C   UNL     1      -2.441  -2.702   0.016  0.00  0.00    -0.071 A 
ATOM     15  C   UNL     1      -4.801   0.170   0.037  0.00  0.00    +0.327 A 
ATOM     18  C   UNL     1      -1.248  -2.040   0.003  0.00  0.00    +0.232 A 
ENDROOT
BRANCH   3   2
ATOM      1  C   UNL     1      -0.017   1.425   0.010  0.00  0.00    +0.269 C 
ATOM      2  O   UNL     1       0.002  -0.004   0.002  0.00  0.00    -0.285 OA
ENDBRANCH   3   2
BRANCH  15  16
ATOM     16  O   UNL     1      -4.800   1.526   0.040  0.00  0.00    -0.318 OA
ATOM     17  C   UNL     1      -4.810   2.177  -1.232  0.00  0.00    +0.292 C 
ENDBRANCH  15  16
BRANCH  18  19
ATOM     19  O   UNL     1      -0.088  -2.748  -0.011  0.00  0.00    -0.273 OA
ATOM     20  C   UNL     1      -0.199  -4.173  -0.018  0.00  0.00    +0.276 C 
ENDBRANCH  18  19
TORSDOF 3
