REMARK  Name = ZINC95486295
REMARK  9 active torsions:
REMARK  status: ('A' for Active; 'I' for Inactive)
REMARK    1  A    between atoms: C1_1  and  O1_2
REMARK    2  A    between atoms: O1_2  and  C2_3
REMARK    3  A    between atoms: C5_6  and  O2_9
REMARK    4  A    between atoms: O2_9  and  C8_10
REMARK    5  A    between atoms: C9_11  and  O7_24
REMARK    6  A    between atoms: C14_18  and  O6_23
REMARK    7  A    between atoms: C16_20  and  O5_21
REMARK    8  A    between atoms: O5_21  and  C17_22
REMARK    9  A    between atoms: O7_24  and  C18_25
REMARK                            x       y       z     vdW  Elec       q    Type
REMARK                         _______ _______ _______ _____ _____    ______ ____
ROOT
ATOM      8  C   UNL     1      -4.861  -3.909  -0.071  0.00  0.00    +0.220 A 
ATOM      9  C   UNL     1      -6.056  -4.549  -0.173  0.00  0.00    -0.076 A 
ATOM     12  C   UNL     1      -6.085  -5.958  -0.285  0.00  0.00    +0.442 A 
ATOM     13  C   UNL     1      -4.793  -6.665  -0.284  0.00  0.00    -0.262 A 
ATOM     14  C   UNL     1      -3.615  -5.906  -0.173  0.00  0.00    +0.216 A 
ATOM     15  C   UNL     1      -2.387  -6.551  -0.171  0.00  0.00    -0.057 A 
ATOM     16  C   UNL     1      -2.328  -7.931  -0.276  0.00  0.00    +0.219 A 
ATOM     19  C   UNL     1      -3.492  -8.684  -0.387  0.00  0.00    -0.120 A 
ATOM     20  C   UNL     1      -4.726  -8.059  -0.391  0.00  0.00    +0.240 A 
ATOM     23  O   UNL     1      -7.140  -6.566  -0.379  0.00  0.00    -0.426 OA
ATOM     24  O   UNL     1      -3.690  -4.562  -0.077  0.00  0.00    -0.230 OA
ENDROOT
BRANCH   9  10
ATOM     10  O   UNL     1      -7.218  -3.837  -0.168  0.00  0.00    -0.285 OA
ATOM     11  C   UNL     1      -7.109  -2.417  -0.051  0.00  0.00    +0.257 C 
ENDBRANCH   9  10
BRANCH  16  17
ATOM     17  O   UNL     1      -1.122  -8.555  -0.273  0.00  0.00    -0.488 OA
ATOM     18  H   UNL     1      -0.811  -8.805   0.608  0.00  0.00    +0.405 HD
ENDBRANCH  16  17
BRANCH  20  21
ATOM     21  O   UNL     1      -5.863  -8.792  -0.498  0.00  0.00    -0.277 OA
ATOM     22  C   UNL     1      -5.714 -10.210  -0.603  0.00  0.00    +0.252 C 
ENDBRANCH  20  21
BRANCH   8   7
ATOM      7  O   UNL     1      -4.853  -2.562   0.035  0.00  0.00    -0.203 OA
BRANCH   7   6
ATOM      3  C   UNL     1      -1.201  -0.637   0.013  0.00  0.00    +0.143 A 
ATOM      4  C   UNL     1      -1.742  -1.113  -1.173  0.00  0.00    -0.058 A 
ATOM      5  C   UNL     1      -2.963  -1.757  -1.166  0.00  0.00    +0.062 A 
ATOM      6  C   UNL     1      -3.650  -1.928   0.028  0.00  0.00    +0.011 A 
ATOM     25  C   UNL     1      -3.110  -1.453   1.214  0.00  0.00    +0.076 A 
ATOM     26  C   UNL     1      -1.886  -0.813   1.207  0.00  0.00    +0.003 A 
BRANCH   3   2
ATOM      1  C   UNL     1       0.650   0.143  -1.259  0.00  0.00    +0.246 C 
ATOM      2  O   UNL     1       0.002  -0.003   0.006  0.00  0.00    -0.312 OA
ENDBRANCH   3   2
ENDBRANCH   7   6
ENDBRANCH   8   7
TORSDOF 6
