REMARK  Name = ZINC05357841
REMARK  3 active torsions:
REMARK  status: ('A' for Active; 'I' for Inactive)
REMARK    1  A    between atoms: C1_1  and  O1_2
REMARK    2  A    between atoms: O1_2  and  C2_3
REMARK    3  A    between atoms: C7_8  and  C8_9
REMARK                            x       y       z     vdW  Elec       q    Type
REMARK                         _______ _______ _______ _____ _____    ______ ____
ROOT
ATOM     12  C   UNL     1      -4.832  -0.025   0.513  0.00  0.00    +0.065 C 
ATOM     13  C   UNL     1      -3.642  -0.851   0.013  0.00  0.00    +0.137 C 
ATOM     14  C   UNL     1      -2.395  -0.003   0.017  0.00  0.00    -0.161 A 
ATOM     15  C   UNL     1      -1.181  -0.642  -0.002  0.00  0.00    +0.111 A 
ATOM     16  C   UNL     1      -0.001   0.096  -0.008  0.00  0.00    -0.143 A 
ATOM     17  C   UNL     1       1.427  -0.247  -0.026  0.00  0.00    -0.041 A 
ATOM     18  C   UNL     1       2.091   0.917  -0.026  0.00  0.00    +0.224 A 
ATOM     19  O   UNL     1       1.224   1.945  -0.011  0.00  0.00    -0.189 OA
ATOM     20  C   UNL     1      -0.049   1.501   0.001  0.00  0.00    +0.084 A 
ATOM     21  C   UNL     1      -1.282   2.133   0.025  0.00  0.00    +0.028 A 
ATOM     22  C   UNL     1      -2.451   1.384   0.032  0.00  0.00    +0.143 A 
ATOM     23  O   UNL     1      -3.635   2.056   0.064  0.00  0.00    -0.287 OA
ATOM     24  C   UNL     1      -4.752   1.336  -0.150  0.00  0.00    +0.499 C 
ATOM     25  O   UNL     1      -5.651   1.755  -0.839  0.00  0.00    -0.420 OA
ENDROOT
BRANCH  12  11
ATOM      3  C   UNL     1      -5.837  -0.226   2.800  0.00  0.00    +0.161 A 
ATOM      4  C   UNL     1      -5.765  -0.089   4.178  0.00  0.00    -0.044 A 
ATOM      5  C   UNL     1      -4.615   0.413   4.765  0.00  0.00    +0.085 A 
ATOM      6  C   UNL     1      -3.531   0.775   3.969  0.00  0.00    +0.001 A 
ATOM      7  O   UNL     1      -2.531   1.237   4.778  0.00  0.00    -0.303 OA
ATOM      8  C   UNL     1      -3.163   1.537   6.036  0.00  0.00    +0.436 C 
ATOM      9  C   UNL     1      -3.605   0.631   2.594  0.00  0.00    +0.093 A 
ATOM     10  O   UNL     1      -4.295   0.648   6.071  0.00  0.00    -0.305 OA
ATOM     11  C   UNL     1      -4.754   0.130   2.010  0.00  0.00    -0.118 A 
BRANCH   3   2
ATOM      1  C   UNL     1      -8.044  -1.059   3.098  0.00  0.00    +0.250 C 
ATOM      2  O   UNL     1      -6.968  -0.713   2.224  0.00  0.00    -0.304 OA
ENDBRANCH   3   2
ENDBRANCH  12  11
TORSDOF 2
