REMARK  Name = ZINC95486282
REMARK  12 active torsions:
REMARK  status: ('A' for Active; 'I' for Inactive)
REMARK    1  A    between atoms: C1_1  and  C2_2
REMARK    2  A    between atoms: C3_3  and  O8_28
REMARK    3  A    between atoms: C6_7  and  O7_26
REMARK    4  A    between atoms: C7_8  and  O4_16
REMARK    5  A    between atoms: C9_11  and  C12_15
REMARK    6  A    between atoms: C10_12  and  O3_13
REMARK    7  A    between atoms: O3_13  and  C11_14
REMARK    8  A    between atoms: O4_16  and  C13_17
REMARK    9  A    between atoms: C16_20  and  O6_25
REMARK   10  A    between atoms: C17_21  and  O5_23
REMARK   11  A    between atoms: O5_23  and  C19_24
REMARK   12  A    between atoms: O7_26  and  C20_27
REMARK                            x       y       z     vdW  Elec       q    Type
REMARK                         _______ _______ _______ _____ _____    ______ ____
ROOT
ATOM      1  C   UNL     1       0.248   1.505  -0.014  0.00  0.00    +0.121 C 
ATOM      2  C   UNL     1       0.220  -0.002  -0.017  0.00  0.00    -0.154 A 
ATOM      3  C   UNL     1       0.179  -0.688  -1.217  0.00  0.00    +0.212 A 
ATOM      6  C   UNL     1       0.154  -2.088  -1.210  0.00  0.00    -0.243 A 
ATOM      7  C   UNL     1       0.110  -2.858  -2.464  0.00  0.00    +0.442 A 
ATOM      8  C   UNL     1       0.087  -4.269  -2.361  0.00  0.00    -0.079 A 
ATOM     11  C   UNL     1       0.107  -4.851  -1.133  0.00  0.00    +0.227 A 
ATOM     23  O   UNL     1       0.146  -4.139   0.003  0.00  0.00    -0.228 OA
ATOM     24  O   UNL     1       0.094  -2.301  -3.551  0.00  0.00    -0.426 OA
ATOM     25  C   UNL     1       0.171  -2.790   0.007  0.00  0.00    +0.180 A 
ATOM     26  C   UNL     1       0.212  -2.084   1.200  0.00  0.00    -0.128 A 
ATOM     27  C   UNL     1       0.230  -2.825   2.512  0.00  0.00    +0.122 C 
ATOM     28  C   UNL     1       0.242  -0.699   1.186  0.00  0.00    +0.173 A 
ENDROOT
BRANCH   3   4
ATOM      4  O   UNL     1       0.162  -0.009  -2.393  0.00  0.00    -0.468 OA
ATOM      5  H   UNL     1       1.040   0.172  -2.755  0.00  0.00    +0.403 HD
ENDBRANCH   3   4
BRANCH   8   9
ATOM      9  O   UNL     1       0.046  -5.038  -3.485  0.00  0.00    -0.285 OA
ATOM     10  C   UNL     1       0.026  -6.455  -3.301  0.00  0.00    +0.258 C 
ENDBRANCH   8   9
BRANCH  28  29
ATOM     29  O   UNL     1       0.288  -0.015   2.358  0.00  0.00    -0.324 OA
ATOM     30  C   UNL     1      -0.962   0.334   2.955  0.00  0.00    +0.241 C 
ENDBRANCH  28  29
BRANCH  11  12
ATOM     12  O   UNL     1       0.084  -6.200  -1.054  0.00  0.00    -0.207 OA
BRANCH  12  13
ATOM     13  C   UNL     1       0.203  -6.769   0.175  0.00  0.00    +0.084 A 
ATOM     14  C   UNL     1      -0.885  -6.793   1.036  0.00  0.00    +0.004 A 
ATOM     15  C   UNL     1      -0.767  -7.370   2.286  0.00  0.00    +0.055 A 
ATOM     16  C   UNL     1       0.438  -7.927   2.682  0.00  0.00    +0.091 A 
ATOM     19  C   UNL     1       1.530  -7.906   1.820  0.00  0.00    +0.118 A 
ATOM     22  C   UNL     1       1.409  -7.331   0.566  0.00  0.00    -0.044 A 
BRANCH  16  17
ATOM     17  O   UNL     1       0.554  -8.495   3.913  0.00  0.00    -0.483 OA
ATOM     18  H   UNL     1       0.338  -9.437   3.934  0.00  0.00    +0.393 HD
ENDBRANCH  16  17
BRANCH  19  20
ATOM     20  O   UNL     1       2.714  -8.452   2.207  0.00  0.00    -0.300 OA
ATOM     21  C   UNL     1       3.792  -8.394   1.271  0.00  0.00    +0.245 C 
ENDBRANCH  19  20
ENDBRANCH  12  13
ENDBRANCH  11  12
TORSDOF 7
