REMARK  Name = ZINC95486205
REMARK  8 active torsions:
REMARK  status: ('A' for Active; 'I' for Inactive)
REMARK    1  A    between atoms: C1_1  and  C2_2
REMARK    2  A    between atoms: C4_4  and  C24_28
REMARK    3  A    between atoms: C8_8  and  O2_26
REMARK    4  A    between atoms: C9_9  and  C12_12
REMARK    5  A    between atoms: C18_18  and  C22_24
REMARK    6  A    between atoms: C18_18  and  O1_25
REMARK    7  A    between atoms: C19_20  and  C21_23
REMARK    8  A    between atoms: O2_26  and  C23_27
REMARK                            x       y       z     vdW  Elec       q    Type
REMARK                         _______ _______ _______ _____ _____    ______ ____
ROOT
ATOM     13  C   UNL     1       0.048  -2.119   3.692  0.00  0.00    -0.032 A 
ATOM     14  C   UNL     1      -1.056  -1.358   4.075  0.00  0.00    +0.027 A 
ATOM     15  C   UNL     1      -1.050  -0.712   5.292  0.00  0.00    +0.001 A 
ATOM     16  C   UNL     1       0.047  -0.811   6.138  0.00  0.00    -0.070 A 
ATOM     17  C   UNL     1       1.144  -1.560   5.762  0.00  0.00    -0.107 A 
ATOM     18  C   UNL     1       2.359  -1.685   6.643  0.00  0.00    +0.337 C 
ATOM     21  C   UNL     1       3.467  -0.777   6.106  0.00  0.00    +0.040 C 
ATOM     22  N   UNL     1       2.039  -1.294   8.020  0.00  0.00    -0.692 NA
ATOM     23  H   UNL     1       1.447  -1.981   8.462  0.00  0.00    +0.348 HD
ATOM     24  C   UNL     1       1.408   0.035   8.039  0.00  0.00    +0.173 C 
ATOM     25  C   UNL     1       1.334   0.549   9.478  0.00  0.00    +0.042 C 
ATOM     26  C   UNL     1      -0.001  -0.088   7.460  0.00  0.00    +0.047 C 
ATOM     27  C   UNL     1       1.144  -2.220   4.545  0.00  0.00    +0.067 A 
ENDROOT
BRANCH  13  12
ATOM      1  C   UNL     1      -0.018   1.503   0.010  0.00  0.00    +0.090 C 
ATOM      2  C   UNL     1       0.002  -0.004   0.002  0.00  0.00    -0.064 A 
ATOM      3  C   UNL     1       0.006  -0.684  -1.214  0.00  0.00    -0.007 A 
ATOM      4  C   UNL     1       0.024  -2.045  -1.255  0.00  0.00    -0.056 A 
ATOM      5  C   UNL     1       0.026  -2.762  -2.581  0.00  0.00    +0.095 C 
ATOM      6  C   UNL     1       0.040  -2.777  -0.056  0.00  0.00    -0.086 A 
ATOM      7  C   UNL     1       0.060  -4.184  -0.063  0.00  0.00    +0.073 A 
ATOM      8  C   UNL     1       0.075  -4.873   1.109  0.00  0.00    -0.062 A 
ATOM      9  C   UNL     1       0.072  -4.208   2.337  0.00  0.00    +0.147 A 
ATOM     12  C   UNL     1       0.052  -2.821   2.388  0.00  0.00    -0.091 A 
ATOM     28  C   UNL     1       0.037  -2.084   1.179  0.00  0.00    +0.009 A 
ATOM     29  C   UNL     1       0.022  -0.682   1.183  0.00  0.00    +0.003 A 
BRANCH   9  10
ATOM     10  O   UNL     1       0.087  -4.924   3.490  0.00  0.00    -0.304 OA
ATOM     11  C   UNL     1       0.106  -6.348   3.370  0.00  0.00    +0.238 C 
ENDBRANCH   9  10
ENDBRANCH  13  12
BRANCH  18  19
ATOM     19  O   UNL     1       2.813  -3.039   6.631  0.00  0.00    -0.551 OA
ATOM     20  H   UNL     1       3.595  -3.197   7.177  0.00  0.00    +0.384 HD
ENDBRANCH  18  19
TORSDOF 3
