REMARK  Name = ZINC00900182
REMARK  4 active torsions:
REMARK  status: ('A' for Active; 'I' for Inactive)
REMARK    1  A    between atoms: C1_1  and  O1_2
REMARK    2  A    between atoms: O1_2  and  C2_3
REMARK    3  A    between atoms: C12_15  and  O3_16
REMARK    4  A    between atoms: O3_16  and  C13_17
REMARK                            x       y       z     vdW  Elec       q    Type
REMARK                         _______ _______ _______ _____ _____    ______ ____
ROOT
ATOM      3  C   UNL     1      -0.016   1.352   0.009  0.00  0.00    +0.215 A 
ATOM      4  C   UNL     1      -1.217   2.055   0.019  0.00  0.00    -0.193 A 
ATOM      5  C   UNL     1      -2.633   1.664   0.034  0.00  0.00    -0.028 A 
ATOM      6  C   UNL     1      -3.333   2.805   0.047  0.00  0.00    +0.255 A 
ATOM      7  O   UNL     1      -2.503   3.863   0.046  0.00  0.00    -0.189 OA
ATOM      8  C   UNL     1      -1.212   3.467   0.033  0.00  0.00    +0.313 A 
ATOM      9  N   UNL     1      -0.074   4.134   0.028  0.00  0.00    -0.456 NA
ATOM     10  C   UNL     1       1.110   3.513   0.012  0.00  0.00    +0.187 A 
ATOM     11  C   UNL     1       2.308   4.256   0.004  0.00  0.00    +0.121 A 
ATOM     14  C   UNL     1       3.521   3.602  -0.016  0.00  0.00    +0.055 A 
ATOM     15  O   UNL     1       4.800   4.085  -0.029  0.00  0.00    -0.291 OA
ATOM     16  C   UNL     1       5.622   2.986  -0.462  0.00  0.00    +0.442 C 
ATOM     17  O   UNL     1       4.890   1.820  -0.045  0.00  0.00    -0.299 OA
ATOM     18  C   UNL     1       3.577   2.199  -0.026  0.00  0.00    +0.055 A 
ATOM     19  C   UNL     1       2.431   1.458  -0.016  0.00  0.00    +0.074 A 
ATOM     20  C   UNL     1       1.180   2.097   0.002  0.00  0.00    -0.114 A 
ENDROOT
BRANCH   3   2
ATOM      1  C   UNL     1       0.023  -0.660   1.272  0.00  0.00    +0.249 C 
ATOM      2  O   UNL     1       0.002  -0.004   0.002  0.00  0.00    -0.323 OA
ENDBRANCH   3   2
BRANCH  11  12
ATOM     12  O   UNL     1       2.267   5.616   0.015  0.00  0.00    -0.308 OA
ATOM     13  C   UNL     1       2.263   6.254   1.293  0.00  0.00    +0.234 C 
ENDBRANCH  11  12
TORSDOF 2
