REMARK  Name = ZINC95485948
REMARK  16 active torsions:
REMARK  status: ('A' for Active; 'I' for Inactive)
REMARK    1  A    between atoms: C1_1  and  C2_2
REMARK    2  A    between atoms: C2_2  and  C3_3
REMARK    3  A    between atoms: C3_3  and  C4_5
REMARK    4  A    between atoms: C3_3  and  C32_48
REMARK    5  A    between atoms: C5_6  and  C6_7
REMARK    6  A    between atoms: C6_7  and  C7_9
REMARK    7  A    between atoms: C6_7  and  C8_10
REMARK    8  A    between atoms: C12_16  and  C31_47
REMARK    9  A    between atoms: C20_26  and  C30_46
REMARK   10  A    between atoms: C24_30  and  O1_32
REMARK   11  A    between atoms: O1_32  and  C25_33
REMARK   12  A    between atoms: C26_35  and  O5_45
REMARK   13  A    between atoms: C27_37  and  O4_44
REMARK   14  A    between atoms: C28_39  and  O3_43
REMARK   15  A    between atoms: C32_48  and  C33_49
REMARK   16  A    between atoms: C32_48  and  C34_50
REMARK                            x       y       z     vdW  Elec       q    Type
REMARK                         _______ _______ _______ _____ _____    ______ ____
ROOT
ATOM     10  C   UNL     1       3.159  -4.309  -2.912  0.00  0.00    +0.004 C 
ATOM     11  C   UNL     1       2.418  -3.687  -4.114  0.00  0.00    +0.008 C 
ATOM     12  C   UNL     1       2.153  -4.839  -5.108  0.00  0.00    +0.001 C 
ATOM     13  C   UNL     1       2.166  -6.114  -4.213  0.00  0.00    +0.004 C 
ATOM     14  C   UNL     1       0.810  -6.159  -3.503  0.00  0.00    +0.007 C 
ATOM     15  C   UNL     1      -0.223  -6.700  -4.503  0.00  0.00    +0.060 C 
ATOM     16  C   UNL     1      -1.536  -6.923  -3.815  0.00  0.00    -0.025 C 
ATOM     17  C   UNL     1      -1.657  -7.084  -2.536  0.00  0.00    -0.108 C 
ATOM     18  C   UNL     1      -0.479  -7.063  -1.554  0.00  0.00    -0.007 C 
ATOM     19  C   UNL     1      -0.572  -8.312  -0.675  0.00  0.00    +0.026 C 
ATOM     20  C   UNL     1      -0.580  -5.845  -0.639  0.00  0.00    +0.024 C 
ATOM     21  C   UNL     1      -2.044  -5.440  -0.467  0.00  0.00    +0.013 C 
ATOM     22  C   UNL     1      -2.957  -6.665  -0.468  0.00  0.00    -0.002 C 
ATOM     23  C   UNL     1      -3.037  -7.278  -1.929  0.00  0.00    +0.202 C 
ATOM     37  C   UNL     1       0.860  -7.090  -2.282  0.00  0.00    +0.001 C 
ATOM     38  C   UNL     1       1.944  -6.600  -1.311  0.00  0.00    +0.011 C 
ATOM     39  C   UNL     1       3.300  -6.673  -2.008  0.00  0.00    +0.019 C 
ATOM     40  C   UNL     1       3.317  -5.799  -3.241  0.00  0.00    -0.048 C 
ATOM     41  C   UNL     1       4.650  -6.011  -3.962  0.00  0.00    +0.017 C 
ENDROOT
BRANCH  10   9
ATOM      9  C   UNL     1       2.335  -4.134  -1.635  0.00  0.00    +0.033 C 
ATOM     42  C   UNL     1       3.129  -4.663  -0.439  0.00  0.00    +0.015 C 
BRANCH   9   8
ATOM      7  C   UNL     1       0.788  -2.261  -1.386  0.00  0.00    -0.042 C 
ATOM      8  C   UNL     1       2.031  -2.672  -1.430  0.00  0.00    -0.045 C 
BRANCH   7   3
ATOM      3  C   UNL     1       0.484  -0.800  -1.180  0.00  0.00    +0.019 C 
BRANCH   3   4
ATOM      4  C   UNL     1      -0.310  -0.271  -2.376  0.00  0.00    -0.019 C 
ATOM      5  C   UNL     1       0.460  -0.559  -3.667  0.00  0.00    +0.014 C 
ATOM      6  C   UNL     1      -0.510   1.239  -2.228  0.00  0.00    +0.012 C 
ENDBRANCH   3   4
BRANCH   3   2
ATOM      1  C   UNL     1       0.486  -1.076   1.303  0.00  0.00    +0.007 C 
ATOM      2  C   UNL     1      -0.340  -0.625   0.097  0.00  0.00    +0.007 C 
ENDBRANCH   3   2
ENDBRANCH   7   3
ENDBRANCH   9   8
ENDBRANCH  10   9
BRANCH  23  24
ATOM     24  O   UNL     1      -3.351  -8.671  -1.866  0.00  0.00    -0.344 OA
BRANCH  24  25
ATOM     25  C   UNL     1      -4.747  -8.957  -1.972  0.00  0.00    +0.286 C 
ATOM     26  C   UNL     1      -4.992 -10.433  -1.646  0.00  0.00    +0.185 C 
ATOM     29  C   UNL     1      -6.481 -10.746  -1.821  0.00  0.00    +0.200 C 
ATOM     32  C   UNL     1      -6.902 -10.388  -3.249  0.00  0.00    +0.125 C 
ATOM     35  C   UNL     1      -6.584  -8.914  -3.513  0.00  0.00    +0.210 C 
ATOM     36  O   UNL     1      -5.189  -8.685  -3.303  0.00  0.00    -0.386 OA
BRANCH  26  27
ATOM     27  O   UNL     1      -4.223 -11.251  -2.531  0.00  0.00    -0.538 OA
ATOM     28  H   UNL     1      -3.270 -11.102  -2.476  0.00  0.00    +0.387 HD
ENDBRANCH  26  27
BRANCH  29  30
ATOM     30  O   UNL     1      -6.707 -12.137  -1.588  0.00  0.00    -0.545 OA
ATOM     31  H   UNL     1      -7.631 -12.406  -1.682  0.00  0.00    +0.388 HD
ENDBRANCH  29  30
BRANCH  32  33
ATOM     33  O   UNL     1      -8.306 -10.610  -3.403  0.00  0.00    -0.563 OA
ATOM     34  H   UNL     1      -8.643 -10.403  -4.285  0.00  0.00    +0.387 HD
ENDBRANCH  32  33
ENDBRANCH  24  25
ENDBRANCH  23  24
TORSDOF 10
