REMARK  Name = ZINC14689062
REMARK  7 active torsions:
REMARK  status: ('A' for Active; 'I' for Inactive)
REMARK    1  A    between atoms: C1_1  and  C2_2
REMARK    2  A    between atoms: C2_2  and  C3_3
REMARK    3  A    between atoms: C2_2  and  C4_5
REMARK    4  A    between atoms: C2_2  and  O5_26
REMARK    5  A    between atoms: C3_3  and  O1_4
REMARK    6  A    between atoms: C9_11  and  O3_24
REMARK    7  A    between atoms: N1_14  and  C19_23
REMARK                            x       y       z     vdW  Elec       q    Type
REMARK                         _______ _______ _______ _____ _____    ______ ____
ROOT
ATOM      5  C   UNL     1       4.184   5.495  -1.233  0.00  0.00    +0.149 C 
ATOM      6  C   UNL     1       2.754   5.290  -0.681  0.00  0.00    +0.108 C 
ATOM      7  C   UNL     1       2.685   3.780  -0.547  0.00  0.00    -0.261 A 
ATOM      8  C   UNL     1       3.986   3.304  -0.621  0.00  0.00    +0.198 A 
ATOM      9  C   UNL     1       4.222   1.929  -0.537  0.00  0.00    -0.068 A 
ATOM     10  C   UNL     1       3.173   1.047  -0.380  0.00  0.00    +0.245 A 
ATOM     13  C   UNL     1       1.858   1.531  -0.301  0.00  0.00    -0.270 A 
ATOM     14  C   UNL     1       0.726   0.611  -0.132  0.00  0.00    +0.440 A 
ATOM     15  O   UNL     1       0.896  -0.593  -0.055  0.00  0.00    -0.455 OA
ATOM     16  C   UNL     1      -0.626   1.198  -0.066  0.00  0.00    -0.208 A 
ATOM     17  C   UNL     1      -1.749   0.385   0.095  0.00  0.00    +0.117 A 
ATOM     18  C   UNL     1      -3.001   0.955   0.160  0.00  0.00    -0.033 A 
ATOM     19  C   UNL     1      -3.147   2.332   0.072  0.00  0.00    +0.085 A 
ATOM     20  C   UNL     1      -2.047   3.148  -0.082  0.00  0.00    -0.050 A 
ATOM     21  C   UNL     1      -0.771   2.593  -0.151  0.00  0.00    +0.216 A 
ATOM     22  N   UNL     1       0.329   3.410  -0.306  0.00  0.00    -0.518 N 
ATOM     23  C   UNL     1       0.125   4.858  -0.391  0.00  0.00    +0.309 C 
ATOM     24  C   UNL     1       1.615   2.915  -0.384  0.00  0.00    +0.293 A 
ATOM     25  O   UNL     1       4.875   4.324  -0.765  0.00  0.00    -0.283 OA
ENDROOT
BRANCH   5   2
ATOM      1  C   UNL     1       4.788   6.691   0.876  0.00  0.00    +0.081 C 
ATOM      2  C   UNL     1       4.812   6.763  -0.652  0.00  0.00    +0.142 C 
BRANCH   2   3
ATOM      3  O   UNL     1       4.070   7.904  -1.087  0.00  0.00    -0.535 OA
ATOM      4  H   UNL     1       4.043   8.014  -2.047  0.00  0.00    +0.377 HD
ENDBRANCH   2   3
BRANCH   2  26
ATOM     26  C   UNL     1       6.260   6.883  -1.134  0.00  0.00    +0.166 C 
BRANCH  26  27
ATOM     27  O   UNL     1       6.882   8.002  -0.501  0.00  0.00    -0.560 OA
ATOM     28  H   UNL     1       7.803   8.139  -0.760  0.00  0.00    +0.382 HD
ENDBRANCH  26  27
ENDBRANCH   2  26
ENDBRANCH   5   2
BRANCH  10  11
ATOM     11  O   UNL     1       3.412  -0.286  -0.302  0.00  0.00    -0.471 OA
ATOM     12  H   UNL     1       3.404  -0.738  -1.157  0.00  0.00    +0.403 HD
ENDBRANCH  10  11
TORSDOF 5
