REMARK  Name = ZINC95486124
REMARK  16 active torsions:
REMARK  status: ('A' for Active; 'I' for Inactive)
REMARK    1  A    between atoms: C1_1  and  O1_2
REMARK    2  A    between atoms: O1_2  and  C2_3
REMARK    3  A    between atoms: C5_7  and  O11_37
REMARK    4  A    between atoms: C7_9  and  O5_21
REMARK    5  A    between atoms: C10_13  and  C11_14
REMARK    6  A    between atoms: C14_17  and  O4_20
REMARK    7  A    between atoms: O5_21  and  C17_22
REMARK    8  A    between atoms: C17_22  and  C18_23
REMARK    9  A    between atoms: C18_23  and  C19_25
REMARK   10  A    between atoms: C18_23  and  O10_36
REMARK   11  A    between atoms: C19_25  and  C20_27
REMARK   12  A    between atoms: C19_25  and  O9_35
REMARK   13  A    between atoms: C20_27  and  C21_29
REMARK   14  A    between atoms: C20_27  and  O8_34
REMARK   15  A    between atoms: C21_29  and  C22_31
REMARK   16  A    between atoms: C21_29  and  O7_33
REMARK                            x       y       z     vdW  Elec       q    Type
REMARK                         _______ _______ _______ _____ _____    ______ ____
ROOT
ATOM      3  C   UNL     1       0.898  -0.521  -0.956  0.00  0.00    -0.079 A 
ATOM      4  C   UNL     1       0.975  -1.925  -1.141  0.00  0.00    +0.409 A 
ATOM      5  C   UNL     1       1.448  -2.412  -2.447  0.00  0.00    -0.289 A 
ATOM      6  C   UNL     1       1.555  -3.783  -2.716  0.00  0.00    +0.246 A 
ATOM      9  C   UNL     1       2.003  -4.200  -3.956  0.00  0.00    -0.120 A 
ATOM     10  C   UNL     1       2.346  -3.264  -4.926  0.00  0.00    +0.214 A 
ATOM     27  C   UNL     1       2.243  -1.907  -4.667  0.00  0.00    -0.032 A 
ATOM     28  C   UNL     1       1.795  -1.468  -3.430  0.00  0.00    +0.204 A 
ATOM     29  O   UNL     1       1.688  -0.150  -3.162  0.00  0.00    -0.203 OA
ATOM     30  O   UNL     1       0.660  -2.700  -0.252  0.00  0.00    -0.444 OA
ATOM     31  C   UNL     1       1.253   0.310  -1.977  0.00  0.00    +0.177 A 
ENDROOT
BRANCH  31  32
ATOM     32  C   UNL     1       1.162   1.767  -1.770  0.00  0.00    -0.078 A 
ATOM     33  C   UNL     1       2.227   2.595  -2.136  0.00  0.00    +0.074 A 
ATOM     34  C   UNL     1       2.138   3.956  -1.942  0.00  0.00    -0.014 A 
ATOM     35  C   UNL     1       0.991   4.506  -1.383  0.00  0.00    +0.134 A 
ATOM     38  C   UNL     1      -0.071   3.687  -1.018  0.00  0.00    -0.012 A 
ATOM     39  C   UNL     1       0.008   2.325  -1.213  0.00  0.00    +0.100 A 
BRANCH  35  36
ATOM     36  O   UNL     1       0.907   5.848  -1.193  0.00  0.00    -0.498 OA
ATOM     37  H   UNL     1       0.534   6.329  -1.944  0.00  0.00    +0.397 HD
ENDBRANCH  35  36
ENDBRANCH  31  32
BRANCH   3   2
ATOM      1  C   UNL     1       1.295  -0.230   1.371  0.00  0.00    +0.230 C 
ATOM      2  O   UNL     1       0.467  -0.007   0.228  0.00  0.00    -0.297 OA
ENDBRANCH   3   2
BRANCH   6   7
ATOM      7  O   UNL     1       1.220  -4.694  -1.768  0.00  0.00    -0.474 OA
ATOM      8  H   UNL     1       0.292  -4.964  -1.792  0.00  0.00    +0.405 HD
ENDBRANCH   6   7
BRANCH  10  11
ATOM     11  O   UNL     1       2.786  -3.685  -6.140  0.00  0.00    -0.290 OA
BRANCH  11  12
ATOM     12  C   UNL     1       2.869  -5.097  -6.346  0.00  0.00    +0.184 C 
BRANCH  12  13
ATOM     13  C   UNL     1       3.381  -5.376  -7.760  0.00  0.00    +0.205 C 
BRANCH  13  14
ATOM     14  O   UNL     1       4.721  -4.896  -7.886  0.00  0.00    -0.539 OA
ATOM     15  H   UNL     1       5.345  -5.305  -7.271  0.00  0.00    +0.376 HD
ENDBRANCH  13  14
BRANCH  13  16
ATOM     16  C   UNL     1       3.353  -6.883  -8.024  0.00  0.00    +0.171 C 
BRANCH  16  17
ATOM     17  O   UNL     1       2.013  -7.364  -7.898  0.00  0.00    -0.528 OA
ATOM     18  H   UNL     1       1.389  -6.955  -8.513  0.00  0.00    +0.372 HD
ENDBRANCH  16  17
BRANCH  16  19
ATOM     19  C   UNL     1       3.864  -7.163  -9.439  0.00  0.00    +0.187 C 
BRANCH  19  20
ATOM     20  O   UNL     1       3.100  -6.405 -10.380  0.00  0.00    -0.544 OA
ATOM     21  H   UNL     1       2.155  -6.608 -10.373  0.00  0.00    +0.371 HD
ENDBRANCH  19  20
BRANCH  19  22
ATOM     22  C   UNL     1       3.719  -8.654  -9.748  0.00  0.00    +0.150 C 
BRANCH  22  23
ATOM     23  O   UNL     1       2.363  -9.054  -9.543  0.00  0.00    -0.521 OA
ATOM     24  H   UNL     1       1.726  -8.584 -10.099  0.00  0.00    +0.372 HD
ENDBRANCH  22  23
BRANCH  22  25
ATOM     25  C   UNL     1       4.107  -8.910 -11.182  0.00  0.00    +0.425 C 
ATOM     26  O   UNL     1       3.305  -9.386 -11.948  0.00  0.00    -0.441 OA
ENDBRANCH  22  25
ENDBRANCH  19  22
ENDBRANCH  16  19
ENDBRANCH  13  16
ENDBRANCH  12  13
ENDBRANCH  11  12
ENDBRANCH  10  11
TORSDOF 15
