REMARK  Name = ZINC95485906
REMARK  8 active torsions:
REMARK  status: ('A' for Active; 'I' for Inactive)
REMARK    1  A    between atoms: C1_1  and  C2_2
REMARK    2  A    between atoms: C7_7  and  C13_15
REMARK    3  A    between atoms: C8_8  and  O2_14
REMARK    4  A    between atoms: C11_11  and  O1_12
REMARK    5  A    between atoms: O1_12  and  C12_13
REMARK    6  A    between atoms: C18_20  and  O3_21
REMARK    7  A    between atoms: C19_22  and  C23_29
REMARK    8  A    between atoms: C20_25  and  C22_28
REMARK                            x       y       z     vdW  Elec       q    Type
REMARK                         _______ _______ _______ _____ _____    ______ ____
ROOT
ATOM      8  C   UNL     1       0.086  -6.341  -1.221  0.00  0.00    -0.047 A 
ATOM      9  C   UNL     1       1.187  -7.019  -1.741  0.00  0.00    +0.073 A 
ATOM     10  C   UNL     1       1.197  -8.397  -1.755  0.00  0.00    +0.025 A 
ATOM     11  C   UNL     1       0.120  -9.117  -1.258  0.00  0.00    -0.074 A 
ATOM     12  C   UNL     1      -0.977  -8.457  -0.744  0.00  0.00    -0.157 A 
ATOM     13  C   UNL     1      -2.169  -9.201  -0.204  0.00  0.00    +0.237 C 
ATOM     14  C   UNL     1      -3.290  -9.183  -1.245  0.00  0.00    +0.094 C 
ATOM     15  N   UNL     1      -1.815 -10.591   0.100  0.00  0.00    -0.501 N 
ATOM     16  H   UNL     1      -2.646 -11.101   0.362  0.00  0.00    +0.431 HD
ATOM     17  H   UNL     1      -1.151 -10.612   0.858  0.00  0.00    +0.430 HD
ATOM     18  C   UNL     1      -1.218 -11.205  -1.096  0.00  0.00    +0.167 C 
ATOM     19  C   UNL     1      -1.127 -12.720  -0.904  0.00  0.00    +0.094 C 
ATOM     20  C   UNL     1       0.182 -10.623  -1.294  0.00  0.00    +0.131 C 
ATOM     21  C   UNL     1      -0.996  -7.067  -0.717  0.00  0.00    +0.163 A 
ENDROOT
BRANCH   8   7
ATOM      1  C   UNL     1      -0.018   1.503   0.010  0.00  0.00    +0.107 C 
ATOM      2  C   UNL     1       0.002  -0.004   0.002  0.00  0.00    -0.084 A 
ATOM      3  C   UNL     1       0.005  -0.668  -1.186  0.00  0.00    +0.061 A 
ATOM      4  C   UNL     1       0.025  -2.073  -1.200  0.00  0.00    -0.057 A 
ATOM      5  C   UNL     1       0.030  -2.785  -2.413  0.00  0.00    +0.039 A 
ATOM      6  C   UNL     1       0.049  -4.144  -2.406  0.00  0.00    +0.021 A 
ATOM      7  C   UNL     1       0.065  -4.859  -1.198  0.00  0.00    -0.088 A 
ATOM     24  C   UNL     1       0.060  -4.189   0.017  0.00  0.00    +0.146 A 
ATOM     27  C   UNL     1       0.041  -2.780   0.029  0.00  0.00    -0.042 A 
ATOM     28  C   UNL     1       0.037  -2.065   1.237  0.00  0.00    -0.066 A 
ATOM     29  C   UNL     1       0.023  -0.699   1.214  0.00  0.00    +0.141 A 
BRANCH  24  25
ATOM     25  O   UNL     1       0.075  -4.884   1.183  0.00  0.00    -0.481 OA
ATOM     26  H   UNL     1       0.962  -5.074   1.517  0.00  0.00    +0.386 HD
ENDBRANCH  24  25
BRANCH  29  30
ATOM     30  O   UNL     1       0.024  -0.008   2.384  0.00  0.00    -0.310 OA
ATOM     31  C   UNL     1       0.046  -0.774   3.590  0.00  0.00    +0.245 C 
ENDBRANCH  29  30
ENDBRANCH   8   7
BRANCH  21  22
ATOM     22  O   UNL     1      -2.070  -6.414  -0.203  0.00  0.00    -0.478 OA
ATOM     23  H   UNL     1      -2.759  -6.217  -0.853  0.00  0.00    +0.394 HD
ENDBRANCH  21  22
TORSDOF 4
