REMARK  Name = ZINC95486039
REMARK  14 active torsions:
REMARK  status: ('A' for Active; 'I' for Inactive)
REMARK    1  A    between atoms: C1_1  and  C2_2
REMARK    2  A    between atoms: C2_2  and  C3_3
REMARK    3  A    between atoms: C5_8  and  C25_40
REMARK    4  A    between atoms: C6_9  and  O11_39
REMARK    5  A    between atoms: C9_12  and  C24_38
REMARK    6  A    between atoms: C13_19  and  C15_23
REMARK    7  A    between atoms: C15_23  and  O6_24
REMARK    8  A    between atoms: O6_24  and  C16_25
REMARK    9  A    between atoms: C16_25  and  C17_27
REMARK   10  A    between atoms: C18_28  and  O8_31
REMARK   11  A    between atoms: O8_31  and  C20_32
REMARK   12  A    between atoms: C20_32  and  C21_34
REMARK   13  A    between atoms: C21_34  and  C23_36
REMARK   14  A    between atoms: C23_36  and  O10_37
REMARK                            x       y       z     vdW  Elec       q    Type
REMARK                         _______ _______ _______ _____ _____    ______ ____
ROOT
ATOM      3  C   UNL     1      -2.030  -1.103   2.010  0.00  0.00    -0.055 C 
ATOM      4  C   UNL     1      -2.435  -0.776   3.432  0.00  0.00    +0.479 C 
ATOM      5  O   UNL     1      -2.120  -1.775   4.282  0.00  0.00    -0.336 OA
ATOM      6  C   UNL     1      -2.183  -3.000   3.458  0.00  0.00    +0.150 C 
ATOM      7  C   UNL     1      -3.703  -3.174   3.232  0.00  0.00    +0.062 C 
ATOM      8  C   UNL     1      -1.669  -4.151   4.264  0.00  0.00    +0.092 C 
ATOM      9  C   UNL     1      -0.465  -4.958   3.886  0.00  0.00    +0.255 C 
ATOM     18  C   UNL     1      -0.757  -6.435   3.802  0.00  0.00    -0.092 C 
ATOM     19  C   UNL     1      -0.271  -7.388   4.596  0.00  0.00    -0.166 C 
ATOM     25  C   UNL     1      -0.853  -8.677   4.198  0.00  0.00    +0.507 C 
ATOM     26  O   UNL     1      -1.838  -8.463   3.305  0.00  0.00    -0.303 OA
ATOM     27  O   UNL     1      -0.513  -9.761   4.623  0.00  0.00    -0.424 OA
ATOM     28  C   UNL     1      -1.678  -7.120   2.822  0.00  0.00    +0.259 C 
ATOM     29  C   UNL     1      -1.097  -7.143   1.408  0.00  0.00    +0.114 C 
ATOM     30  O   UNL     1      -0.060  -6.234   1.062  0.00  0.00    -0.301 OA
ATOM     31  C   UNL     1      -1.341  -5.901   0.537  0.00  0.00    +0.036 C 
ATOM     32  C   UNL     1      -1.597  -6.124  -0.953  0.00  0.00    +0.097 C 
ATOM     33  C   UNL     1      -2.164  -4.793   1.197  0.00  0.00    +0.066 C 
ATOM     34  C   UNL     1      -1.582  -3.410   0.962  0.00  0.00    +0.042 C 
ATOM     35  O   UNL     1      -2.969   0.253   3.763  0.00  0.00    -0.446 OA
ATOM     36  C   UNL     1      -1.468  -2.545   2.185  0.00  0.00    +0.152 C 
ENDROOT
BRANCH   3   2
ATOM      1  C   UNL     1      -3.542   0.518   0.877  0.00  0.00    +0.027 C 
ATOM      2  C   UNL     1      -3.199  -0.963   1.051  0.00  0.00    +0.047 C 
ENDBRANCH   3   2
BRANCH  36  37
ATOM     37  O   UNL     1      -0.067  -2.272   2.468  0.00  0.00    -0.547 OA
ATOM     38  H   UNL     1       0.396  -1.814   1.754  0.00  0.00    +0.376 HD
ENDBRANCH  36  37
BRANCH   9  10
ATOM     10  O   UNL     1       0.172  -4.552   2.689  0.00  0.00    -0.288 OA
BRANCH  10  11
ATOM     11  C   UNL     1       1.519  -4.604   2.665  0.00  0.00    +0.527 C 
ATOM     17  O   UNL     1       2.134  -4.889   3.674  0.00  0.00    -0.508 OA
BRANCH  11  12
ATOM     12  C   UNL     1       2.243  -4.317   1.419  0.00  0.00    -0.162 C 
ATOM     16  C   UNL     1       3.564  -4.470   1.367  0.00  0.00    +0.187 C 
BRANCH  12  13
ATOM     13  C   UNL     1       1.490  -3.851   0.200  0.00  0.00    +0.252 C 
BRANCH  13  14
ATOM     14  O   UNL     1       2.399  -3.698  -0.892  0.00  0.00    -0.570 OA
ATOM     15  H   UNL     1       1.982  -3.399  -1.712  0.00  0.00    +0.386 HD
ENDBRANCH  13  14
ENDBRANCH  12  13
ENDBRANCH  11  12
ENDBRANCH  10  11
ENDBRANCH   9  10
BRANCH  19  20
ATOM     20  C   UNL     1       0.712  -7.200   5.723  0.00  0.00    +0.316 C 
BRANCH  20  21
ATOM     21  O   UNL     1       0.102  -7.586   6.956  0.00  0.00    -0.348 OA
BRANCH  21  22
ATOM     22  C   UNL     1       0.850  -7.479   8.066  0.00  0.00    +0.461 C 
ATOM     23  C   UNL     1       0.274  -7.868   9.403  0.00  0.00    +0.164 C 
ATOM     24  O   UNL     1       1.984  -7.069   7.992  0.00  0.00    -0.505 OA
ENDBRANCH  21  22
ENDBRANCH  20  21
ENDBRANCH  19  20
TORSDOF 10
