REMARK  Name = ZINC18157343
REMARK  3 active torsions:
REMARK  status: ('A' for Active; 'I' for Inactive)
REMARK    1  A    between atoms: C1_1  and  C2_2
REMARK    2  A    between atoms: C6_7  and  C7_8
REMARK    3  A    between atoms: C6_7  and  C8_9
REMARK                            x       y       z     vdW  Elec       q    Type
REMARK                         _______ _______ _______ _____ _____    ______ ____
ROOT
ATOM      1  C   UNL     1      -0.018   1.503   0.010  0.00  0.00    +0.087 C 
ATOM      2  C   UNL     1       0.002  -0.004   0.002  0.00  0.00    -0.035 C 
ATOM      3  C   UNL     1       0.004  -0.610  -1.173  0.00  0.00    -0.105 C 
ATOM      4  C   UNL     1       0.001  -2.086  -1.256  0.00  0.00    +0.426 C 
ATOM      5  C   UNL     1       0.132  -2.808   0.037  0.00  0.00    -0.224 C 
ATOM      6  C   UNL     1      -0.531  -2.127   1.222  0.00  0.00    +0.088 C 
ATOM      7  C   UNL     1       0.782  -3.964   0.148  0.00  0.00    -0.042 C 
ATOM      8  C   UNL     1       0.881  -4.648   1.487  0.00  0.00    +0.094 C 
ATOM      9  C   UNL     1       1.420  -4.589  -1.066  0.00  0.00    +0.086 C 
ATOM     10  O   UNL     1      -0.103  -2.673  -2.317  0.00  0.00    -0.454 OA
ATOM     11  C   UNL     1       0.024  -0.704   1.325  0.00  0.00    +0.079 C 
ENDROOT
TORSDOF 0
