REMARK  Name = ZINC95485896
REMARK  6 active torsions:
REMARK  status: ('A' for Active; 'I' for Inactive)
REMARK    1  A    between atoms: C1_1  and  C2_2
REMARK    2  A    between atoms: C2_2  and  C3_3
REMARK    3  A    between atoms: C2_2  and  C4_4
REMARK    4  A    between atoms: C9_10  and  O2_19
REMARK    5  A    between atoms: C12_14  and  C15_17
REMARK    6  A    between atoms: C12_14  and  O1_18
REMARK                            x       y       z     vdW  Elec       q    Type
REMARK                         _______ _______ _______ _____ _____    ______ ____
ROOT
ATOM      3  C   UNL     1      -1.422  -0.564  -0.028  0.00  0.00    +0.021 C 
ATOM      4  C   UNL     1      -2.105  -0.151  -1.333  0.00  0.00    +0.023 C 
ATOM      5  C   UNL     1      -1.421  -0.852  -2.510  0.00  0.00    +0.061 C 
ATOM      6  C   UNL     1      -2.119  -2.157  -2.791  0.00  0.00    -0.139 C 
ATOM      7  C   UNL     1      -1.311  -3.409  -3.022  0.00  0.00    +0.199 C 
ATOM     10  C   UNL     1      -1.567  -4.398  -1.883  0.00  0.00    +0.039 C 
ATOM     11  C   UNL     1      -0.237  -4.782  -1.232  0.00  0.00    +0.067 C 
ATOM     12  C   UNL     1      -0.168  -4.188   0.176  0.00  0.00    +0.162 C 
ATOM     15  C   UNL     1       1.138  -4.618   0.848  0.00  0.00    +0.009 C 
ATOM     16  C   UNL     1      -0.217  -2.684   0.090  0.00  0.00    -0.065 C 
ATOM     17  C   UNL     1      -3.427  -2.205  -2.836  0.00  0.00    -0.001 C 
ATOM     18  C   UNL     1      -1.372  -2.067   0.060  0.00  0.00    -0.015 C 
ENDROOT
BRANCH   3   2
ATOM      1  C   UNL     1      -0.037   1.503  -0.260  0.00  0.00    +0.013 C 
ATOM      2  C   UNL     1       0.002  -0.004   0.002  0.00  0.00    -0.018 C 
ATOM     19  C   UNL     1       0.625  -0.267   1.374  0.00  0.00    +0.011 C 
ENDBRANCH   3   2
BRANCH   7   8
ATOM      8  O   UNL     1       0.079  -3.078  -3.062  0.00  0.00    -0.551 OA
ATOM      9  H   UNL     1       0.314  -2.453  -3.761  0.00  0.00    +0.371 HD
ENDBRANCH   7   8
BRANCH  12  13
ATOM     13  O   UNL     1      -1.276  -4.657   0.946  0.00  0.00    -0.560 OA
ATOM     14  H   UNL     1      -1.297  -4.320   1.852  0.00  0.00    +0.373 HD
ENDBRANCH  12  13
TORSDOF 3
