REMARK  Name = ZINC95486142
REMARK  18 active torsions:
REMARK  status: ('A' for Active; 'I' for Inactive)
REMARK    1  A    between atoms: C1_1  and  C2_2
REMARK    2  A    between atoms: C8_8  and  C35_43
REMARK    3  A    between atoms: C10_10  and  C12_13
REMARK    4  A    between atoms: C11_11  and  O1_12
REMARK    5  A    between atoms: C14_15  and  C24_27
REMARK    6  A    between atoms: C17_18  and  C23_26
REMARK    7  A    between atoms: C19_20  and  O3_24
REMARK    8  A    between atoms: C21_22  and  O2_23
REMARK    9  A    between atoms: O3_24  and  C22_25
REMARK   10  A    between atoms: C25_28  and  O5_42
REMARK   11  A    between atoms: C27_30  and  O4_41
REMARK   12  A    between atoms: C31_34  and  C34_40
REMARK   13  A    between atoms: C32_37  and  C33_39
REMARK   14  A    between atoms: C36_44  and  O7_58
REMARK   15  A    between atoms: C40_48  and  O6_49
REMARK   16  A    between atoms: O6_49  and  C41_50
REMARK   17  A    between atoms: C42_51  and  C46_57
REMARK   18  A    between atoms: C43_53  and  C45_56
REMARK                            x       y       z     vdW  Elec       q    Type
REMARK                         _______ _______ _______ _____ _____    ______ ____
ROOT
ATOM     26  C   UNL     1       0.164  -5.518   0.794  0.00  0.00    -0.079 A 
ATOM     27  C   UNL     1      -1.126  -6.035   0.976  0.00  0.00    +0.076 A 
ATOM     28  C   UNL     1      -1.484  -7.245   0.417  0.00  0.00    -0.074 A 
ATOM     47  C   UNL     1      -0.540  -7.973  -0.349  0.00  0.00    +0.028 A 
ATOM     48  C   UNL     1      -0.878  -9.205  -0.928  0.00  0.00    -0.041 A 
ATOM     49  C   UNL     1       0.045  -9.889  -1.662  0.00  0.00    -0.018 A 
ATOM     50  C   UNL     1      -0.330 -11.212  -2.279  0.00  0.00    +0.095 C 
ATOM     51  C   UNL     1       1.329  -9.385  -1.849  0.00  0.00    -0.096 A 
ATOM     52  C   UNL     1       1.698  -8.179  -1.296  0.00  0.00    +0.168 A 
ATOM     55  C   UNL     1       0.763  -7.451  -0.533  0.00  0.00    -0.101 A 
ATOM     56  C   UNL     1       1.104  -6.213   0.042  0.00  0.00    +0.182 A 
ENDROOT
BRANCH  28  29
ATOM     29  C   UNL     1      -2.850  -7.781   0.617  0.00  0.00    -0.057 A 
ATOM     30  C   UNL     1      -3.124  -8.601   1.716  0.00  0.00    +0.172 A 
ATOM     33  C   UNL     1      -4.402  -9.099   1.897  0.00  0.00    -0.017 A 
ATOM     34  C   UNL     1      -5.401  -8.784   0.990  0.00  0.00    +0.161 A 
ATOM     37  C   UNL     1      -5.132  -7.967  -0.107  0.00  0.00    -0.165 A 
ATOM     38  C   UNL     1      -6.252  -7.660  -1.065  0.00  0.00    +0.240 C 
ATOM     39  C   UNL     1      -7.535  -7.397  -0.273  0.00  0.00    +0.093 C 
ATOM     40  N   UNL     1      -5.936  -6.465  -1.860  0.00  0.00    -0.504 N 
ATOM     41  H   UNL     1      -6.649  -6.330  -2.561  0.00  0.00    +0.432 HD
ATOM     42  H   UNL     1      -5.891  -5.654  -1.261  0.00  0.00    +0.429 HD
ATOM     43  C   UNL     1      -4.634  -6.667  -2.514  0.00  0.00    +0.179 C 
ATOM     44  C   UNL     1      -4.590  -8.050  -3.165  0.00  0.00    +0.089 C 
ATOM     45  C   UNL     1      -3.536  -6.564  -1.454  0.00  0.00    +0.133 C 
ATOM     46  C   UNL     1      -3.865  -7.462  -0.289  0.00  0.00    -0.037 A 
BRANCH  30  31
ATOM     31  O   UNL     1      -2.140  -8.909   2.601  0.00  0.00    -0.480 OA
ATOM     32  H   UNL     1      -2.064  -8.286   3.337  0.00  0.00    +0.402 HD
ENDBRANCH  30  31
BRANCH  34  35
ATOM     35  O   UNL     1      -6.655  -9.275   1.172  0.00  0.00    -0.490 OA
ATOM     36  H   UNL     1      -7.200  -8.750   1.773  0.00  0.00    +0.402 HD
ENDBRANCH  34  35
ENDBRANCH  28  29
BRANCH  26  25
ATOM      1  C   UNL     1       2.218   1.848   2.952  0.00  0.00    +0.093 C 
ATOM      2  C   UNL     1       1.847   0.524   2.335  0.00  0.00    -0.066 A 
ATOM      3  C   UNL     1       1.807   0.399   0.948  0.00  0.00    +0.013 A 
ATOM      4  C   UNL     1       1.476  -0.783   0.361  0.00  0.00    +0.041 A 
ATOM      5  C   UNL     1       1.169  -1.897   1.163  0.00  0.00    -0.079 A 
ATOM      6  C   UNL     1       1.210  -1.769   2.573  0.00  0.00    -0.007 A 
ATOM      7  C   UNL     1       0.902  -2.887   3.386  0.00  0.00    -0.026 A 
ATOM     24  C   UNL     1       0.566  -4.091   2.797  0.00  0.00    +0.053 A 
ATOM     25  C   UNL     1       0.526  -4.217   1.403  0.00  0.00    -0.079 A 
ATOM     59  C   UNL     1       0.824  -3.134   0.586  0.00  0.00    +0.160 A 
ATOM     62  C   UNL     1       1.560  -0.536   3.142  0.00  0.00    +0.010 A 
BRANCH   7   8
ATOM      8  C   UNL     1       0.942  -2.767   4.861  0.00  0.00    -0.108 A 
ATOM      9  C   UNL     1      -0.208  -2.391   5.565  0.00  0.00    +0.153 A 
ATOM     12  C   UNL     1      -0.175  -2.277   6.950  0.00  0.00    -0.009 A 
ATOM     13  C   UNL     1       0.987  -2.533   7.637  0.00  0.00    -0.029 A 
ATOM     14  C   UNL     1       2.147  -2.910   6.947  0.00  0.00    -0.136 A 
ATOM     15  C   UNL     1       3.372  -3.175   7.718  0.00  0.00    +0.219 C 
ATOM     16  C   UNL     1       4.715  -3.161   7.034  0.00  0.00    +0.136 C 
ATOM     17  N   UNL     1       3.293  -3.420   8.985  0.00  0.00    -0.507 NA
ATOM     18  C   UNL     1       2.016  -3.461   9.690  0.00  0.00    +0.150 C 
ATOM     19  C   UNL     1       2.255  -3.185  11.176  0.00  0.00    +0.057 C 
ATOM     20  C   UNL     1       1.046  -2.418   9.138  0.00  0.00    +0.075 C 
ATOM     21  C   UNL     1       2.126  -3.034   5.555  0.00  0.00    +0.168 A 
BRANCH   9  10
ATOM     10  O   UNL     1      -1.359  -2.136   4.893  0.00  0.00    -0.485 OA
ATOM     11  H   UNL     1      -1.924  -2.911   4.773  0.00  0.00    +0.390 HD
ENDBRANCH   9  10
BRANCH  21  22
ATOM     22  O   UNL     1       3.244  -3.404   4.883  0.00  0.00    -0.323 OA
ATOM     23  C   UNL     1       4.034  -2.358   4.312  0.00  0.00    +0.234 C 
ENDBRANCH  21  22
ENDBRANCH   7   8
BRANCH  59  60
ATOM     60  O   UNL     1       0.782  -3.267  -0.765  0.00  0.00    -0.490 OA
ATOM     61  H   UNL     1       1.621  -3.543  -1.159  0.00  0.00    +0.397 HD
ENDBRANCH  59  60
ENDBRANCH  26  25
BRANCH  52  53
ATOM     53  O   UNL     1       2.953  -7.695  -1.485  0.00  0.00    -0.293 OA
ATOM     54  C   UNL     1       3.843  -8.491  -2.270  0.00  0.00    +0.247 C 
ENDBRANCH  52  53
BRANCH  56  57
ATOM     57  O   UNL     1       2.349  -5.700  -0.132  0.00  0.00    -0.480 OA
ATOM     58  H   UNL     1       2.984  -5.970   0.546  0.00  0.00    +0.400 HD
ENDBRANCH  56  57
TORSDOF 10
