REMARK  Name = ZINC05495493
REMARK  3 active torsions:
REMARK  status: ('A' for Active; 'I' for Inactive)
REMARK    1  A    between atoms: C1_1  and  N1_2
REMARK    2  A    between atoms: C14_16  and  O2_17
REMARK    3  A    between atoms: O2_17  and  C15_18
REMARK                            x       y       z     vdW  Elec       q    Type
REMARK                         _______ _______ _______ _____ _____    ______ ____
ROOT
ATOM      1  C   UNL     1       1.263   5.941   0.015  0.00  0.00    +0.317 C 
ATOM      2  N   UNL     1      -0.022   5.238   0.024  0.00  0.00    -0.516 N 
ATOM      3  C   UNL     1      -0.024   3.860   0.020  0.00  0.00    +0.218 A 
ATOM      4  C   UNL     1       1.182   3.160   0.006  0.00  0.00    -0.047 A 
ATOM      5  C   UNL     1       1.181   1.783   0.000  0.00  0.00    +0.086 A 
ATOM      6  C   UNL     1      -0.013   1.076   0.008  0.00  0.00    -0.032 A 
ATOM      7  C   UNL     1      -1.216   1.745   0.017  0.00  0.00    +0.119 A 
ATOM      8  C   UNL     1      -1.230   3.141   0.029  0.00  0.00    -0.206 A 
ATOM      9  C   UNL     1      -2.507   3.880   0.046  0.00  0.00    +0.439 A 
ATOM     10  C   UNL     1      -2.443   5.348   0.048  0.00  0.00    -0.232 A 
ATOM     11  C   UNL     1      -3.618   6.115   0.062  0.00  0.00    +0.215 A 
ATOM     14  C   UNL     1      -3.534   7.497   0.060  0.00  0.00    -0.041 A 
ATOM     15  O   UNL     1      -4.505   8.459   0.070  0.00  0.00    -0.295 OA
ATOM     16  C   UNL     1      -3.848   9.669  -0.352  0.00  0.00    +0.439 C 
ATOM     17  O   UNL     1      -2.479   9.473   0.048  0.00  0.00    -0.300 OA
ATOM     18  C   UNL     1      -2.286   8.122   0.046  0.00  0.00    +0.129 A 
ATOM     19  C   UNL     1      -1.123   7.369   0.034  0.00  0.00    -0.032 A 
ATOM     20  O   UNL     1      -3.575   3.295   0.057  0.00  0.00    -0.447 OA
ATOM     21  C   UNL     1      -1.186   5.981   0.035  0.00  0.00    +0.254 A 
ENDROOT
BRANCH  11  12
ATOM     12  O   UNL     1      -4.831   5.505   0.076  0.00  0.00    -0.313 OA
ATOM     13  C   UNL     1      -5.395   5.213   1.357  0.00  0.00    +0.245 C 
ENDBRANCH  11  12
TORSDOF 1
