REMARK  Name = ZINC95486354
REMARK  11 active torsions:
REMARK  status: ('A' for Active; 'I' for Inactive)
REMARK    1  A    between atoms: C3_3  and  O10_35
REMARK    2  A    between atoms: C4_4  and  O9_34
REMARK    3  A    between atoms: C6_6  and  C7_7
REMARK    4  A    between atoms: C8_8  and  O4_20
REMARK    5  A    between atoms: C13_14  and  O3_18
REMARK    6  A    between atoms: C15_16  and  O2_17
REMARK    7  A    between atoms: O4_20  and  C17_21
REMARK    8  A    between atoms: C18_23  and  O8_33
REMARK    9  A    between atoms: C19_25  and  O7_32
REMARK   10  A    between atoms: C20_27  and  C21_30
REMARK   11  A    between atoms: C21_30  and  O6_31
REMARK                            x       y       z     vdW  Elec       q    Type
REMARK                         _______ _______ _______ _____ _____    ______ ____
ROOT
ATOM     11  C   UNL     1      -1.028  -0.682   0.024  0.00  0.00    -0.045 C 
ATOM     12  C   UNL     1      -1.529  -1.310  -1.057  0.00  0.00    +0.025 C 
ATOM     26  C   UNL     1      -2.885  -1.877  -1.008  0.00  0.00    +0.405 C 
ATOM     27  C   UNL     1      -3.781  -1.423   0.073  0.00  0.00    -0.195 A 
ATOM     28  C   UNL     1      -3.242  -0.766   1.182  0.00  0.00    -0.008 A 
ATOM     29  C   UNL     1      -4.079  -0.333   2.177  0.00  0.00    -0.025 A 
ATOM     30  C   UNL     1      -5.450  -0.549   2.093  0.00  0.00    +0.161 A 
ATOM     33  C   UNL     1      -5.993  -1.208   1.000  0.00  0.00    -0.045 A 
ATOM     34  C   UNL     1      -5.162  -1.649  -0.016  0.00  0.00    +0.194 A 
ATOM     37  O   UNL     1      -3.256  -2.694  -1.832  0.00  0.00    -0.386 OA
ATOM     38  C   UNL     1      -1.763  -0.540   1.317  0.00  0.00    +0.184 C 
ENDROOT
BRANCH  11  10
ATOM      1  C   UNL     1       0.498   1.280  -0.022  0.00  0.00    +0.038 A 
ATOM      2  C   UNL     1       1.765   1.815  -0.112  0.00  0.00    +0.008 A 
ATOM      3  C   UNL     1       2.866   0.983  -0.253  0.00  0.00    +0.088 A 
ATOM      6  C   UNL     1       2.698  -0.401  -0.305  0.00  0.00    +0.083 A 
ATOM      9  C   UNL     1       1.433  -0.946  -0.216  0.00  0.00    +0.037 A 
ATOM     10  C   UNL     1       0.321  -0.107  -0.073  0.00  0.00    -0.051 A 
BRANCH   3   4
ATOM      4  O   UNL     1       4.112   1.517  -0.342  0.00  0.00    -0.487 OA
ATOM      5  H   UNL     1       4.554   1.629   0.511  0.00  0.00    +0.390 HD
ENDBRANCH   3   4
BRANCH   6   7
ATOM      7  O   UNL     1       3.780  -1.212  -0.444  0.00  0.00    -0.485 OA
ATOM      8  H   UNL     1       4.174  -1.490   0.394  0.00  0.00    +0.389 HD
ENDBRANCH   6   7
ENDBRANCH  11  10
BRANCH  30  31
ATOM     31  O   UNL     1      -6.263  -0.111   3.088  0.00  0.00    -0.495 OA
ATOM     32  H   UNL     1      -6.594   0.788   2.959  0.00  0.00    +0.400 HD
ENDBRANCH  30  31
BRANCH  34  35
ATOM     35  O   UNL     1      -5.680  -2.297  -1.090  0.00  0.00    -0.476 OA
ATOM     36  H   UNL     1      -5.731  -3.257  -0.983  0.00  0.00    +0.402 HD
ENDBRANCH  34  35
BRANCH  12  13
ATOM     13  O   UNL     1      -0.785  -1.420  -2.189  0.00  0.00    -0.285 OA
BRANCH  13  14
ATOM     14  C   UNL     1      -1.236  -0.695  -3.335  0.00  0.00    +0.283 C 
ATOM     15  C   UNL     1      -0.212  -0.815  -4.485  0.00  0.00    +0.142 C 
ATOM     18  C   UNL     1      -1.084  -0.906  -5.757  0.00  0.00    +0.176 C 
ATOM     21  C   UNL     1      -2.532  -0.830  -5.226  0.00  0.00    +0.177 C 
ATOM     25  O   UNL     1      -2.449  -1.283  -3.856  0.00  0.00    -0.344 OA
BRANCH  15  16
ATOM     16  O   UNL     1       0.578  -1.996  -4.331  0.00  0.00    -0.531 OA
ATOM     17  H   UNL     1       1.101  -2.016  -3.518  0.00  0.00    +0.389 HD
ENDBRANCH  15  16
BRANCH  18  19
ATOM     19  O   UNL     1      -0.859  -2.146  -6.431  0.00  0.00    -0.535 OA
ATOM     20  H   UNL     1       0.051  -2.269  -6.734  0.00  0.00    +0.388 HD
ENDBRANCH  18  19
BRANCH  21  22
ATOM     22  C   UNL     1      -3.447  -1.749  -6.039  0.00  0.00    +0.224 C 
BRANCH  22  23
ATOM     23  O   UNL     1      -4.798  -1.577  -5.608  0.00  0.00    -0.569 OA
ATOM     24  H   UNL     1      -5.435  -2.130  -6.082  0.00  0.00    +0.381 HD
ENDBRANCH  22  23
ENDBRANCH  21  22
ENDBRANCH  13  14
ENDBRANCH  12  13
TORSDOF 11
