REMARK  Name = ZINC05085289
REMARK  13 active torsions:
REMARK  status: ('A' for Active; 'I' for Inactive)
REMARK    1  A    between atoms: C3_3  and  O12_47
REMARK    2  A    between atoms: C4_4  and  O11_46
REMARK    3  A    between atoms: C6_6  and  C7_7
REMARK    4  A    between atoms: C8_9  and  O10_45
REMARK    5  A    between atoms: C11_13  and  O9_44
REMARK    6  A    between atoms: C13_15  and  O8_43
REMARK    7  A    between atoms: C14_16  and  C16_19
REMARK    8  A    between atoms: C18_22  and  O7_42
REMARK    9  A    between atoms: C20_24  and  O6_41
REMARK   10  A    between atoms: C23_28  and  C25_33
REMARK   11  A    between atoms: C24_30  and  O3_32
REMARK   12  A    between atoms: C28_36  and  O5_40
REMARK   13  A    between atoms: C29_37  and  O4_39
REMARK                            x       y       z     vdW  Elec       q    Type
REMARK                         _______ _______ _______ _____ _____    ______ ____
ROOT
ATOM     11  C   UNL     1       5.107   3.144   0.199  0.00  0.00    +0.238 C 
ATOM     12  C   UNL     1       6.215   2.096   0.371  0.00  0.00    +0.154 C 
ATOM     15  C   UNL     1       7.565   2.786   0.157  0.00  0.00    +0.073 C 
ATOM     16  C   UNL     1       7.619   4.058   0.965  0.00  0.00    -0.196 A 
ATOM     17  C   UNL     1       8.857   4.638   1.215  0.00  0.00    +0.158 A 
ATOM     20  C   UNL     1       8.945   5.809   1.950  0.00  0.00    -0.069 A 
ATOM     21  C   UNL     1       7.792   6.405   2.439  0.00  0.00    +0.202 A 
ATOM     24  C   UNL     1       6.558   5.827   2.192  0.00  0.00    -0.108 A 
ATOM     51  C   UNL     1       6.469   4.650   1.455  0.00  0.00    +0.163 A 
ATOM     52  O   UNL     1       5.239   4.114   1.239  0.00  0.00    -0.299 OA
ENDROOT
BRANCH  24  25
ATOM     25  C   UNL     1       5.305   6.476   2.723  0.00  0.00    +0.133 C 
ATOM     26  C   UNL     1       5.296   7.935   2.343  0.00  0.00    -0.178 A 
ATOM     27  C   UNL     1       5.697   8.293   1.060  0.00  0.00    +0.155 A 
ATOM     30  C   UNL     1       5.698   9.624   0.676  0.00  0.00    -0.068 A 
ATOM     31  C   UNL     1       5.298  10.602   1.573  0.00  0.00    +0.157 A 
ATOM     34  C   UNL     1       4.900  10.246   2.851  0.00  0.00    -0.046 A 
ATOM     35  C   UNL     1       4.900   8.911   3.239  0.00  0.00    +0.182 A 
ATOM     36  O   UNL     1       4.507   8.605   4.503  0.00  0.00    -0.291 OA
ATOM     37  C   UNL     1       4.156   7.249   4.784  0.00  0.00    +0.196 C 
ATOM     48  C   UNL     1       5.269   6.340   4.247  0.00  0.00    +0.161 C 
BRANCH  37  38
ATOM     38  C   UNL     1       4.018   7.058   6.273  0.00  0.00    -0.086 A 
ATOM     39  C   UNL     1       4.830   7.767   7.138  0.00  0.00    +0.055 A 
ATOM     40  C   UNL     1       4.708   7.595   8.504  0.00  0.00    +0.011 A 
ATOM     41  C   UNL     1       3.768   6.710   9.009  0.00  0.00    +0.090 A 
ATOM     44  C   UNL     1       2.950   5.997   8.138  0.00  0.00    +0.083 A 
ATOM     47  C   UNL     1       3.075   6.178   6.770  0.00  0.00    +0.021 A 
BRANCH  41  42
ATOM     42  O   UNL     1       3.647   6.539  10.352  0.00  0.00    -0.487 OA
ATOM     43  H   UNL     1       3.014   7.140  10.770  0.00  0.00    +0.390 HD
ENDBRANCH  41  42
BRANCH  44  45
ATOM     45  O   UNL     1       2.027   5.127   8.629  0.00  0.00    -0.486 OA
ATOM     46  H   UNL     1       1.163   5.526   8.800  0.00  0.00    +0.390 HD
ENDBRANCH  44  45
ENDBRANCH  37  38
BRANCH  27  28
ATOM     28  O   UNL     1       6.089   7.334   0.181  0.00  0.00    -0.483 OA
ATOM     29  H   UNL     1       5.369   6.975  -0.356  0.00  0.00    +0.389 HD
ENDBRANCH  27  28
BRANCH  31  32
ATOM     32  O   UNL     1       5.297  11.909   1.199  0.00  0.00    -0.493 OA
ATOM     33  H   UNL     1       4.463  12.205   0.808  0.00  0.00    +0.396 HD
ENDBRANCH  31  32
BRANCH  48  49
ATOM     49  O   UNL     1       6.525   6.740   4.797  0.00  0.00    -0.512 OA
ATOM     50  H   UNL     1       6.571   6.678   5.761  0.00  0.00    +0.368 HD
ENDBRANCH  48  49
ENDBRANCH  24  25
BRANCH  11  10
ATOM      1  C   UNL     1       3.191   2.245   1.533  0.00  0.00    +0.043 A 
ATOM      2  C   UNL     1       1.952   1.639   1.627  0.00  0.00    +0.002 A 
ATOM      3  C   UNL     1       1.282   1.252   0.477  0.00  0.00    +0.088 A 
ATOM      6  C   UNL     1       1.853   1.486  -0.770  0.00  0.00    +0.081 A 
ATOM      9  C   UNL     1       3.093   2.099  -0.856  0.00  0.00    +0.036 A 
ATOM     10  C   UNL     1       3.759   2.477   0.295  0.00  0.00    -0.071 A 
BRANCH   3   4
ATOM      4  O   UNL     1       0.065   0.651   0.568  0.00  0.00    -0.493 OA
ATOM      5  H   UNL     1       0.107  -0.313   0.626  0.00  0.00    +0.395 HD
ENDBRANCH   3   4
BRANCH   6   7
ATOM      7  O   UNL     1       1.197   1.114  -1.901  0.00  0.00    -0.491 OA
ATOM      8  H   UNL     1       0.614   1.796  -2.261  0.00  0.00    +0.393 HD
ENDBRANCH   6   7
ENDBRANCH  11  10
BRANCH  12  13
ATOM     13  O   UNL     1       6.047   1.056  -0.594  0.00  0.00    -0.551 OA
ATOM     14  H   UNL     1       6.716   0.359  -0.541  0.00  0.00    +0.387 HD
ENDBRANCH  12  13
BRANCH  17  18
ATOM     18  O   UNL     1       9.987   4.054   0.736  0.00  0.00    -0.494 OA
ATOM     19  H   UNL     1      10.243   4.357  -0.146  0.00  0.00    +0.393 HD
ENDBRANCH  17  18
BRANCH  21  22
ATOM     22  O   UNL     1       7.872   7.555   3.158  0.00  0.00    -0.457 OA
ATOM     23  H   UNL     1       7.824   8.358   2.622  0.00  0.00    +0.377 HD
ENDBRANCH  21  22
TORSDOF 13
