REMARK  Name = ZINC95486350
REMARK  9 active torsions:
REMARK  status: ('A' for Active; 'I' for Inactive)
REMARK    1  A    between atoms: C4_4  and  C7_7
REMARK    2  A    between atoms: C7_7  and  C8_9
REMARK    3  A    between atoms: C7_7  and  O1_11
REMARK    4  A    between atoms: O1_11  and  C9_12
REMARK    5  A    between atoms: C10_14  and  O6_27
REMARK    6  A    between atoms: C11_16  and  O5_26
REMARK    7  A    between atoms: C12_18  and  O4_25
REMARK    8  A    between atoms: C13_20  and  C14_23
REMARK    9  A    between atoms: C14_23  and  O3_24
REMARK                            x       y       z     vdW  Elec       q    Type
REMARK                         _______ _______ _______ _____ _____    ______ ____
ROOT
ATOM      7  C   UNL     1       4.848  -2.196  -1.533  0.00  0.00    +0.313 C 
ATOM      8  C   UNL     1       4.655  -3.483  -2.340  0.00  0.00    +0.139 C 
ATOM     11  C   UNL     1       3.628  -3.233  -3.448  0.00  0.00    +0.156 C 
ATOM     14  C   UNL     1       4.107  -2.067  -4.319  0.00  0.00    +0.165 C 
ATOM     17  C   UNL     1       4.321  -0.835  -3.436  0.00  0.00    +0.204 C 
ATOM     21  O   UNL     1       5.264  -1.145  -2.407  0.00  0.00    -0.358 OA
ENDROOT
BRANCH   8   9
ATOM      9  O   UNL     1       5.901  -3.874  -2.920  0.00  0.00    -0.526 OA
ATOM     10  H   UNL     1       6.600  -4.045  -2.274  0.00  0.00    +0.382 HD
ENDBRANCH   8   9
BRANCH  11  12
ATOM     12  O   UNL     1       2.365  -2.908  -2.865  0.00  0.00    -0.533 OA
ATOM     13  H   UNL     1       2.005  -3.601  -2.295  0.00  0.00    +0.384 HD
ENDBRANCH  11  12
BRANCH  14  15
ATOM     15  O   UNL     1       5.338  -2.420  -4.955  0.00  0.00    -0.529 OA
ATOM     16  H   UNL     1       5.276  -3.197  -5.527  0.00  0.00    +0.378 HD
ENDBRANCH  14  15
BRANCH   7   6
ATOM      6  O   UNL     1       3.614  -1.836  -0.908  0.00  0.00    -0.352 OA
BRANCH   6   5
ATOM      5  C   UNL     1       3.711  -0.707  -0.038  0.00  0.00    +0.359 C 
BRANCH   5   4
ATOM      1  C   UNL     1      -0.017   1.378   0.010  0.00  0.00    +0.018 A 
ATOM      2  C   UNL     1       1.171   2.086   0.002  0.00  0.00    +0.005 A 
ATOM      3  C   UNL     1       2.377   1.411  -0.013  0.00  0.00    +0.036 A 
ATOM      4  C   UNL     1       2.396   0.029  -0.020  0.00  0.00    -0.096 A 
ATOM     24  C   UNL     1       1.208  -0.679  -0.012  0.00  0.00    +0.051 A 
ATOM     25  C   UNL     1       0.002  -0.004   0.002  0.00  0.00    +0.000 A 
ENDBRANCH   5   4
BRANCH   5  22
ATOM     22  C   UNL     1       4.036  -1.164   1.324  0.00  0.00    +0.183 C 
ATOM     23  N   UNL     1       4.287  -1.516   2.374  0.00  0.00    -0.402 NA
ENDBRANCH   5  22
ENDBRANCH   6   5
ENDBRANCH   7   6
BRANCH  17  18
ATOM     18  C   UNL     1       4.857   0.317  -4.289  0.00  0.00    +0.210 C 
BRANCH  18  19
ATOM     19  O   UNL     1       4.946   1.499  -3.491  0.00  0.00    -0.568 OA
ATOM     20  H   UNL     1       5.280   2.271  -3.967  0.00  0.00    +0.382 HD
ENDBRANCH  18  19
ENDBRANCH  17  18
TORSDOF 9
