REMARK  Name = ZINC03197457
REMARK  11 active torsions:
REMARK  status: ('A' for Active; 'I' for Inactive)
REMARK    1  A    between atoms: C1_1  and  C2_2
REMARK    2  A    between atoms: C2_2  and  O2_4
REMARK    3  A    between atoms: O2_4  and  C3_5
REMARK    4  A    between atoms: C6_9  and  C32_38
REMARK    5  A    between atoms: C8_12  and  C9_13
REMARK    6  A    between atoms: C8_12  and  C10_14
REMARK    7  A    between atoms: C13_17  and  C31_37
REMARK    8  A    between atoms: C18_23  and  C30_36
REMARK    9  A    between atoms: C21_26  and  C29_35
REMARK   10  A    between atoms: C24_30  and  C27_33
REMARK   11  A    between atoms: C24_30  and  C28_34
REMARK                            x       y       z     vdW  Elec       q    Type
REMARK                         _______ _______ _______ _____ _____    ______ ____
ROOT
ATOM      4  C   UNL     1       0.662  -2.087  -0.941  0.00  0.00    +0.181 C 
ATOM      5  C   UNL     1       2.075  -2.662  -0.967  0.00  0.00    +0.010 C 
ATOM      6  C   UNL     1       2.792  -2.138  -2.196  0.00  0.00    +0.019 C 
ATOM      7  C   UNL     1       2.096  -2.508  -3.514  0.00  0.00    -0.024 C 
ATOM      8  C   UNL     1       2.564  -1.379  -4.481  0.00  0.00    +0.011 C 
ATOM      9  C   UNL     1       0.597  -2.447  -3.457  0.00  0.00    +0.004 C 
ATOM     10  C   UNL     1      -0.106  -3.206  -4.577  0.00  0.00    +0.010 C 
ATOM     11  C   UNL     1       0.477  -4.588  -4.827  0.00  0.00    +0.019 C 
ATOM     12  C   UNL     1       1.965  -4.479  -5.152  0.00  0.00    -0.026 C 
ATOM     13  C   UNL     1       2.125  -3.647  -6.438  0.00  0.00    +0.016 C 
ATOM     14  C   UNL     1       2.522  -5.854  -5.516  0.00  0.00    -0.003 C 
ATOM     15  C   UNL     1       3.774  -5.594  -6.369  0.00  0.00    +0.018 C 
ATOM     16  C   UNL     1       1.512  -6.606  -6.382  0.00  0.00    +0.022 C 
ATOM     17  C   UNL     1       2.071  -7.973  -6.769  0.00  0.00    +0.009 C 
ATOM     18  C   UNL     1       2.254  -8.823  -5.508  0.00  0.00    -0.042 C 
ATOM     19  C   UNL     1       2.805 -10.193  -5.937  0.00  0.00    +0.016 C 
ATOM     20  C   UNL     1       3.235  -8.163  -4.549  0.00  0.00    +0.037 C 
ATOM     21  C   UNL     1       3.326  -8.925  -3.241  0.00  0.00    +0.017 C 
ATOM     22  C   UNL     1       2.011  -9.336  -2.608  0.00  0.00    -0.050 C 
ATOM     23  C   UNL     1       2.310 -10.443  -1.570  0.00  0.00    +0.007 C 
ATOM     24  C   UNL     1       1.354  -8.176  -1.855  0.00  0.00    +0.021 C 
ATOM     25  C   UNL     1       1.020  -9.910  -3.616  0.00  0.00    +0.010 C 
ATOM     26  C   UNL     1       0.894  -9.006  -4.836  0.00  0.00    +0.019 C 
ATOM     27  C   UNL     1       2.935  -6.696  -4.347  0.00  0.00    -0.088 C 
ATOM     28  C   UNL     1       3.115  -6.170  -3.172  0.00  0.00    -0.060 C 
ATOM     29  C   UNL     1       2.745  -4.772  -2.793  0.00  0.00    +0.054 C 
ATOM     30  C   UNL     1       2.702  -3.830  -4.000  0.00  0.00    +0.017 C 
ATOM     31  C   UNL     1      -0.130  -2.595  -2.141  0.00  0.00    -0.038 C 
ATOM     32  C   UNL     1      -0.588  -4.030  -1.871  0.00  0.00    +0.039 C 
ATOM     33  C   UNL     1      -1.415  -1.729  -2.213  0.00  0.00    +0.022 C 
ENDROOT
BRANCH   4   3
ATOM      3  O   UNL     1       0.719  -0.660  -0.972  0.00  0.00    -0.338 OA
BRANCH   3   2
ATOM      1  C   UNL     1       0.846   1.478   0.255  0.00  0.00    +0.149 C 
ATOM      2  C   UNL     1       0.783  -0.026   0.209  0.00  0.00    +0.456 C 
ATOM     34  O   UNL     1       0.791  -0.663   1.236  0.00  0.00    -0.514 OA
ENDBRANCH   3   2
ENDBRANCH   4   3
TORSDOF 2
