REMARK  Name = ZINC95486279
REMARK  16 active torsions:
REMARK  status: ('A' for Active; 'I' for Inactive)
REMARK    1  A    between atoms: C1_1  and  C2_2
REMARK    2  A    between atoms: C2_2  and  C3_3
REMARK    3  A    between atoms: C3_3  and  C4_5
REMARK    4  A    between atoms: C3_3  and  C32_51
REMARK    5  A    between atoms: C5_6  and  C6_7
REMARK    6  A    between atoms: C6_7  and  C7_9
REMARK    7  A    between atoms: C6_7  and  C8_10
REMARK    8  A    between atoms: C20_27  and  C31_50
REMARK    9  A    between atoms: C23_30  and  O1_33
REMARK   10  A    between atoms: O1_33  and  C25_34
REMARK   11  A    between atoms: C26_36  and  O6_49
REMARK   12  A    between atoms: C27_38  and  O5_48
REMARK   13  A    between atoms: C28_40  and  O4_47
REMARK   14  A    between atoms: C29_42  and  C30_45
REMARK   15  A    between atoms: C30_45  and  O3_46
REMARK   16  A    between atoms: C32_51  and  C34_53
REMARK                            x       y       z     vdW  Elec       q    Type
REMARK                         _______ _______ _______ _____ _____    ______ ____
ROOT
ATOM     10  C   UNL     1      -3.408  -4.654   1.279  0.00  0.00    -0.005 C 
ATOM     11  C   UNL     1      -4.080  -4.428  -0.099  0.00  0.00    +0.008 C 
ATOM     12  C   UNL     1      -4.368  -5.839  -0.681  0.00  0.00    +0.012 C 
ATOM     13  C   UNL     1      -3.339  -6.724   0.033  0.00  0.00    +0.037 C 
ATOM     14  C   UNL     1      -3.722  -8.178   0.149  0.00  0.00    -0.094 C 
ATOM     15  C   UNL     1      -3.993  -8.881  -0.906  0.00  0.00    -0.056 C 
ATOM     16  C   UNL     1      -4.329 -10.348  -0.810  0.00  0.00    +0.054 C 
ATOM     17  C   UNL     1      -3.565 -10.923   0.389  0.00  0.00    +0.010 C 
ATOM     18  C   UNL     1      -4.030 -10.170   1.696  0.00  0.00    -0.046 C 
ATOM     19  C   UNL     1      -3.262 -10.735   2.892  0.00  0.00    +0.022 C 
ATOM     20  C   UNL     1      -5.524 -10.406   1.933  0.00  0.00    +0.021 C 
ATOM     21  C   UNL     1      -5.791 -11.904   2.082  0.00  0.00    +0.019 C 
ATOM     22  C   UNL     1      -5.367 -12.624   0.800  0.00  0.00    +0.158 C 
ATOM     39  C   UNL     1      -3.847 -12.419   0.511  0.00  0.00    +0.030 C 
ATOM     40  C   UNL     1      -3.754  -8.686   1.594  0.00  0.00    +0.036 C 
ATOM     41  C   UNL     1      -2.469  -8.292   2.320  0.00  0.00    +0.019 C 
ATOM     42  C   UNL     1      -2.293  -6.762   2.301  0.00  0.00    +0.013 C 
ATOM     43  C   UNL     1      -3.412  -6.162   1.486  0.00  0.00    -0.019 C 
ENDROOT
BRANCH  10   9
ATOM      9  C   UNL     1      -1.973  -4.125   1.263  0.00  0.00    +0.020 C 
ATOM     44  C   UNL     1      -1.993  -2.596   1.210  0.00  0.00    +0.020 C 
BRANCH   9   8
ATOM      7  C   UNL     1      -0.179  -5.393   0.196  0.00  0.00    -0.044 C 
ATOM      8  C   UNL     1      -1.254  -4.659   0.050  0.00  0.00    -0.027 C 
BRANCH   7   3
ATOM      3  C   UNL     1       0.539  -5.927  -1.016  0.00  0.00    +0.053 C 
BRANCH   3   4
ATOM      4  C   UNL     1       0.560  -7.433  -0.965  0.00  0.00    -0.105 C 
ATOM      5  C   UNL     1       1.221  -8.139   0.191  0.00  0.00    +0.069 C 
ATOM      6  C   UNL     1       0.002  -8.129  -1.925  0.00  0.00    -0.008 C 
ENDBRANCH   3   4
BRANCH   3   2
ATOM      1  C   UNL     1       2.665  -5.837  -2.325  0.00  0.00    +0.009 C 
ATOM      2  C   UNL     1       1.974  -5.398  -1.033  0.00  0.00    +0.015 C 
ENDBRANCH   3   2
ENDBRANCH   7   3
ENDBRANCH   9   8
ENDBRANCH  10   9
BRANCH  22  23
ATOM     23  O   UNL     1      -5.627 -14.024   0.931  0.00  0.00    -0.365 OA
BRANCH  23  24
ATOM     24  C   UNL     1      -6.928 -14.417   0.490  0.00  0.00    +0.290 C 
ATOM     25  C   UNL     1      -7.050 -15.942   0.558  0.00  0.00    +0.133 C 
ATOM     28  C   UNL     1      -8.466 -16.351   0.142  0.00  0.00    +0.156 C 
ATOM     31  C   UNL     1      -9.478 -15.645   1.049  0.00  0.00    +0.165 C 
ATOM     34  C   UNL     1      -9.261 -14.132   0.962  0.00  0.00    +0.200 C 
ATOM     38  O   UNL     1      -7.917 -13.823   1.332  0.00  0.00    -0.367 OA
BRANCH  25  26
ATOM     26  O   UNL     1      -6.798 -16.382   1.894  0.00  0.00    -0.532 OA
ATOM     27  H   UNL     1      -5.919 -16.151   2.225  0.00  0.00    +0.387 HD
ENDBRANCH  25  26
BRANCH  28  29
ATOM     29  O   UNL     1      -8.694 -15.971  -1.217  0.00  0.00    -0.552 OA
ATOM     30  H   UNL     1      -8.083 -16.378  -1.847  0.00  0.00    +0.388 HD
ENDBRANCH  28  29
BRANCH  31  32
ATOM     32  O   UNL     1      -9.293 -16.078   2.398  0.00  0.00    -0.524 OA
ATOM     33  H   UNL     1      -9.411 -17.029   2.526  0.00  0.00    +0.378 HD
ENDBRANCH  31  32
BRANCH  34  35
ATOM     35  C   UNL     1     -10.229 -13.423   1.911  0.00  0.00    +0.213 C 
BRANCH  35  36
ATOM     36  O   UNL     1     -10.108 -12.009   1.745  0.00  0.00    -0.568 OA
ATOM     37  H   UNL     1     -10.694 -11.494   2.317  0.00  0.00    +0.381 HD
ENDBRANCH  35  36
ENDBRANCH  34  35
ENDBRANCH  23  24
ENDBRANCH  22  23
TORSDOF 12
