REMARK  Name = ZINC33833639
REMARK  10 active torsions:
REMARK  status: ('A' for Active; 'I' for Inactive)
REMARK    1  A    between atoms: C1_1  and  C2_2
REMARK    2  A    between atoms: C5_5  and  O3_37
REMARK    3  A    between atoms: C6_7  and  C29_35
REMARK    4  A    between atoms: C6_7  and  C30_36
REMARK    5  A    between atoms: C10_12  and  C28_34
REMARK    6  A    between atoms: C15_18  and  C27_33
REMARK    7  A    between atoms: C18_22  and  C26_31
REMARK    8  A    between atoms: C21_26  and  C24_29
REMARK    9  A    between atoms: C21_26  and  C25_30
REMARK   10  A    between atoms: C26_31  and  O2_32
REMARK                            x       y       z     vdW  Elec       q    Type
REMARK                         _______ _______ _______ _____ _____    ______ ____
ROOT
ATOM      1  C   UNL     1      -0.095   1.497  -0.330  0.00  0.00    +0.028 C 
ATOM      2  C   UNL     1      -0.065  -0.025  -0.287  0.00  0.00    -0.037 C 
ATOM      3  C   UNL     1      -1.529  -0.509  -0.272  0.00  0.00    +0.019 C 
ATOM      4  C   UNL     1      -2.220   0.021   0.982  0.00  0.00    -0.020 C 
ATOM      5  C   UNL     1      -1.555  -0.532   2.235  0.00  0.00    +0.165 C 
ATOM      8  C   UNL     1      -0.049  -0.270   2.271  0.00  0.00    -0.039 C 
ATOM      9  C   UNL     1       0.234   1.151   2.752  0.00  0.00    +0.035 C 
ATOM     10  C   UNL     1       0.528  -1.233   3.341  0.00  0.00    +0.017 C 
ATOM     11  C   UNL     1       0.606  -0.595  -1.549  0.00  0.00    +0.015 C 
ATOM     12  C   UNL     1       0.241  -2.090  -1.573  0.00  0.00    +0.059 C 
ATOM     13  C   UNL     1       0.996  -2.836  -2.621  0.00  0.00    -0.037 C 
ATOM     14  C   UNL     1       2.086  -2.405  -3.173  0.00  0.00    -0.115 C 
ATOM     15  C   UNL     1       2.715  -1.091  -2.819  0.00  0.00    +0.004 C 
ATOM     16  C   UNL     1       4.209  -1.293  -2.556  0.00  0.00    +0.034 C 
ATOM     17  C   UNL     1       2.597  -0.188  -4.051  0.00  0.00    +0.043 C 
ATOM     18  C   UNL     1       2.381  -1.021  -5.293  0.00  0.00    +0.362 C 
ATOM     19  C   UNL     1       3.002  -2.390  -5.472  0.00  0.00    -0.073 C 
ATOM     23  C   UNL     1       4.494  -2.233  -5.738  0.00  0.00    +0.048 C 
ATOM     24  C   UNL     1       5.158  -3.600  -5.833  0.00  0.00    +0.026 C 
ATOM     25  C   UNL     1       5.047  -4.377  -4.534  0.00  0.00    -0.054 C 
ATOM     26  C   UNL     1       5.173  -5.876  -4.872  0.00  0.00    +0.016 C 
ATOM     27  C   UNL     1       6.239  -4.009  -3.634  0.00  0.00    +0.021 C 
ATOM     28  C   UNL     1       3.769  -4.182  -3.764  0.00  0.00    +0.035 C 
ATOM     29  O   UNL     1       1.675  -0.573  -6.183  0.00  0.00    -0.443 OA
ATOM     30  C   UNL     1       2.725  -3.247  -4.257  0.00  0.00    +0.033 C 
ATOM     31  C   UNL     1       2.117  -0.434  -1.575  0.00  0.00    -0.025 C 
ATOM     32  C   UNL     1       2.543   1.045  -1.666  0.00  0.00    +0.022 C 
ATOM     33  C   UNL     1       2.731  -0.992  -0.290  0.00  0.00    +0.024 C 
ATOM     34  C   UNL     1       2.105  -0.294   0.932  0.00  0.00    +0.016 C 
ATOM     35  C   UNL     1       0.613  -0.596   0.948  0.00  0.00    +0.002 C 
ENDROOT
BRANCH   5   6
ATOM      6  O   UNL     1      -2.158   0.061   3.392  0.00  0.00    -0.565 OA
ATOM      7  H   UNL     1      -3.107  -0.110   3.472  0.00  0.00    +0.374 HD
ENDBRANCH   5   6
BRANCH  19  20
ATOM     20  C   UNL     1       2.339  -3.052  -6.699  0.00  0.00    +0.188 C 
BRANCH  20  21
ATOM     21  O   UNL     1       2.570  -2.248  -7.857  0.00  0.00    -0.556 OA
ATOM     22  H   UNL     1       2.181  -2.604  -8.667  0.00  0.00    +0.377 HD
ENDBRANCH  20  21
ENDBRANCH  19  20
TORSDOF 3
