REMARK  Name = ZINC02389301
REMARK  1 active torsions:
REMARK  status: ('A' for Active; 'I' for Inactive)
REMARK    1  A    between atoms: C8_10  and  C9_11
REMARK                            x       y       z     vdW  Elec       q    Type
REMARK                         _______ _______ _______ _____ _____    ______ ____
ROOT
ATOM      1  C   UNL     1       3.370   2.526  -0.016  0.00  0.00    +0.091 A 
ATOM      2  C   UNL     1       2.471   1.502  -0.013  0.00  0.00    -0.018 A 
ATOM      3  C   UNL     1       1.103   1.769   0.001  0.00  0.00    +0.124 A 
ATOM      4  C   UNL     1       0.652   3.104   0.012  0.00  0.00    -0.131 A 
ATOM      5  C   UNL     1       1.570   4.149   0.008  0.00  0.00    +0.128 A 
ATOM      6  C   UNL     1      -0.813   3.036   0.025  0.00  0.00    -0.042 A 
ATOM      7  C   UNL     1      -1.143   1.736   0.016  0.00  0.00    +0.222 A 
ATOM      8  N   UNL     1      -0.011   0.966   0.007  0.00  0.00    -0.592 N 
ATOM      9  H   UNL     1       0.002  -0.004   0.002  0.00  0.00    +0.419 HD
ATOM     10  C   UNL     1       2.935   3.861  -0.006  0.00  0.00    -0.223 A 
ENDROOT
BRANCH  10  11
ATOM     11  C   UNL     1       3.917   4.955  -0.009  0.00  0.00    +0.489 C 
ATOM     12  O   UNL     1       5.103   4.704  -0.021  0.00  0.00    -0.467 OA
ENDBRANCH  10  11
TORSDOF 1
