REMARK  Name = ZINC95486310
REMARK  6 active torsions:
REMARK  status: ('A' for Active; 'I' for Inactive)
REMARK    1  A    between atoms: C1_1  and  C2_2
REMARK    2  A    between atoms: C2_2  and  C19_23
REMARK    3  A    between atoms: C10_12  and  C17_21
REMARK    4  A    between atoms: C13_15  and  O1_20
REMARK    5  A    between atoms: C14_17  and  C15_18
REMARK    6  A    between atoms: C14_17  and  C16_19
REMARK                            x       y       z     vdW  Elec       q    Type
REMARK                         _______ _______ _______ _____ _____    ______ ____
ROOT
ATOM      1  C   UNL     1      -1.960   2.900   0.405  0.00  0.00    +0.029 C 
ATOM      2  C   UNL     1      -2.222   1.457  -0.031  0.00  0.00    -0.025 C 
ATOM      5  C   UNL     1      -3.604   1.007   0.433  0.00  0.00    +0.018 C 
ATOM      6  C   UNL     1      -3.716   1.008   1.957  0.00  0.00    +0.024 C 
ATOM      7  C   UNL     1      -2.681   0.044   2.544  0.00  0.00    +0.030 C 
ATOM      8  C   UNL     1      -1.326   0.426   2.041  0.00  0.00    -0.113 C 
ATOM      9  C   UNL     1      -0.320   0.671   2.820  0.00  0.00    -0.059 C 
ATOM     10  C   UNL     1      -0.424   0.612   4.319  0.00  0.00    +0.072 C 
ATOM     11  C   UNL     1      -1.502  -0.394   4.745  0.00  0.00    +0.021 C 
ATOM     12  C   UNL     1      -1.590  -0.407   6.266  0.00  0.00    -0.043 C 
ATOM     13  C   UNL     1      -2.256  -1.686   6.791  0.00  0.00    +0.029 C 
ATOM     14  C   UNL     1      -0.161  -0.418   6.860  0.00  0.00    +0.026 C 
ATOM     15  C   UNL     1      -2.298   0.815   6.836  0.00  0.00    +0.165 C 
ATOM     18  C   UNL     1      -3.596   1.144   6.116  0.00  0.00    -0.019 C 
ATOM     19  C   UNL     1      -3.370   1.265   4.612  0.00  0.00    +0.030 C 
ATOM     20  C   UNL     1      -2.814  -0.046   4.057  0.00  0.00    -0.037 C 
ATOM     21  C   UNL     1      -3.859  -1.152   4.286  0.00  0.00    +0.017 C 
ATOM     22  C   UNL     1      -1.137   0.540   0.539  0.00  0.00    +0.066 C 
ENDROOT
BRANCH   2   3
ATOM      3  C   UNL     1      -2.168   1.391  -1.542  0.00  0.00    -0.043 C 
ATOM      4  C   UNL     1      -1.927   2.475  -2.236  0.00  0.00    +0.000 C 
ENDBRANCH   2   3
BRANCH  15  16
ATOM     16  O   UNL     1      -1.423   1.947   6.807  0.00  0.00    -0.561 OA
ATOM     17  H   UNL     1      -1.787   2.737   7.231  0.00  0.00    +0.373 HD
ENDBRANCH  15  16
TORSDOF 2
