REMARK  Name = ZINC95486131
REMARK  14 active torsions:
REMARK  status: ('A' for Active; 'I' for Inactive)
REMARK    1  A    between atoms: C1_1  and  O1_2
REMARK    2  A    between atoms: O1_2  and  C2_3
REMARK    3  A    between atoms: C4_5  and  C15_28
REMARK    4  A    between atoms: C6_7  and  O8_26
REMARK    5  A    between atoms: C7_8  and  O2_9
REMARK    6  A    between atoms: O2_9  and  C8_10
REMARK    7  A    between atoms: C9_12  and  O7_25
REMARK    8  A    between atoms: C10_14  and  O6_24
REMARK    9  A    between atoms: C11_16  and  O5_23
REMARK   10  A    between atoms: C12_18  and  C13_21
REMARK   11  A    between atoms: C13_21  and  O4_22
REMARK   12  A    between atoms: O8_26  and  C14_27
REMARK   13  A    between atoms: C19_33  and  O12_40
REMARK   14  A    between atoms: C22_36  and  O11_39
REMARK                            x       y       z     vdW  Elec       q    Type
REMARK                         _______ _______ _______ _____ _____    ______ ____
ROOT
ATOM      3  C   UNL     1       0.606  -0.608  -1.057  0.00  0.00    +0.154 A 
ATOM      4  C   UNL     1       1.171   0.159  -2.059  0.00  0.00    -0.051 A 
ATOM      5  C   UNL     1       1.792  -0.462  -3.146  0.00  0.00    +0.011 A 
ATOM     21  C   UNL     1       1.839  -1.856  -3.217  0.00  0.00    -0.054 A 
ATOM     22  C   UNL     1       1.273  -2.618  -2.212  0.00  0.00    +0.177 A 
ATOM     25  C   UNL     1       0.660  -1.997  -1.127  0.00  0.00    +0.043 A 
ENDROOT
BRANCH   5   6
ATOM      6  C   UNL     1       2.394   0.354  -4.217  0.00  0.00    +0.204 A 
ATOM      7  C   UNL     1       2.987  -0.279  -5.267  0.00  0.00    -0.139 A 
ATOM      8  C   UNL     1       3.570   0.487  -6.303  0.00  0.00    +0.423 A 
ATOM      9  C   UNL     1       3.500   1.955  -6.183  0.00  0.00    -0.242 A 
ATOM     10  C   UNL     1       4.050   2.792  -7.160  0.00  0.00    +0.194 A 
ATOM     13  C   UNL     1       3.963   4.165  -7.010  0.00  0.00    -0.010 A 
ATOM     14  C   UNL     1       3.336   4.708  -5.900  0.00  0.00    +0.090 A 
ATOM     15  C   UNL     1       2.789   3.890  -4.927  0.00  0.00    +0.078 A 
ATOM     18  C   UNL     1       2.866   2.506  -5.059  0.00  0.00    +0.138 A 
ATOM     19  O   UNL     1       4.110  -0.046  -7.258  0.00  0.00    -0.448 OA
ATOM     20  O   UNL     1       2.333   1.691  -4.123  0.00  0.00    -0.209 OA
BRANCH  10  11
ATOM     11  O   UNL     1       4.665   2.261  -8.248  0.00  0.00    -0.473 OA
ATOM     12  H   UNL     1       4.073   2.105  -8.997  0.00  0.00    +0.402 HD
ENDBRANCH  10  11
BRANCH  15  16
ATOM     16  O   UNL     1       2.177   4.438  -3.843  0.00  0.00    -0.479 OA
ATOM     17  H   UNL     1       1.231   4.595  -3.963  0.00  0.00    +0.392 HD
ENDBRANCH  15  16
ENDBRANCH   5   6
BRANCH   3   2
ATOM      1  C   UNL     1      -0.017   1.425   0.010  0.00  0.00    +0.251 C 
ATOM      2  O   UNL     1       0.002  -0.004   0.002  0.00  0.00    -0.299 OA
ENDBRANCH   3   2
BRANCH  22  23
ATOM     23  O   UNL     1       1.319  -3.976  -2.280  0.00  0.00    -0.278 OA
ATOM     24  C   UNL     1       1.968  -4.546  -3.419  0.00  0.00    +0.246 C 
ENDBRANCH  22  23
BRANCH  25  26
ATOM     26  O   UNL     1       0.109  -2.748  -0.137  0.00  0.00    -0.284 OA
BRANCH  26  27
ATOM     27  C   UNL     1      -1.262  -3.119  -0.291  0.00  0.00    +0.294 C 
ATOM     28  C   UNL     1      -1.774  -3.737   1.013  0.00  0.00    +0.148 C 
ATOM     31  C   UNL     1      -3.225  -4.186   0.821  0.00  0.00    +0.163 C 
ATOM     34  C   UNL     1      -3.294  -5.167  -0.353  0.00  0.00    +0.170 C 
ATOM     37  C   UNL     1      -2.724  -4.493  -1.605  0.00  0.00    +0.187 C 
ATOM     41  O   UNL     1      -1.383  -4.072  -1.348  0.00  0.00    -0.364 OA
BRANCH  28  29
ATOM     29  O   UNL     1      -1.707  -2.767   2.060  0.00  0.00    -0.554 OA
ATOM     30  H   UNL     1      -0.815  -2.435   2.232  0.00  0.00    +0.396 HD
ENDBRANCH  28  29
BRANCH  31  32
ATOM     32  O   UNL     1      -3.688  -4.828   2.011  0.00  0.00    -0.555 OA
ATOM     33  H   UNL     1      -3.666  -4.265   2.796  0.00  0.00    +0.395 HD
ENDBRANCH  31  32
BRANCH  34  35
ATOM     35  O   UNL     1      -4.654  -5.537  -0.587  0.00  0.00    -0.551 OA
ATOM     36  H   UNL     1      -5.080  -5.966   0.168  0.00  0.00    +0.394 HD
ENDBRANCH  34  35
BRANCH  37  38
ATOM     38  C   UNL     1      -2.734  -5.487  -2.768  0.00  0.00    +0.225 C 
BRANCH  38  39
ATOM     39  O   UNL     1      -2.312  -4.825  -3.963  0.00  0.00    -0.565 OA
ATOM     40  H   UNL     1      -2.294  -5.396  -4.743  0.00  0.00    +0.382 HD
ENDBRANCH  38  39
ENDBRANCH  37  38
ENDBRANCH  26  27
ENDBRANCH  25  26
TORSDOF 12
