REMARK  Name = ZINC03871576
REMARK  4 active torsions:
REMARK  status: ('A' for Active; 'I' for Inactive)
REMARK    1  A    between atoms: C3_3  and  O5_20
REMARK    2  A    between atoms: C6_6  and  C7_7
REMARK    3  A    between atoms: C11_12  and  O4_19
REMARK    4  A    between atoms: C13_14  and  O3_18
REMARK                            x       y       z     vdW  Elec       q    Type
REMARK                         _______ _______ _______ _____ _____    ______ ____
ROOT
ATOM      9  C   UNL     1      -1.264  -0.761   0.011  0.00  0.00    +0.209 A 
ATOM     10  C   UNL     1      -1.213  -2.120   0.008  0.00  0.00    -0.148 A 
ATOM     11  C   UNL     1      -2.418  -2.863   0.017  0.00  0.00    +0.423 A 
ATOM     12  C   UNL     1      -3.681  -2.106   0.028  0.00  0.00    -0.266 A 
ATOM     13  C   UNL     1      -4.920  -2.759   0.037  0.00  0.00    +0.219 A 
ATOM     16  C   UNL     1      -6.083  -2.012   0.048  0.00  0.00    -0.055 A 
ATOM     17  C   UNL     1      -6.021  -0.623   0.049  0.00  0.00    +0.192 A 
ATOM     20  C   UNL     1      -4.798   0.030   0.040  0.00  0.00    -0.030 A 
ATOM     21  C   UNL     1      -3.621  -0.702   0.029  0.00  0.00    +0.183 A 
ATOM     22  O   UNL     1      -2.410  -4.084   0.016  0.00  0.00    -0.454 OA
ATOM     23  O   UNL     1      -2.422  -0.082   0.026  0.00  0.00    -0.218 OA
ENDROOT
BRANCH   9   8
ATOM      1  C   UNL     1      -0.017   1.394   0.010  0.00  0.00    +0.080 A 
ATOM      2  C   UNL     1       1.168   2.096   0.002  0.00  0.00    -0.010 A 
ATOM      3  C   UNL     1       2.380   1.418  -0.014  0.00  0.00    +0.136 A 
ATOM      6  C   UNL     1       2.404   0.028  -0.021  0.00  0.00    -0.006 A 
ATOM      7  C   UNL     1       1.224  -0.682  -0.013  0.00  0.00    +0.080 A 
ATOM      8  C   UNL     1       0.002  -0.004   0.002  0.00  0.00    -0.085 A 
BRANCH   3   4
ATOM      4  O   UNL     1       3.546   2.115  -0.022  0.00  0.00    -0.497 OA
ATOM      5  H   UNL     1       3.892   2.312   0.859  0.00  0.00    +0.398 HD
ENDBRANCH   3   4
ENDBRANCH   9   8
BRANCH  13  14
ATOM     14  O   UNL     1      -4.978  -4.115   0.036  0.00  0.00    -0.472 OA
ATOM     15  H   UNL     1      -4.987  -4.509   0.918  0.00  0.00    +0.403 HD
ENDBRANCH  13  14
BRANCH  17  18
ATOM     18  O   UNL     1      -7.170   0.101   0.059  0.00  0.00    -0.487 OA
ATOM     19  H   UNL     1      -7.495   0.310   0.946  0.00  0.00    +0.404 HD
ENDBRANCH  17  18
TORSDOF 4
