REMARK  Name = ZINC14594077
REMARK  15 active torsions:
REMARK  status: ('A' for Active; 'I' for Inactive)
REMARK    1  A    between atoms: C1_1  and  C2_2
REMARK    2  A    between atoms: C2_2  and  C26_32
REMARK    3  A    between atoms: C3_3  and  C4_4
REMARK    4  A    between atoms: C4_4  and  C5_5
REMARK    5  A    between atoms: C6_6  and  O6_31
REMARK    6  A    between atoms: C7_7  and  C20_24
REMARK    7  A    between atoms: C7_7  and  O5_29
REMARK    8  A    between atoms: C9_10  and  C11_13
REMARK    9  A    between atoms: C9_10  and  O4_23
REMARK   10  A    between atoms: C11_13  and  C12_15
REMARK   11  A    between atoms: C13_16  and  C14_17
REMARK   12  A    between atoms: C20_24  and  C21_25
REMARK   13  A    between atoms: C22_26  and  C23_27
REMARK   14  A    between atoms: C22_26  and  C24_28
REMARK   15  A    between atoms: O5_29  and  C25_30
REMARK                            x       y       z     vdW  Elec       q    Type
REMARK                         _______ _______ _______ _____ _____    ______ ____
ROOT
ATOM      6  C   UNL     1       2.620   1.697   2.633  0.00  0.00    -0.257 C 
ATOM      7  C   UNL     1       3.494   0.829   2.102  0.00  0.00    +0.165 C 
ATOM     10  C   UNL     1       4.377  -0.038   2.962  0.00  0.00    +0.089 C 
ATOM     18  C   UNL     1       3.715  -0.201   4.315  0.00  0.00    +0.364 C 
ATOM     19  C   UNL     1       3.233   1.059   5.005  0.00  0.00    +0.002 C 
ATOM     32  O   UNL     1       3.579  -1.289   4.822  0.00  0.00    -0.367 OA
ATOM     33  C   UNL     1       2.426   1.855   4.009  0.00  0.00    +0.407 C 
ATOM     34  O   UNL     1       1.595   2.646   4.409  0.00  0.00    -0.426 OA
ENDROOT
BRANCH   7   8
ATOM      8  O   UNL     1       3.589   0.733   0.762  0.00  0.00    -0.423 OA
ATOM      9  H   UNL     1       4.279   0.048   0.525  0.00  0.00    +0.407 HD
ENDBRANCH   7   8
BRANCH  10  11
ATOM     11  O   UNL     1       4.534  -1.319   2.348  0.00  0.00    -0.341 OA
ATOM     12  C   UNL     1       3.304  -2.015   2.132  0.00  0.00    +0.223 C 
ENDBRANCH  10  11
BRANCH  19  20
ATOM     20  O   UNL     1       2.414   0.714   6.124  0.00  0.00    -0.503 OA
ATOM     21  H   UNL     1       2.054   1.476   6.598  0.00  0.00    +0.398 HD
ENDBRANCH  19  20
BRANCH  19  22
ATOM     22  C   UNL     1       4.414   1.871   5.469  0.00  0.00    +0.382 C 
ATOM     31  O   UNL     1       4.825   2.789   4.788  0.00  0.00    -0.428 OA
BRANCH  22  23
ATOM     23  C   UNL     1       5.042   1.566   6.694  0.00  0.00    -0.120 C 
ATOM     24  C   UNL     1       6.103   2.295   7.111  0.00  0.00    +0.174 C 
BRANCH  24  25
ATOM     25  C   UNL     1       6.758   1.977   8.389  0.00  0.00    -0.099 A 
ATOM     26  C   UNL     1       6.283   0.924   9.179  0.00  0.00    +0.043 A 
ATOM     27  C   UNL     1       6.906   0.629  10.373  0.00  0.00    +0.005 A 
ATOM     28  C   UNL     1       7.991   1.377  10.796  0.00  0.00    +0.032 A 
ATOM     29  C   UNL     1       8.463   2.424  10.023  0.00  0.00    +0.004 A 
ATOM     30  C   UNL     1       7.855   2.729   8.823  0.00  0.00    +0.047 A 
ENDBRANCH  24  25
ENDBRANCH  22  23
ENDBRANCH  19  22
BRANCH   6   5
ATOM      5  C   UNL     1       1.798   2.543   1.695  0.00  0.00    +0.143 C 
BRANCH   5   4
ATOM      1  C   UNL     1      -1.965   1.818   1.533  0.00  0.00    +0.072 C 
ATOM      2  C   UNL     1      -0.642   2.534   1.616  0.00  0.00    -0.123 C 
ATOM      3  C   UNL     1      -0.602   4.014   1.900  0.00  0.00    +0.074 C 
ATOM      4  C   UNL     1       0.474   1.870   1.441  0.00  0.00    -0.060 C 
ENDBRANCH   5   4
ENDBRANCH   6   5
BRANCH  10  13
ATOM     13  C   UNL     1       5.747   0.620   3.136  0.00  0.00    +0.119 C 
BRANCH  13  14
ATOM     14  C   UNL     1       6.447   0.681   1.803  0.00  0.00    -0.069 C 
ATOM     15  C   UNL     1       6.851   1.833   1.327  0.00  0.00    -0.096 C 
ATOM     16  C   UNL     1       7.456   1.908  -0.051  0.00  0.00    +0.082 C 
ATOM     17  C   UNL     1       6.710   3.082   2.158  0.00  0.00    +0.080 C 
ENDBRANCH  13  14
ENDBRANCH  10  13
TORSDOF 10
