REMARK  Name = ZINC03978987
REMARK  6 active torsions:
REMARK  status: ('A' for Active; 'I' for Inactive)
REMARK    1  A    between atoms: C1_1  and  C2_2
REMARK    2  A    between atoms: C2_2  and  C23_31
REMARK    3  A    between atoms: C15_18  and  O5_28
REMARK    4  A    between atoms: C16_19  and  O4_26
REMARK    5  A    between atoms: O4_26  and  C21_27
REMARK    6  A    between atoms: O5_28  and  C22_29
REMARK                            x       y       z     vdW  Elec       q    Type
REMARK                         _______ _______ _______ _____ _____    ______ ____
ROOT
ATOM      1  C   UNL     1      -0.019   1.526   0.010  0.00  0.00    +0.085 C 
ATOM      2  C   UNL     1       0.002  -0.004   0.002  0.00  0.00    +0.146 C 
ATOM      3  C   UNL     1       0.730  -0.492  -1.252  0.00  0.00    +0.036 C 
ATOM      4  C   UNL     1      -1.413  -0.520  -0.014  0.00  0.00    -0.059 C 
ATOM      5  C   UNL     1      -1.695  -1.705   0.525  0.00  0.00    +0.063 C 
ATOM      6  C   UNL     1      -0.588  -2.470   1.138  0.00  0.00    -0.180 A 
ATOM      7  C   UNL     1       0.604  -1.796   1.441  0.00  0.00    +0.207 A 
ATOM      8  C   UNL     1       1.667  -2.479   2.018  0.00  0.00    -0.043 A 
ATOM      9  C   UNL     1       1.556  -3.825   2.291  0.00  0.00    +0.161 A 
ATOM     10  C   UNL     1       0.372  -4.507   1.993  0.00  0.00    -0.281 A 
ATOM     11  C   UNL     1       0.243  -5.945   2.268  0.00  0.00    +0.422 C 
ATOM     12  O   UNL     1       1.207  -6.623   2.557  0.00  0.00    -0.440 OA
ATOM     13  C   UNL     1      -1.128  -6.545   2.167  0.00  0.00    +0.009 C 
ATOM     14  C   UNL     1      -1.905  -6.291   3.446  0.00  0.00    -0.155 A 
ATOM     15  C   UNL     1      -1.245  -6.400   4.660  0.00  0.00    +0.007 A 
ATOM     16  C   UNL     1      -1.923  -6.177   5.846  0.00  0.00    +0.076 A 
ATOM     19  C   UNL     1      -3.273  -5.843   5.819  0.00  0.00    +0.145 A 
ATOM     22  C   UNL     1      -3.931  -5.733   4.607  0.00  0.00    -0.054 A 
ATOM     23  C   UNL     1      -3.248  -5.955   3.416  0.00  0.00    +0.156 A 
ATOM     24  O   UNL     1      -3.929  -5.833   2.245  0.00  0.00    -0.299 OA
ATOM     25  C   UNL     1      -3.341  -6.371   1.060  0.00  0.00    +0.297 C 
ATOM     26  C   UNL     1      -1.879  -5.893   0.998  0.00  0.00    +0.173 C 
ATOM     27  O   UNL     1      -1.873  -4.474   1.155  0.00  0.00    -0.288 OA
ATOM     28  C   UNL     1      -0.717  -3.829   1.418  0.00  0.00    +0.234 A 
ATOM     29  O   UNL     1       0.694  -0.472   1.160  0.00  0.00    -0.297 OA
ENDROOT
BRANCH  16  17
ATOM     17  O   UNL     1      -1.270  -6.283   7.035  0.00  0.00    -0.303 OA
ATOM     18  C   UNL     1       0.116  -6.629   6.986  0.00  0.00    +0.238 C 
ENDBRANCH  16  17
BRANCH  19  20
ATOM     20  O   UNL     1      -3.945  -5.625   6.981  0.00  0.00    -0.299 OA
ATOM     21  C   UNL     1      -5.329  -5.287   6.877  0.00  0.00    +0.243 C 
ENDBRANCH  19  20
TORSDOF 2
