REMARK  Name = ZINC34729381
REMARK  8 active torsions:
REMARK  status: ('A' for Active; 'I' for Inactive)
REMARK    1  A    between atoms: C1_1  and  C2_2
REMARK    2  A    between atoms: C3_4  and  O7_33
REMARK    3  A    between atoms: C4_6  and  O6_32
REMARK    4  A    between atoms: C6_9  and  C7_12
REMARK    5  A    between atoms: C8_13  and  O5_30
REMARK    6  A    between atoms: C12_17  and  O2_18
REMARK    7  A    between atoms: C15_22  and  C16_24
REMARK    8  A    between atoms: O5_30  and  C22_31
REMARK                            x       y       z     vdW  Elec       q    Type
REMARK                         _______ _______ _______ _____ _____    ______ ____
ROOT
ATOM     11  C   UNL     1       1.560  -2.284   2.478  0.00  0.00    -0.179 A 
ATOM     12  C   UNL     1       2.554  -3.254   2.406  0.00  0.00    +0.221 A 
ATOM     15  C   UNL     1       3.269  -3.617   3.537  0.00  0.00    -0.096 A 
ATOM     16  C   UNL     1       2.997  -3.013   4.754  0.00  0.00    +0.210 A 
ATOM     17  C   UNL     1       1.992  -2.032   4.829  0.00  0.00    -0.294 A 
ATOM     18  C   UNL     1       1.720  -1.404   6.133  0.00  0.00    +0.425 A 
ATOM     19  C   UNL     1       2.497  -1.833   7.237  0.00  0.00    -0.144 A 
ATOM     20  C   UNL     1       3.445  -2.789   7.058  0.00  0.00    +0.203 A 
ATOM     27  O   UNL     1       0.860  -0.547   6.257  0.00  0.00    -0.455 OA
ATOM     28  O   UNL     1       3.683  -3.355   5.865  0.00  0.00    -0.219 OA
ATOM     29  C   UNL     1       1.277  -1.666   3.682  0.00  0.00    +0.267 A 
ENDROOT
BRANCH  11  10
ATOM      1  C   UNL     1      -0.019   1.526   0.010  0.00  0.00    +0.057 C 
ATOM      2  C   UNL     1       0.002  -0.004   0.002  0.00  0.00    +0.134 C 
ATOM      3  C   UNL     1      -1.434  -0.534   0.014  0.00  0.00    +0.162 C 
ATOM      6  C   UNL     1      -1.405  -2.065   0.066  0.00  0.00    +0.180 C 
ATOM      9  C   UNL     1      -0.612  -2.507   1.299  0.00  0.00    -0.012 C 
ATOM     10  C   UNL     1       0.793  -1.901   1.238  0.00  0.00    +0.238 C 
ATOM     32  O   UNL     1       0.693  -0.478   1.160  0.00  0.00    -0.352 OA
BRANCH   3   4
ATOM      4  O   UNL     1      -2.110  -0.109  -1.172  0.00  0.00    -0.550 OA
ATOM      5  H   UNL     1      -2.161   0.852  -1.272  0.00  0.00    +0.378 HD
ENDBRANCH   3   4
BRANCH   6   7
ATOM      7  O   UNL     1      -0.778  -2.571  -1.114  0.00  0.00    -0.551 OA
ATOM      8  H   UNL     1      -0.725  -3.537  -1.148  0.00  0.00    +0.378 HD
ENDBRANCH   6   7
ENDBRANCH  11  10
BRANCH  20  21
ATOM     21  C   UNL     1       4.244  -3.223   8.222  0.00  0.00    -0.073 A 
ATOM     22  C   UNL     1       4.017  -2.658   9.479  0.00  0.00    +0.055 A 
ATOM     23  C   UNL     1       4.767  -3.068  10.561  0.00  0.00    +0.014 A 
ATOM     24  C   UNL     1       5.744  -4.036  10.404  0.00  0.00    +0.037 A 
ATOM     25  C   UNL     1       5.974  -4.600   9.162  0.00  0.00    +0.009 A 
ATOM     26  C   UNL     1       5.227  -4.204   8.072  0.00  0.00    +0.054 A 
ENDBRANCH  20  21
BRANCH  12  13
ATOM     13  O   UNL     1       2.826  -3.851   1.218  0.00  0.00    -0.299 OA
ATOM     14  C   UNL     1       3.859  -4.839   1.210  0.00  0.00    +0.256 C 
ENDBRANCH  12  13
BRANCH  29  30
ATOM     30  O   UNL     1       0.311  -0.716   3.752  0.00  0.00    -0.451 OA
ATOM     31  H   UNL     1      -0.569  -1.063   3.952  0.00  0.00    +0.396 HD
ENDBRANCH  29  30
TORSDOF 6
