REMARK  Name = ZINC01535009
REMARK  15 active torsions:
REMARK  status: ('A' for Active; 'I' for Inactive)
REMARK    1  A    between atoms: C1_1  and  C2_2
REMARK    2  A    between atoms: C2_2  and  N3_58
REMARK    3  A    between atoms: C3_3  and  C4_4
REMARK    4  A    between atoms: C3_3  and  N3_58
REMARK    5  A    between atoms: C5_5  and  C6_6
REMARK    6  A    between atoms: C5_5  and  N3_58
REMARK    7  A    between atoms: C6_6  and  C7_7
REMARK    8  A    between atoms: C7_7  and  C8_8
REMARK    9  A    between atoms: C8_8  and  C9_9
REMARK   10  A    between atoms: C9_9  and  C10_10
REMARK   11  A    between atoms: C10_10  and  N1_11
REMARK   12  A    between atoms: N1_11  and  C11_12
REMARK   13  A    between atoms: C13_14  and  O1_23
REMARK   14  A    between atoms: C19_21  and  C20_22
REMARK   15  A    between atoms: O1_23  and  C21_24
REMARK                            x       y       z     vdW  Elec       q    Type
REMARK                         _______ _______ _______ _____ _____    ______ ____
ROOT
ATOM     11  N   UNL     1      -1.196  -0.731   0.022  0.00  0.00    -0.727 N 
ATOM     12  H   UNL     1      -1.182  -1.700  -0.000  0.00  0.00    +0.412 HD
ENDROOT
BRANCH  11  13
ATOM     13  C   UNL     1       0.002  -0.017   0.030  0.00  0.00    +0.281 A 
ATOM     14  C   UNL     1      -0.014   1.359   0.062  0.00  0.00    -0.156 A 
ATOM     15  C   UNL     1       1.177   2.088   0.070  0.00  0.00    +0.183 A 
ATOM     18  C   UNL     1       2.394   1.445   0.044  0.00  0.00    -0.071 A 
ATOM     19  C   UNL     1       2.441   0.043   0.012  0.00  0.00    -0.019 A 
ATOM     20  C   UNL     1       3.670  -0.645  -0.014  0.00  0.00    -0.043 A 
ATOM     21  C   UNL     1       4.977   0.103  -0.008  0.00  0.00    +0.111 C 
ATOM     22  C   UNL     1       3.643  -2.010  -0.046  0.00  0.00    -0.018 A 
ATOM     23  C   UNL     1       2.422  -2.682  -0.052  0.00  0.00    +0.265 A 
ATOM     24  N   UNL     1       1.281  -2.037  -0.028  0.00  0.00    -0.468 NA
ATOM     25  C   UNL     1       1.237  -0.702   0.004  0.00  0.00    +0.053 A 
BRANCH  15  16
ATOM     16  O   UNL     1       1.134   3.446   0.102  0.00  0.00    -0.311 OA
ATOM     17  C   UNL     1      -0.159   4.054   0.126  0.00  0.00    +0.238 C 
ENDBRANCH  15  16
ENDBRANCH  11  13
BRANCH  11  10
ATOM     10  C   UNL     1      -2.475  -0.017   0.049  0.00  0.00    +0.244 C 
BRANCH  10   9
ATOM      9  C   UNL     1      -3.623  -1.027   0.034  0.00  0.00    +0.014 C 
BRANCH   9   8
ATOM      8  C   UNL     1      -4.959  -0.282   0.062  0.00  0.00    +0.023 C 
BRANCH   8   7
ATOM      7  C   UNL     1      -6.108  -1.292   0.047  0.00  0.00    +0.033 C 
BRANCH   7   6
ATOM      6  C   UNL     1      -7.443  -0.547   0.075  0.00  0.00    +0.024 C 
BRANCH   6   5
ATOM      5  C   UNL     1      -8.592  -1.557   0.060  0.00  0.00    +0.252 C 
BRANCH   5   3
ATOM      3  N   UNL     1      -9.866  -0.828   0.230  0.00  0.00    -0.398 N 
ATOM      4  H   UNL     1      -9.744  -0.105   0.949  0.00  0.00    +0.425 HD
BRANCH   3   2
ATOM      1  C   UNL     1     -11.443   0.744  -0.783  0.00  0.00    +0.076 C 
ATOM      2  C   UNL     1     -10.252  -0.180  -1.041  0.00  0.00    +0.249 C 
ENDBRANCH   3   2
BRANCH   3  26
ATOM     26  C   UNL     1     -10.928  -1.761   0.663  0.00  0.00    +0.249 C 
ATOM     27  C   UNL     1     -10.743  -2.056   2.153  0.00  0.00    +0.076 C 
ENDBRANCH   3  26
ENDBRANCH   5   3
ENDBRANCH   6   5
ENDBRANCH   7   6
ENDBRANCH   8   7
ENDBRANCH   9   8
ENDBRANCH  10   9
ENDBRANCH  11  10
TORSDOF 11
