REMARK  Name = ZINC95485923
REMARK  8 active torsions:
REMARK  status: ('A' for Active; 'I' for Inactive)
REMARK    1  A    between atoms: C1_1  and  O1_2
REMARK    2  A    between atoms: O1_2  and  C2_3
REMARK    3  A    between atoms: C3_4  and  O7_29
REMARK    4  A    between atoms: C9_11  and  C11_14
REMARK    5  A    between atoms: C12_16  and  O6_27
REMARK    6  A    between atoms: C14_20  and  O5_25
REMARK    7  A    between atoms: O5_25  and  C17_26
REMARK    8  A    between atoms: O6_27  and  C18_28
REMARK                            x       y       z     vdW  Elec       q    Type
REMARK                         _______ _______ _______ _____ _____    ______ ____
ROOT
ATOM      3  C   UNL     1       0.607  -0.608  -1.057  0.00  0.00    +0.042 A 
ATOM      4  C   UNL     1      -0.132  -0.921  -2.191  0.00  0.00    +0.122 A 
ATOM      7  C   UNL     1       0.488  -1.535  -3.268  0.00  0.00    -0.021 A 
ATOM      8  C   UNL     1       1.835  -1.831  -3.213  0.00  0.00    +0.067 A 
ATOM      9  C   UNL     1       2.577  -1.521  -2.084  0.00  0.00    -0.157 A 
ATOM     10  C   UNL     1       4.047  -1.858  -2.068  0.00  0.00    +0.106 C 
ATOM     11  C   UNL     1       4.566  -1.837  -0.632  0.00  0.00    -0.024 C 
ATOM     24  C   UNL     1       4.082  -0.549   0.045  0.00  0.00    +0.251 C 
ATOM     25  O   UNL     1       2.657  -0.589   0.123  0.00  0.00    -0.294 OA
ATOM     26  C   UNL     1       1.967  -0.906  -1.005  0.00  0.00    +0.129 A 
ENDROOT
BRANCH  11  12
ATOM     12  C   UNL     1       6.096  -1.876  -0.632  0.00  0.00    +0.001 C 
ATOM     13  C   UNL     1       6.612  -1.846   0.812  0.00  0.00    +0.156 C 
ATOM     16  C   UNL     1       6.285  -3.168   1.468  0.00  0.00    +0.314 C 
ATOM     17  C   UNL     1       6.760  -4.445   0.813  0.00  0.00    +0.163 C 
ATOM     20  C   UNL     1       6.244  -4.475  -0.632  0.00  0.00    +0.068 C 
ATOM     21  O   UNL     1       5.655  -3.204   2.498  0.00  0.00    -0.406 OA
ATOM     22  C   UNL     1       6.571  -3.151  -1.292  0.00  0.00    +0.376 C 
ATOM     23  O   UNL     1       7.200  -3.112  -2.322  0.00  0.00    -0.421 OA
BRANCH  13  14
ATOM     14  O   UNL     1       8.027  -1.644   0.812  0.00  0.00    -0.363 OA
ATOM     15  C   UNL     1       8.515  -0.950   1.962  0.00  0.00    +0.222 C 
ENDBRANCH  13  14
BRANCH  17  18
ATOM     18  O   UNL     1       6.252  -5.571   1.531  0.00  0.00    -0.360 OA
ATOM     19  C   UNL     1       7.107  -6.024   2.582  0.00  0.00    +0.217 C 
ENDBRANCH  17  18
ENDBRANCH  11  12
BRANCH   3   2
ATOM      1  C   UNL     1      -0.017   1.425   0.010  0.00  0.00    +0.219 C 
ATOM      2  O   UNL     1       0.002  -0.004   0.002  0.00  0.00    -0.315 OA
ENDBRANCH   3   2
BRANCH   4   5
ATOM      5  O   UNL     1      -1.458  -0.627  -2.243  0.00  0.00    -0.482 OA
ATOM      6  H   UNL     1      -1.653   0.250  -2.600  0.00  0.00    +0.390 HD
ENDBRANCH   4   5
TORSDOF 5
