REMARK  Name = ZINC95486257
REMARK  16 active torsions:
REMARK  status: ('A' for Active; 'I' for Inactive)
REMARK    1  A    between atoms: C3_3  and  O11_39
REMARK    2  A    between atoms: C4_4  and  O10_38
REMARK    3  A    between atoms: C6_6  and  C7_7
REMARK    4  A    between atoms: C8_8  and  C9_9
REMARK    5  A    between atoms: C9_9  and  C10_10
REMARK    6  A    between atoms: C10_10  and  C11_11
REMARK    7  A    between atoms: C10_10  and  O4_21
REMARK    8  A    between atoms: C11_11  and  C12_12
REMARK    9  A    between atoms: C15_15  and  O2_19
REMARK   10  A    between atoms: C16_16  and  O1_18
REMARK   11  A    between atoms: O4_21  and  C18_22
REMARK   12  A    between atoms: C19_24  and  O9_37
REMARK   13  A    between atoms: C20_26  and  O8_36
REMARK   14  A    between atoms: C21_28  and  O7_35
REMARK   15  A    between atoms: C22_30  and  C23_33
REMARK   16  A    between atoms: C23_33  and  O6_34
REMARK                            x       y       z     vdW  Elec       q    Type
REMARK                         _______ _______ _______ _____ _____    ______ ____
ROOT
ATOM     14  C   UNL     1      -4.319  -1.731  -1.214  0.00  0.00    +0.156 C 
ENDROOT
BRANCH  14  15
ATOM     15  C   UNL     1      -5.554  -2.592  -1.270  0.00  0.00    +0.381 C 
ATOM     16  O   UNL     1      -6.635  -2.122  -0.983  0.00  0.00    -0.405 OA
BRANCH  15  17
ATOM     17  C   UNL     1      -5.450  -4.000  -1.672  0.00  0.00    -0.156 A 
ATOM     18  C   UNL     1      -4.203  -4.547  -1.998  0.00  0.00    +0.064 A 
ATOM     19  C   UNL     1      -4.108  -5.868  -2.375  0.00  0.00    +0.003 A 
ATOM     20  C   UNL     1      -5.247  -6.661  -2.433  0.00  0.00    +0.115 A 
ATOM     23  C   UNL     1      -6.493  -6.124  -2.109  0.00  0.00    +0.072 A 
ATOM     26  C   UNL     1      -6.597  -4.802  -1.724  0.00  0.00    +0.079 A 
BRANCH  20  21
ATOM     21  O   UNL     1      -5.147  -7.963  -2.805  0.00  0.00    -0.485 OA
ATOM     22  H   UNL     1      -4.999  -8.572  -2.069  0.00  0.00    +0.394 HD
ENDBRANCH  20  21
BRANCH  23  24
ATOM     24  O   UNL     1      -7.606  -6.904  -2.167  0.00  0.00    -0.483 OA
ATOM     25  H   UNL     1      -7.808  -7.362  -1.339  0.00  0.00    +0.390 HD
ENDBRANCH  23  24
ENDBRANCH  15  17
ENDBRANCH  14  15
BRANCH  14  13
ATOM     13  C   UNL     1      -3.499  -2.095   0.025  0.00  0.00    +0.225 C 
BRANCH  13  12
ATOM     11  C   UNL     1      -1.227  -0.738   0.010  0.00  0.00    -0.128 C 
ATOM     12  C   UNL     1      -2.235  -1.340   0.017  0.00  0.00    -0.148 C 
BRANCH  11  10
ATOM      1  C   UNL     1      -0.017   1.391   0.010  0.00  0.00    +0.049 A 
ATOM      2  C   UNL     1       1.169   2.097   0.002  0.00  0.00    +0.013 A 
ATOM      3  C   UNL     1       2.380   1.424  -0.013  0.00  0.00    +0.092 A 
ATOM      6  C   UNL     1       2.406   0.031  -0.021  0.00  0.00    +0.084 A 
ATOM      9  C   UNL     1       1.222  -0.683  -0.013  0.00  0.00    +0.030 A 
ATOM     10  C   UNL     1       0.002  -0.004   0.002  0.00  0.00    +0.024 A 
BRANCH   3   4
ATOM      4  O   UNL     1       3.546   2.124  -0.022  0.00  0.00    -0.486 OA
ATOM      5  H   UNL     1       3.892   2.322   0.859  0.00  0.00    +0.391 HD
ENDBRANCH   3   4
BRANCH   6   7
ATOM      7  O   UNL     1       3.596  -0.627  -0.037  0.00  0.00    -0.485 OA
ATOM      8  H   UNL     1       3.950  -0.822   0.842  0.00  0.00    +0.390 HD
ENDBRANCH   6   7
ENDBRANCH  11  10
ENDBRANCH  13  12
ENDBRANCH  14  13
BRANCH  14  27
ATOM     27  O   UNL     1      -4.700  -0.355  -1.145  0.00  0.00    -0.332 OA
BRANCH  27  28
ATOM     28  C   UNL     1      -4.843   0.272  -2.421  0.00  0.00    +0.290 C 
ATOM     29  C   UNL     1      -5.004   1.783  -2.232  0.00  0.00    +0.147 C 
ATOM     32  C   UNL     1      -5.218   2.441  -3.599  0.00  0.00    +0.162 C 
ATOM     35  C   UNL     1      -6.437   1.806  -4.274  0.00  0.00    +0.171 C 
ATOM     38  C   UNL     1      -6.221   0.295  -4.384  0.00  0.00    +0.190 C 
ATOM     42  O   UNL     1      -5.997  -0.250  -3.082  0.00  0.00    -0.370 OA
BRANCH  29  30
ATOM     30  O   UNL     1      -3.827   2.316  -1.622  0.00  0.00    -0.553 OA
ATOM     31  H   UNL     1      -3.629   1.940  -0.754  0.00  0.00    +0.394 HD
ENDBRANCH  29  30
BRANCH  32  33
ATOM     33  O   UNL     1      -5.440   3.842  -3.425  0.00  0.00    -0.555 OA
ATOM     34  H   UNL     1      -4.708   4.306  -2.997  0.00  0.00    +0.395 HD
ENDBRANCH  32  33
BRANCH  35  36
ATOM     36  O   UNL     1      -6.604   2.363  -5.580  0.00  0.00    -0.550 OA
ATOM     37  H   UNL     1      -6.741   3.320  -5.585  0.00  0.00    +0.395 HD
ENDBRANCH  35  36
BRANCH  38  39
ATOM     39  C   UNL     1      -7.460  -0.354  -5.004  0.00  0.00    +0.225 C 
BRANCH  39  40
ATOM     40  O   UNL     1      -7.213  -1.746  -5.214  0.00  0.00    -0.566 OA
ATOM     41  H   UNL     1      -7.958  -2.223  -5.606  0.00  0.00    +0.384 HD
ENDBRANCH  39  40
ENDBRANCH  38  39
ENDBRANCH  27  28
ENDBRANCH  14  27
TORSDOF 16
