REMARK  Name = ZINC95485887
REMARK  17 active torsions:
REMARK  status: ('A' for Active; 'I' for Inactive)
REMARK    1  A    between atoms: C1_1  and  N1_2
REMARK    2  A    between atoms: C6_7  and  O6_50
REMARK    3  A    between atoms: C7_8  and  C19_22
REMARK    4  A    between atoms: C10_11  and  C11_13
REMARK    5  A    between atoms: C11_13  and  C12_14
REMARK    6  A    between atoms: C17_19  and  O1_20
REMARK    7  A    between atoms: O1_20  and  C18_21
REMARK    8  A    between atoms: C19_22  and  C20_23
REMARK    9  A    between atoms: C24_27  and  O3_31
REMARK   10  A    between atoms: C25_28  and  O2_29
REMARK   11  A    between atoms: O2_29  and  C26_30
REMARK   12  A    between atoms: O3_31  and  C27_32
REMARK   13  A    between atoms: C31_37  and  O5_48
REMARK   14  A    between atoms: C32_38  and  O4_47
REMARK   15  A    between atoms: N2_45  and  C38_46
REMARK   16  A    between atoms: O5_48  and  C39_49
REMARK   17  A    between atoms: O6_50  and  C40_51
REMARK                            x       y       z     vdW  Elec       q    Type
REMARK                         _______ _______ _______ _____ _____    ______ ____
ROOT
ATOM     13  C   UNL     1       0.255  -5.274   4.498  0.00  0.00    -0.070 A 
ATOM     14  C   UNL     1      -0.868  -4.586   4.958  0.00  0.00    -0.051 A 
ATOM     15  C   UNL     1      -2.081  -5.212   5.019  0.00  0.00    -0.114 A 
ATOM     16  C   UNL     1      -3.368  -4.593   5.459  0.00  0.00    +0.297 C 
ATOM     17  C   UNL     1      -3.694  -3.280   4.832  0.00  0.00    -0.099 A 
ATOM     18  C   UNL     1      -4.716  -3.104   3.925  0.00  0.00    -0.013 A 
ATOM     19  C   UNL     1      -4.965  -1.839   3.412  0.00  0.00    +0.116 A 
ATOM     22  C   UNL     1      -4.191  -0.754   3.812  0.00  0.00    +0.117 A 
ATOM     25  C   UNL     1      -3.156  -0.940   4.720  0.00  0.00    +0.060 A 
ATOM     26  C   UNL     1      -2.911  -2.196   5.211  0.00  0.00    -0.104 A 
ATOM     27  C   UNL     1      -1.784  -2.530   6.144  0.00  0.00    +0.073 C 
ATOM     28  C   UNL     1      -2.307  -3.372   7.297  0.00  0.00    +0.260 C 
ATOM     29  N   UNL     1      -3.267  -4.377   6.916  0.00  0.00    -0.377 N 
ATOM     30  H   UNL     1      -2.996  -5.244   7.354  0.00  0.00    +0.428 HD
ATOM     31  C   UNL     1      -4.588  -3.987   7.428  0.00  0.00    +0.320 C 
ATOM     32  C   UNL     1      -2.169  -6.553   4.627  0.00  0.00    -0.048 A 
ATOM     33  C   UNL     1      -1.064  -7.241   4.173  0.00  0.00    +0.119 A 
ATOM     36  C   UNL     1      -0.655  -3.168   5.377  0.00  0.00    +0.106 C 
ATOM     37  C   UNL     1       0.165  -6.592   4.098  0.00  0.00    +0.126 A 
ENDROOT
BRANCH  19  20
ATOM     20  O   UNL     1      -5.971  -1.659   2.514  0.00  0.00    -0.297 OA
ATOM     21  C   UNL     1      -6.728  -2.815   2.147  0.00  0.00    +0.253 C 
ENDBRANCH  19  20
BRANCH  22  23
ATOM     23  O   UNL     1      -4.447   0.486   3.314  0.00  0.00    -0.476 OA
ATOM     24  H   UNL     1      -5.079   0.997   3.838  0.00  0.00    +0.396 HD
ENDBRANCH  22  23
BRANCH  33  34
ATOM     34  O   UNL     1      -1.175  -8.543   3.797  0.00  0.00    -0.295 OA
ATOM     35  C   UNL     1      -2.470  -9.139   3.897  0.00  0.00    +0.251 C 
ENDBRANCH  33  34
BRANCH  37  38
ATOM     38  O   UNL     1       1.265  -7.250   3.642  0.00  0.00    -0.297 OA
ATOM     39  C   UNL     1       2.055  -7.942   4.611  0.00  0.00    +0.233 C 
ENDBRANCH  37  38
BRANCH  13  12
ATOM     12  C   UNL     1       1.583  -4.566   4.430  0.00  0.00    +0.154 C 
BRANCH  12  11
ATOM      1  C   UNL     1       1.004   1.379   0.113  0.00  0.00    +0.317 C 
ATOM      2  N   UNL     1       1.116  -0.083   0.207  0.00  0.00    -0.376 N 
ATOM      3  H   UNL     1       0.262  -0.509  -0.118  0.00  0.00    +0.424 HD
ATOM      4  C   UNL     1       2.244  -0.544  -0.618  0.00  0.00    +0.268 C 
ATOM      5  C   UNL     1       2.158  -2.065  -0.755  0.00  0.00    +0.120 C 
ATOM      6  C   UNL     1       2.004  -2.692   0.608  0.00  0.00    -0.037 A 
ATOM      7  C   UNL     1       2.252  -4.048   0.746  0.00  0.00    -0.060 A 
ATOM      8  C   UNL     1       2.118  -4.660   1.981  0.00  0.00    +0.172 A 
ATOM     11  C   UNL     1       1.734  -3.909   3.083  0.00  0.00    -0.105 A 
ATOM     40  C   UNL     1       1.490  -2.558   2.942  0.00  0.00    +0.082 A 
ATOM     41  C   UNL     1       1.626  -1.946   1.704  0.00  0.00    -0.168 A 
ATOM     42  C   UNL     1       1.356  -0.467   1.601  0.00  0.00    +0.233 C 
BRANCH   8   9
ATOM      9  O   UNL     1       2.361  -5.990   2.114  0.00  0.00    -0.271 OA
ATOM     10  C   UNL     1       2.752  -6.699   0.936  0.00  0.00    +0.247 C 
ENDBRANCH   8   9
BRANCH  42  43
ATOM     43  C   UNL     1       0.125  -0.120   2.439  0.00  0.00    +0.129 C 
BRANCH  43  44
ATOM     44  C   UNL     1      -0.016   1.378   2.529  0.00  0.00    -0.159 A 
ATOM     45  C   UNL     1       0.989   2.133   3.103  0.00  0.00    +0.045 A 
ATOM     46  C   UNL     1       0.861   3.507   3.186  0.00  0.00    -0.013 A 
ATOM     47  C   UNL     1      -0.272   4.130   2.694  0.00  0.00    +0.072 A 
ATOM     48  C   UNL     1      -1.279   3.379   2.119  0.00  0.00    -0.064 A 
ATOM     49  C   UNL     1      -1.151   2.000   2.030  0.00  0.00    +0.132 A 
BRANCH  49  50
ATOM     50  O   UNL     1      -2.137   1.260   1.460  0.00  0.00    -0.313 OA
ATOM     51  C   UNL     1      -3.277   1.968   0.968  0.00  0.00    +0.257 C 
ENDBRANCH  49  50
ENDBRANCH  43  44
ENDBRANCH  42  43
ENDBRANCH  12  11
ENDBRANCH  13  12
TORSDOF 10
