REMARK  Name = ZINC95485913
REMARK  45 active torsions:
REMARK  status: ('A' for Active; 'I' for Inactive)
REMARK    1  A    between atoms: C1_1  and  C2_2
REMARK    2  A    between atoms: C2_2  and  C3_3
REMARK    3  A    between atoms: C3_3  and  C4_4
REMARK    4  A    between atoms: C4_4  and  C5_5
REMARK    5  A    between atoms: C5_5  and  C6_6
REMARK    6  A    between atoms: C6_6  and  C7_7
REMARK    7  A    between atoms: C7_7  and  C8_8
REMARK    8  A    between atoms: C8_8  and  C9_9
REMARK    9  A    between atoms: C9_9  and  C10_10
REMARK   10  A    between atoms: C10_10  and  C11_11
REMARK   11  A    between atoms: C11_11  and  C12_12
REMARK   12  A    between atoms: C12_12  and  C13_13
REMARK   13  A    between atoms: C13_13  and  C14_14
REMARK   14  A    between atoms: C14_14  and  C15_15
REMARK   15  A    between atoms: C15_15  and  C16_16
REMARK   16  A    between atoms: C16_16  and  C17_17
REMARK   17  A    between atoms: C17_17  and  C18_18
REMARK   18  A    between atoms: C18_18  and  C19_19
REMARK   19  A    between atoms: C20_20  and  C21_21
REMARK   20  A    between atoms: C21_21  and  C22_22
REMARK   21  A    between atoms: C21_21  and  C23_23
REMARK   22  A    between atoms: C21_21  and  O4_52
REMARK   23  A    between atoms: C23_23  and  C24_25
REMARK   24  A    between atoms: C23_23  and  N1_27
REMARK   25  A    between atoms: C24_25  and  O1_26
REMARK   26  A    between atoms: C25_28  and  C26_30
REMARK   27  A    between atoms: C26_30  and  C27_32
REMARK   28  A    between atoms: C26_30  and  O3_51
REMARK   29  A    between atoms: C28_33  and  C29_34
REMARK   30  A    between atoms: C29_34  and  C30_35
REMARK   31  A    between atoms: C30_35  and  C31_36
REMARK   32  A    between atoms: C31_36  and  C32_37
REMARK   33  A    between atoms: C32_37  and  C33_38
REMARK   34  A    between atoms: C33_38  and  C34_39
REMARK   35  A    between atoms: C34_39  and  C35_40
REMARK   36  A    between atoms: C35_40  and  C36_41
REMARK   37  A    between atoms: C36_41  and  C37_42
REMARK   38  A    between atoms: C37_42  and  C38_43
REMARK   39  A    between atoms: C38_43  and  C39_44
REMARK   40  A    between atoms: C39_44  and  C40_45
REMARK   41  A    between atoms: C40_45  and  C41_46
REMARK   42  A    between atoms: C41_46  and  C42_47
REMARK   43  A    between atoms: C42_47  and  C43_48
REMARK   44  A    between atoms: C43_48  and  C44_49
REMARK   45  A    between atoms: C44_49  and  C45_50
REMARK                            x       y       z     vdW  Elec       q    Type
REMARK                         _______ _______ _______ _____ _____    ______ ____
ROOT
ATOM     24  CA  UNL     1       7.090 -19.663  13.035  0.00  0.00    +0.232 C 
ENDROOT
BRANCH  24  25
ATOM     25  N   UNL     1       7.841 -20.034  11.832  0.00  0.00    -0.708 N 
ATOM     26  H   UNL     1       8.461 -19.404  11.435  0.00  0.00    +0.398 HD
ATOM     27  C   UNL     1       7.668 -21.251  11.279  0.00  0.00    +0.493 C 
ATOM     50  O   UNL     1       6.892 -22.038  11.776  0.00  0.00    -0.532 OA
BRANCH  27  28
ATOM     28  C   UNL     1       8.440 -21.632  10.042  0.00  0.00    +0.252 C 
BRANCH  28  29
ATOM     29  O   UNL     1       8.175 -22.998   9.718  0.00  0.00    -0.531 OA
ATOM     30  H   UNL     1       7.243 -23.187   9.542  0.00  0.00    +0.385 HD
ENDBRANCH  28  29
BRANCH  28  31
ATOM     31  C   UNL     1       8.017 -20.752   8.894  0.00  0.00    -0.085 C 
ATOM     32  C   UNL     1       8.897 -19.992   8.292  0.00  0.00    -0.001 C 
BRANCH  32  33
ATOM     33  C   UNL     1       8.474 -19.112   7.144  0.00  0.00    +0.048 C 
BRANCH  33  34
ATOM     34  C   UNL     1       8.870 -17.664   7.438  0.00  0.00    +0.013 C 
BRANCH  34  35
ATOM     35  C   UNL     1       8.440 -16.771   6.273  0.00  0.00    +0.001 C 
BRANCH  35  36
ATOM     36  C   UNL     1       8.837 -15.323   6.567  0.00  0.00    +0.003 C 
BRANCH  36  37
ATOM     37  C   UNL     1       8.407 -14.429   5.402  0.00  0.00    -0.000 C 
BRANCH  37  38
ATOM     38  C   UNL     1       8.804 -12.981   5.696  0.00  0.00    +0.001 C 
BRANCH  38  39
ATOM     39  C   UNL     1       8.374 -12.088   4.531  0.00  0.00    -0.000 C 
BRANCH  39  40
ATOM     40  C   UNL     1       8.770 -10.640   4.825  0.00  0.00    +0.000 C 
BRANCH  40  41
ATOM     41  C   UNL     1       8.340  -9.746   3.660  0.00  0.00    +0.000 C 
BRANCH  41  42
ATOM     42  C   UNL     1       8.737  -8.298   3.954  0.00  0.00    -0.000 C 
BRANCH  42  43
ATOM     43  C   UNL     1       8.307  -7.405   2.788  0.00  0.00    +0.000 C 
BRANCH  43  44
ATOM     44  C   UNL     1       8.704  -5.957   3.083  0.00  0.00    -0.000 C 
BRANCH  44  45
ATOM     45  C   UNL     1       8.274  -5.064   1.917  0.00  0.00    +0.000 C 
BRANCH  45  46
ATOM     46  C   UNL     1       8.670  -3.615   2.211  0.00  0.00    -0.000 C 
BRANCH  46  47
ATOM     47  C   UNL     1       8.240  -2.722   1.046  0.00  0.00    -0.000 C 
BRANCH  47  48
ATOM     48  C   UNL     1       8.637  -1.274   1.340  0.00  0.00    -0.006 C 
ATOM     49  C   UNL     1       8.207  -0.381   0.175  0.00  0.00    +0.006 C 
ENDBRANCH  47  48
ENDBRANCH  46  47
ENDBRANCH  45  46
ENDBRANCH  44  45
ENDBRANCH  43  44
ENDBRANCH  42  43
ENDBRANCH  41  42
ENDBRANCH  40  41
ENDBRANCH  39  40
ENDBRANCH  38  39
ENDBRANCH  37  38
ENDBRANCH  36  37
ENDBRANCH  35  36
ENDBRANCH  34  35
ENDBRANCH  33  34
ENDBRANCH  32  33
ENDBRANCH  28  31
ENDBRANCH  27  28
ENDBRANCH  24  25
BRANCH  24  21
ATOM     21  C   UNL     1       6.960 -18.140  13.105  0.00  0.00    +0.165 C 
ATOM     54  C   UNL     1       6.177 -17.753  14.361  0.00  0.00    +0.076 C 
BRANCH  21  20
ATOM     19  C   UNL     1       6.817 -16.797  11.072  0.00  0.00    -0.023 C 
ATOM     20  C   UNL     1       6.231 -17.641  11.884  0.00  0.00    -0.080 C 
BRANCH  19  18
ATOM     18  C   UNL     1       6.088 -16.297   9.851  0.00  0.00    +0.045 C 
BRANCH  18  17
ATOM     17  C   UNL     1       6.067 -14.768   9.859  0.00  0.00    +0.010 C 
BRANCH  17  16
ATOM     16  C   UNL     1       5.327 -14.261   8.620  0.00  0.00    +0.002 C 
BRANCH  16  15
ATOM     15  C   UNL     1       5.306 -12.731   8.628  0.00  0.00    +0.001 C 
BRANCH  15  14
ATOM     14  C   UNL     1       4.566 -12.224   7.389  0.00  0.00    +0.001 C 
BRANCH  14  13
ATOM     13  C   UNL     1       4.546 -10.694   7.397  0.00  0.00    +0.000 C 
BRANCH  13  12
ATOM     12  C   UNL     1       3.806 -10.187   6.158  0.00  0.00    +0.000 C 
BRANCH  12  11
ATOM     11  C   UNL     1       3.785  -8.658   6.166  0.00  0.00    +0.000 C 
BRANCH  11  10
ATOM     10  C   UNL     1       3.045  -8.151   4.926  0.00  0.00    -0.000 C 
BRANCH  10   9
ATOM      9  C   UNL     1       3.024  -6.621   4.935  0.00  0.00    +0.000 C 
BRANCH   9   8
ATOM      8  C   UNL     1       2.284  -6.114   3.695  0.00  0.00    -0.000 C 
BRANCH   8   7
ATOM      7  C   UNL     1       2.264  -4.584   3.704  0.00  0.00    +0.000 C 
BRANCH   7   6
ATOM      6  C   UNL     1       1.524  -4.077   2.464  0.00  0.00    +0.000 C 
BRANCH   6   5
ATOM      5  C   UNL     1       1.503  -2.548   2.473  0.00  0.00    +0.000 C 
BRANCH   5   4
ATOM      4  C   UNL     1       0.763  -2.041   1.233  0.00  0.00    -0.000 C 
BRANCH   4   3
ATOM      3  C   UNL     1       0.742  -0.511   1.242  0.00  0.00    -0.000 C 
BRANCH   3   2
ATOM      1  C   UNL     1      -0.019   1.526   0.010  0.00  0.00    +0.006 C 
ATOM      2  C   UNL     1       0.002  -0.004   0.002  0.00  0.00    -0.006 C 
ENDBRANCH   3   2
ENDBRANCH   4   3
ENDBRANCH   5   4
ENDBRANCH   6   5
ENDBRANCH   7   6
ENDBRANCH   8   7
ENDBRANCH   9   8
ENDBRANCH  10   9
ENDBRANCH  11  10
ENDBRANCH  12  11
ENDBRANCH  13  12
ENDBRANCH  14  13
ENDBRANCH  15  14
ENDBRANCH  16  15
ENDBRANCH  17  16
ENDBRANCH  18  17
ENDBRANCH  19  18
ENDBRANCH  21  20
BRANCH  21  22
ATOM     22  O   UNL     1       8.262 -17.553  13.156  0.00  0.00    -0.525 OA
ATOM     23  H   UNL     1       8.816 -17.757  12.390  0.00  0.00    +0.366 HD
ENDBRANCH  21  22
ENDBRANCH  24  21
BRANCH  24  51
ATOM     51  C   UNL     1       7.830 -20.170  14.274  0.00  0.00    +0.171 C 
BRANCH  51  52
ATOM     52  O   UNL     1       9.085 -19.496  14.389  0.00  0.00    -0.551 OA
ATOM     53  H   UNL     1       9.609 -19.768  15.154  0.00  0.00    +0.375 HD
ENDBRANCH  51  52
ENDBRANCH  24  51
TORSDOF 42
