REMARK  Name = ZINC14768735
REMARK  13 active torsions:
REMARK  status: ('A' for Active; 'I' for Inactive)
REMARK    1  A    between atoms: C1_1  and  C2_2
REMARK    2  A    between atoms: C2_2  and  C28_34
REMARK    3  A    between atoms: C3_3  and  C4_4
REMARK    4  A    between atoms: C4_4  and  C5_5
REMARK    5  A    between atoms: C6_6  and  O6_33
REMARK    6  A    between atoms: C10_10  and  O1_11
REMARK    7  A    between atoms: C15_17  and  O4_26
REMARK    8  A    between atoms: C16_18  and  C18_21
REMARK    9  A    between atoms: C18_21  and  C19_22
REMARK   10  A    between atoms: C20_23  and  C21_24
REMARK   11  A    between atoms: C20_23  and  C22_25
REMARK   12  A    between atoms: C23_28  and  C26_31
REMARK   13  A    between atoms: C23_28  and  C27_32
REMARK                            x       y       z     vdW  Elec       q    Type
REMARK                         _______ _______ _______ _____ _____    ______ ____
ROOT
ATOM      6  C   UNL     1      -0.865   0.164   0.488  0.00  0.00    -0.166 A 
ATOM      7  C   UNL     1       0.390  -0.330   0.828  0.00  0.00    +0.200 A 
ATOM     10  C   UNL     1       1.418   0.532   1.176  0.00  0.00    -0.032 A 
ATOM     11  C   UNL     1       1.206   1.903   1.191  0.00  0.00    +0.197 A 
ATOM     12  C   UNL     1      -0.062   2.403   0.849  0.00  0.00    -0.268 A 
ATOM     13  C   UNL     1      -0.280   3.860   0.866  0.00  0.00    +0.444 A 
ATOM     14  C   UNL     1       0.868   4.699   1.250  0.00  0.00    -0.195 A 
ATOM     15  C   UNL     1       0.759   6.099   1.297  0.00  0.00    -0.029 A 
ATOM     16  C   UNL     1       1.864   6.869   1.664  0.00  0.00    +0.080 A 
ATOM     17  O   UNL     1       1.738   8.221   1.703  0.00  0.00    -0.287 OA
ATOM     18  C   UNL     1       0.866   8.822   0.745  0.00  0.00    +0.140 C 
ATOM     19  C   UNL     1       1.513   8.757  -0.640  0.00  0.00    +0.034 C 
ATOM     20  C   UNL     1       0.629  10.285   1.124  0.00  0.00    +0.087 C 
ATOM     21  C   UNL     1      -0.454   8.097   0.708  0.00  0.00    -0.032 C 
ATOM     22  C   UNL     1       3.067   6.244   1.980  0.00  0.00    +0.157 A 
ATOM     25  C   UNL     1       3.175   4.863   1.934  0.00  0.00    -0.097 A 
ATOM     31  C   UNL     1      -0.503   6.790   0.967  0.00  0.00    +0.055 C 
ATOM     32  C   UNL     1       2.086   4.079   1.570  0.00  0.00    +0.156 A 
ATOM     33  O   UNL     1      -1.358   4.347   0.578  0.00  0.00    -0.432 OA
ATOM     34  O   UNL     1       2.211   2.736   1.531  0.00  0.00    -0.220 OA
ATOM     35  C   UNL     1      -1.098   1.527   0.497  0.00  0.00    +0.223 A 
ENDROOT
BRANCH   7   8
ATOM      8  O   UNL     1       0.611  -1.669   0.817  0.00  0.00    -0.484 OA
ATOM      9  H   UNL     1       0.922  -2.009  -0.033  0.00  0.00    +0.401 HD
ENDBRANCH   7   8
BRANCH  22  23
ATOM     23  O   UNL     1       4.142   6.993   2.337  0.00  0.00    -0.470 OA
ATOM     24  H   UNL     1       4.701   7.258   1.593  0.00  0.00    +0.395 HD
ENDBRANCH  22  23
BRANCH  35  36
ATOM     36  O   UNL     1      -2.319   2.013   0.160  0.00  0.00    -0.469 OA
ATOM     37  H   UNL     1      -2.925   2.105   0.908  0.00  0.00    +0.401 HD
ENDBRANCH  35  36
BRANCH   6   5
ATOM      5  C   UNL     1      -1.971  -0.787   0.112  0.00  0.00    +0.134 C 
BRANCH   5   4
ATOM      1  C   UNL     1      -1.723  -3.411  -0.892  0.00  0.00    +0.076 C 
ATOM      2  C   UNL     1      -1.888  -2.251  -1.840  0.00  0.00    -0.129 C 
ATOM      3  C   UNL     1      -1.989  -2.500  -3.323  0.00  0.00    +0.073 C 
ATOM      4  C   UNL     1      -1.942  -1.028  -1.376  0.00  0.00    -0.051 C 
ENDBRANCH   5   4
ENDBRANCH   6   5
BRANCH  25  26
ATOM     26  C   UNL     1       4.485   4.206   2.281  0.00  0.00    +0.140 C 
BRANCH  26  27
ATOM     27  C   UNL     1       5.321   4.063   1.035  0.00  0.00    -0.057 C 
ATOM     28  C   UNL     1       6.534   4.556   1.000  0.00  0.00    -0.123 C 
ATOM     29  C   UNL     1       7.370   4.413  -0.246  0.00  0.00    +0.074 C 
ATOM     30  C   UNL     1       7.094   5.266   2.206  0.00  0.00    +0.077 C 
ENDBRANCH  26  27
ENDBRANCH  25  26
TORSDOF 7
