REMARK  Name = ZINC95486227
REMARK  6 active torsions:
REMARK  status: ('A' for Active; 'I' for Inactive)
REMARK    1  A    between atoms: C1_1  and  C2_2
REMARK    2  A    between atoms: C6_7  and  C20_28
REMARK    3  A    between atoms: C7_8  and  C8_10
REMARK    4  A    between atoms: C12_14  and  O1_16
REMARK    5  A    between atoms: O1_16  and  C14_17
REMARK    6  A    between atoms: C20_28  and  C21_29
REMARK                            x       y       z     vdW  Elec       q    Type
REMARK                         _______ _______ _______ _____ _____    ______ ____
ROOT
ATOM      1  C   UNL     1      -0.440   1.335   0.036  0.00  0.00    +0.022 C 
ATOM      2  C   UNL     1      -0.191  -0.173   0.072  0.00  0.00    +0.007 C 
ATOM      3  C   UNL     1       0.234  -0.694  -1.290  0.00  0.00    +0.052 C 
ATOM      4  C   UNL     1       1.728  -0.618  -1.529  0.00  0.00    +0.099 C 
ATOM      5  C   UNL     1       2.501  -1.274  -0.388  0.00  0.00    +0.095 C 
ATOM      6  C   UNL     1       2.217  -0.450   0.878  0.00  0.00    -0.084 C 
ATOM     10  C   UNL     1       2.650   0.974   0.668  0.00  0.00    +0.408 C 
ATOM     11  C   UNL     1       2.626   1.562  -0.614  0.00  0.00    -0.120 C 
ATOM     12  O   UNL     1       3.046   1.633   1.610  0.00  0.00    -0.435 OA
ATOM     13  O   UNL     1       2.082  -1.185  -2.798  0.00  0.00    -0.352 OA
ATOM     14  C   UNL     1       2.012  -0.076  -3.713  0.00  0.00    +0.411 C 
ATOM     15  O   UNL     1       2.074   1.139  -2.950  0.00  0.00    -0.299 OA
ATOM     16  C   UNL     1       2.192   0.821  -1.652  0.00  0.00    +0.136 C 
ATOM     17  C   UNL     1       0.735  -0.551   1.212  0.00  0.00    +0.079 C 
ENDROOT
BRANCH  17  18
ATOM     18  C   UNL     1       0.424   0.302   2.415  0.00  0.00    -0.042 A 
ATOM     19  C   UNL     1      -0.080  -0.283   3.562  0.00  0.00    +0.012 A 
ATOM     20  C   UNL     1      -0.368   0.497   4.671  0.00  0.00    +0.069 A 
ATOM     21  C   UNL     1      -0.149   1.870   4.628  0.00  0.00    -0.003 A 
ATOM     22  O   UNL     1      -0.507   2.408   5.832  0.00  0.00    -0.300 OA
ATOM     23  C   UNL     1      -1.329   1.411   6.468  0.00  0.00    +0.429 C 
ATOM     24  C   UNL     1       0.358   2.453   3.474  0.00  0.00    +0.151 A 
ATOM     27  O   UNL     1      -0.864   0.172   5.901  0.00  0.00    -0.306 OA
ATOM     28  C   UNL     1       0.648   1.665   2.370  0.00  0.00    -0.024 A 
BRANCH  24  25
ATOM     25  O   UNL     1       0.574   3.795   3.427  0.00  0.00    -0.307 OA
ATOM     26  C   UNL     1       1.097   4.326   2.208  0.00  0.00    +0.244 C 
ENDBRANCH  24  25
ENDBRANCH  17  18
BRANCH   6   7
ATOM      7  C   UNL     1       3.031  -1.044   2.039  0.00  0.00    +0.094 C 
BRANCH   7   8
ATOM      8  C   UNL     1       4.499  -0.984   1.704  0.00  0.00    -0.066 C 
ATOM      9  C   UNL     1       5.334  -0.393   2.522  0.00  0.00    +0.028 C 
ENDBRANCH   7   8
ENDBRANCH   6   7
TORSDOF 4
