REMARK  Name = ZINC95486175
REMARK  18 active torsions:
REMARK  status: ('A' for Active; 'I' for Inactive)
REMARK    1  A    between atoms: C1_1  and  C2_2
REMARK    2  A    between atoms: C5_5  and  C35_43
REMARK    3  A    between atoms: C7_7  and  C13_15
REMARK    4  A    between atoms: C8_8  and  O2_14
REMARK    5  A    between atoms: C10_10  and  O1_12
REMARK    6  A    between atoms: O1_12  and  C12_13
REMARK    7  A    between atoms: C15_17  and  C25_29
REMARK    8  A    between atoms: C18_20  and  C24_28
REMARK    9  A    between atoms: C20_22  and  O4_26
REMARK   10  A    between atoms: C22_24  and  O3_25
REMARK   11  A    between atoms: O4_26  and  C23_27
REMARK   12  A    between atoms: C26_30  and  O6_42
REMARK   13  A    between atoms: C28_32  and  O5_41
REMARK   14  A    between atoms: C32_36  and  C34_40
REMARK   15  A    between atoms: C36_44  and  O8_58
REMARK   16  A    between atoms: C38_46  and  O7_57
REMARK   17  A    between atoms: C42_50  and  C46_56
REMARK   18  A    between atoms: C44_53  and  C45_55
REMARK                            x       y       z     vdW  Elec       q    Type
REMARK                         _______ _______ _______ _____ _____    ______ ____
ROOT
ATOM     24  C   UNL     1       0.084  -6.350  -1.231  0.00  0.00    -0.090 A 
ATOM     25  C   UNL     1       1.196  -7.024  -1.752  0.00  0.00    +0.075 A 
ATOM     26  C   UNL     1       1.235  -8.404  -1.775  0.00  0.00    -0.083 A 
ATOM     44  C   UNL     1       0.140  -9.147  -1.267  0.00  0.00    +0.032 A 
ATOM     45  C   UNL     1       0.154 -10.549  -1.278  0.00  0.00    -0.047 A 
ATOM     46  C   UNL     1      -0.909 -11.245  -0.785  0.00  0.00    -0.017 A 
ATOM     47  C   UNL     1      -0.882 -12.752  -0.802  0.00  0.00    +0.094 C 
ATOM     48  C   UNL     1      -2.019 -10.585  -0.265  0.00  0.00    -0.100 A 
ATOM     49  C   UNL     1      -2.069  -9.210  -0.237  0.00  0.00    +0.172 A 
ATOM     52  C   UNL     1      -0.983  -8.465  -0.741  0.00  0.00    -0.107 A 
ATOM     53  C   UNL     1      -0.998  -7.058  -0.722  0.00  0.00    +0.200 A 
ENDROOT
BRANCH  26  27
ATOM     27  C   UNL     1       2.416  -9.105  -2.329  0.00  0.00    -0.054 A 
ATOM     28  C   UNL     1       2.463  -9.427  -3.689  0.00  0.00    +0.172 A 
ATOM     31  C   UNL     1       3.570 -10.081  -4.199  0.00  0.00    -0.014 A 
ATOM     32  C   UNL     1       4.624 -10.412  -3.363  0.00  0.00    +0.158 A 
ATOM     35  C   UNL     1       4.581 -10.093  -2.007  0.00  0.00    -0.176 A 
ATOM     36  C   UNL     1       5.755 -10.471  -1.143  0.00  0.00    +0.338 C 
ATOM     37  N   UNL     1       5.383 -10.459   0.271  0.00  0.00    -0.503 N 
ATOM     38  H   UNL     1       4.711 -11.192   0.443  0.00  0.00    +0.430 HD
ATOM     39  H   UNL     1       6.203 -10.610   0.839  0.00  0.00    +0.434 HD
ATOM     40  C   UNL     1       4.787  -9.156   0.605  0.00  0.00    +0.173 C 
ATOM     41  C   UNL     1       4.665  -9.016   2.123  0.00  0.00    +0.096 C 
ATOM     42  C   UNL     1       3.398  -9.079  -0.031  0.00  0.00    +0.134 C 
ATOM     43  C   UNL     1       3.485  -9.440  -1.492  0.00  0.00    -0.041 A 
BRANCH  28  29
ATOM     29  O   UNL     1       1.427  -9.098  -4.504  0.00  0.00    -0.480 OA
ATOM     30  H   UNL     1       1.508  -8.225  -4.911  0.00  0.00    +0.402 HD
ENDBRANCH  28  29
BRANCH  32  33
ATOM     33  O   UNL     1       5.709 -11.054  -3.869  0.00  0.00    -0.492 OA
ATOM     34  H   UNL     1       6.404 -10.461  -4.187  0.00  0.00    +0.404 HD
ENDBRANCH  32  33
ENDBRANCH  26  27
BRANCH  24  23
ATOM      1  C   UNL     1      -0.018   1.503   0.010  0.00  0.00    +0.095 C 
ATOM      2  C   UNL     1       0.002  -0.004   0.002  0.00  0.00    -0.026 A 
ATOM      3  C   UNL     1       0.005  -0.668  -1.188  0.00  0.00    -0.021 A 
ATOM      4  C   UNL     1       0.025  -2.070  -1.208  0.00  0.00    +0.026 A 
ATOM      5  C   UNL     1       0.029  -2.781  -2.434  0.00  0.00    -0.036 A 
ATOM     22  C   UNL     1       0.049  -4.162  -2.425  0.00  0.00    +0.055 A 
ATOM     23  C   UNL     1       0.064  -4.868  -1.216  0.00  0.00    -0.095 A 
ATOM     56  C   UNL     1       0.060  -4.192  -0.002  0.00  0.00    +0.181 A 
ATOM     59  C   UNL     1       0.041  -2.785   0.014  0.00  0.00    -0.101 A 
ATOM     60  C   UNL     1       0.037  -2.073   1.231  0.00  0.00    +0.158 A 
ATOM     63  C   UNL     1       0.023  -0.696   1.209  0.00  0.00    -0.093 A 
BRANCH   5   6
ATOM      6  C   UNL     1       0.013  -2.046  -3.719  0.00  0.00    -0.086 A 
ATOM      7  C   UNL     1       1.217  -1.689  -4.331  0.00  0.00    +0.135 A 
ATOM     10  C   UNL     1       1.195  -1.001  -5.532  0.00  0.00    -0.039 A 
ATOM     11  C   UNL     1      -0.018  -0.672  -6.114  0.00  0.00    +0.131 A 
ATOM     14  C   UNL     1      -1.222  -1.026  -5.505  0.00  0.00    -0.101 A 
ATOM     15  C   UNL     1      -2.500  -0.625  -6.196  0.00  0.00    +0.036 C 
ATOM     16  C   UNL     1      -2.762   0.862  -5.949  0.00  0.00    +0.035 C 
ATOM     17  C   UNL     1      -3.675  -1.454  -5.673  0.00  0.00    +0.024 C 
ATOM     18  C   UNL     1      -3.674  -1.369  -4.143  0.00  0.00    -0.017 C 
ATOM     19  C   UNL     1      -4.965  -1.976  -3.591  0.00  0.00    +0.021 C 
ATOM     20  C   UNL     1      -2.471  -2.151  -3.618  0.00  0.00    +0.082 C 
ATOM     21  C   UNL     1      -1.210  -1.718  -4.318  0.00  0.00    -0.023 A 
BRANCH   7   8
ATOM      8  O   UNL     1       2.401  -2.013  -3.751  0.00  0.00    -0.486 OA
ATOM      9  H   UNL     1       2.749  -2.874  -4.022  0.00  0.00    +0.385 HD
ENDBRANCH   7   8
BRANCH  11  12
ATOM     12  O   UNL     1      -0.035   0.005  -7.293  0.00  0.00    -0.491 OA
ATOM     13  H   UNL     1      -0.036  -0.566  -8.074  0.00  0.00    +0.392 HD
ENDBRANCH  11  12
ENDBRANCH   5   6
BRANCH  56  57
ATOM     57  O   UNL     1       0.074  -4.886   1.165  0.00  0.00    -0.463 OA
ATOM     58  H   UNL     1       0.962  -5.075   1.499  0.00  0.00    +0.381 HD
ENDBRANCH  56  57
BRANCH  60  61
ATOM     61  O   UNL     1       0.052  -2.739   2.414  0.00  0.00    -0.295 OA
ATOM     62  C   UNL     1       0.047  -1.948   3.604  0.00  0.00    +0.240 C 
ENDBRANCH  60  61
ENDBRANCH  24  23
BRANCH  49  50
ATOM     50  O   UNL     1      -3.157  -8.575   0.272  0.00  0.00    -0.291 OA
ATOM     51  C   UNL     1      -4.217  -9.397   0.763  0.00  0.00    +0.246 C 
ENDBRANCH  49  50
BRANCH  53  54
ATOM     54  O   UNL     1      -2.068  -6.395  -0.215  0.00  0.00    -0.463 OA
ATOM     55  H   UNL     1      -2.756  -6.200  -0.867  0.00  0.00    +0.393 HD
ENDBRANCH  53  54
TORSDOF 11
