REMARK  Name = ZINC12358789
REMARK  7 active torsions:
REMARK  status: ('A' for Active; 'I' for Inactive)
REMARK    1  A    between atoms: C1_1  and  C2_2
REMARK    2  A    between atoms: C2_2  and  C10_11
REMARK    3  A    between atoms: C3_3  and  C4_4
REMARK    4  A    between atoms: C4_4  and  C5_5
REMARK    5  A    between atoms: C5_5  and  C6_6
REMARK    6  A    between atoms: C6_6  and  C9_10
REMARK    7  A    between atoms: C7_7  and  C8_8
REMARK                            x       y       z     vdW  Elec       q    Type
REMARK                         _______ _______ _______ _____ _____    ______ ____
ROOT
ATOM      6  C   UNL     1       1.538   2.644   0.666  0.00  0.00    +0.061 C 
ENDROOT
BRANCH   6   7
ATOM      7  C   UNL     1       0.191   2.115   1.087  0.00  0.00    -0.030 C 
ATOM      8  C   UNL     1      -0.955   3.066   1.315  0.00  0.00    +0.095 C 
ATOM      9  C   UNL     1       0.013   0.802   1.254  0.00  0.00    -0.136 C 
BRANCH   9  10
ATOM     10  C   UNL     1       1.124  -0.121   1.028  0.00  0.00    +0.459 C 
ATOM     11  O   UNL     1       0.962  -1.314   1.179  0.00  0.00    -0.466 OA
ENDBRANCH   9  10
ENDBRANCH   6   7
BRANCH   6   5
ATOM      5  C   UNL     1       1.564   2.818  -0.854  0.00  0.00    +0.059 C 
BRANCH   5   4
ATOM      1  C   UNL     1       1.733   5.069  -2.545  0.00  0.00    +0.073 C 
ATOM      2  C   UNL     1       2.988   4.432  -2.007  0.00  0.00    -0.127 C 
ATOM      3  C   UNL     1       4.332   5.041  -2.311  0.00  0.00    +0.073 C 
ATOM      4  C   UNL     1       2.911   3.348  -1.276  0.00  0.00    -0.061 C 
ENDBRANCH   5   4
ENDBRANCH   6   5
TORSDOF 4
