REMARK  Name = ZINC05998557
REMARK  7 active torsions:
REMARK  status: ('A' for Active; 'I' for Inactive)
REMARK    1  A    between atoms: C1_1  and  O1_2
REMARK    2  A    between atoms: O1_2  and  C2_3
REMARK    3  A    between atoms: C3_4  and  O7_23
REMARK    4  A    between atoms: C7_8  and  O2_9
REMARK    5  A    between atoms: C10_13  and  C11_15
REMARK    6  A    between atoms: C14_18  and  O6_22
REMARK    7  A    between atoms: C15_19  and  O5_21
REMARK                            x       y       z     vdW  Elec       q    Type
REMARK                         _______ _______ _______ _____ _____    ______ ____
ROOT
ATOM      3  C   UNL     1       0.607  -0.608  -1.058  0.00  0.00    +0.013 A 
ATOM      4  C   UNL     1      -0.134  -0.923  -2.196  0.00  0.00    +0.172 A 
ATOM      7  C   UNL     1       0.468  -1.537  -3.282  0.00  0.00    -0.009 A 
ATOM      8  C   UNL     1       1.819  -1.845  -3.245  0.00  0.00    +0.178 A 
ATOM      9  C   UNL     1       2.570  -1.530  -2.099  0.00  0.00    -0.253 A 
ATOM     10  C   UNL     1       4.004  -1.867  -2.084  0.00  0.00    +0.424 A 
ATOM     11  C   UNL     1       4.538  -2.494  -3.235  0.00  0.00    -0.140 A 
ATOM     12  C   UNL     1       3.725  -2.757  -4.293  0.00  0.00    +0.208 A 
ATOM     23  O   UNL     1       4.704  -1.617  -1.116  0.00  0.00    -0.449 OA
ATOM     24  O   UNL     1       2.420  -2.445  -4.296  0.00  0.00    -0.216 OA
ATOM     25  C   UNL     1       1.959  -0.904  -1.006  0.00  0.00    +0.202 A 
ENDROOT
BRANCH  12  13
ATOM     13  C   UNL     1       4.301  -3.410  -5.484  0.00  0.00    -0.067 A 
ATOM     14  C   UNL     1       5.655  -3.752  -5.510  0.00  0.00    +0.075 A 
ATOM     15  C   UNL     1       6.191  -4.362  -6.623  0.00  0.00    +0.016 A 
ATOM     16  C   UNL     1       5.388  -4.639  -7.721  0.00  0.00    +0.110 A 
ATOM     19  C   UNL     1       4.036  -4.300  -7.703  0.00  0.00    +0.079 A 
ATOM     22  C   UNL     1       3.491  -3.693  -6.588  0.00  0.00    +0.057 A 
BRANCH  16  17
ATOM     17  O   UNL     1       5.921  -5.241  -8.816  0.00  0.00    -0.485 OA
ATOM     18  H   UNL     1       5.882  -6.207  -8.792  0.00  0.00    +0.395 HD
ENDBRANCH  16  17
BRANCH  19  20
ATOM     20  O   UNL     1       3.253  -4.571  -8.781  0.00  0.00    -0.483 OA
ATOM     21  H   UNL     1       2.832  -5.442  -8.752  0.00  0.00    +0.392 HD
ENDBRANCH  19  20
ENDBRANCH  12  13
BRANCH   3   2
ATOM      1  C   UNL     1      -0.017   1.425   0.010  0.00  0.00    +0.230 C 
ATOM      2  O   UNL     1       0.002  -0.004   0.002  0.00  0.00    -0.315 OA
ENDBRANCH   3   2
BRANCH   4   5
ATOM      5  O   UNL     1      -1.459  -0.625  -2.240  0.00  0.00    -0.475 OA
ATOM      6  H   UNL     1      -1.653   0.253  -2.595  0.00  0.00    +0.400 HD
ENDBRANCH   4   5
BRANCH  25  26
ATOM     26  O   UNL     1       2.686  -0.595   0.099  0.00  0.00    -0.466 OA
ATOM     27  H   UNL     1       2.710  -1.297   0.764  0.00  0.00    +0.406 HD
ENDBRANCH  25  26
TORSDOF 6
