REMARK  Name = ZINC95486138
REMARK  9 active torsions:
REMARK  status: ('A' for Active; 'I' for Inactive)
REMARK    1  A    between atoms: C1_1  and  C2_2
REMARK    2  A    between atoms: C2_2  and  C4_4
REMARK    3  A    between atoms: C7_8  and  C30_37
REMARK    4  A    between atoms: C13_17  and  C29_36
REMARK    5  A    between atoms: C16_20  and  O1_35
REMARK    6  A    between atoms: C17_22  and  C27_33
REMARK    7  A    between atoms: C17_22  and  C28_34
REMARK    8  A    between atoms: C21_27  and  C26_32
REMARK    9  A    between atoms: C22_28  and  C25_31
REMARK                            x       y       z     vdW  Elec       q    Type
REMARK                         _______ _______ _______ _____ _____    ______ ____
ROOT
ATOM      3  C   UNL     1      -1.043  -1.754  -1.826  0.00  0.00    +0.019 C 
ATOM      4  C   UNL     1      -2.313  -1.701  -2.699  0.00  0.00    -0.002 C 
ATOM      5  C   UNL     1      -2.092  -0.508  -3.651  0.00  0.00    +0.016 C 
ATOM      6  C   UNL     1      -0.554  -0.513  -3.925  0.00  0.00    -0.105 C 
ATOM     10  C   UNL     1      -0.357  -1.400  -5.149  0.00  0.00    -0.001 C 
ATOM     11  C   UNL     1       1.018  -2.049  -5.231  0.00  0.00    +0.018 C 
ATOM     12  C   UNL     1       1.276  -2.861  -3.960  0.00  0.00    -0.027 C 
ATOM     13  C   UNL     1       0.136  -3.872  -3.788  0.00  0.00    +0.009 C 
ATOM     14  C   UNL     1       2.594  -3.645  -4.061  0.00  0.00    -0.026 C 
ATOM     15  C   UNL     1       2.434  -4.590  -5.261  0.00  0.00    +0.011 C 
ATOM     16  C   UNL     1       2.791  -4.495  -2.802  0.00  0.00    +0.016 C 
ATOM     17  C   UNL     1       4.044  -5.349  -2.952  0.00  0.00    +0.005 C 
ATOM     18  C   UNL     1       5.309  -4.534  -3.196  0.00  0.00    -0.002 C 
ATOM     19  C   UNL     1       6.077  -4.317  -1.911  0.00  0.00    -0.036 C 
ATOM     20  C   UNL     1       5.172  -3.950  -0.732  0.00  0.00    +0.034 C 
ATOM     21  C   UNL     1       6.769  -5.656  -1.544  0.00  0.00    +0.013 C 
ATOM     22  C   UNL     1       7.186  -3.275  -2.031  0.00  0.00    +0.166 C 
ATOM     25  C   UNL     1       6.618  -2.006  -2.665  0.00  0.00    -0.013 C 
ATOM     26  C   UNL     1       6.227  -2.331  -4.096  0.00  0.00    +0.014 C 
ATOM     27  C   UNL     1       5.149  -3.420  -4.189  0.00  0.00    -0.029 C 
ATOM     28  C   UNL     1       5.395  -4.028  -5.602  0.00  0.00    +0.005 C 
ATOM     29  C   UNL     1       3.789  -2.721  -4.207  0.00  0.00    +0.015 C 
ATOM     30  C   UNL     1       3.794  -1.672  -3.090  0.00  0.00    -0.005 C 
ATOM     31  C   UNL     1       2.481  -0.906  -3.027  0.00  0.00    +0.025 C 
ATOM     32  C   UNL     1       1.316  -1.880  -2.797  0.00  0.00    +0.004 C 
ATOM     33  C   UNL     1       0.052  -1.068  -2.641  0.00  0.00    +0.008 C 
ENDROOT
BRANCH   3   2
ATOM      1  C   UNL     1      -1.677   0.458  -0.585  0.00  0.00    +0.071 C 
ATOM      2  C   UNL     1      -1.281  -0.996  -0.541  0.00  0.00    -0.090 C 
ATOM     34  C   UNL     1      -1.144  -1.602   0.613  0.00  0.00    -0.045 C 
ENDBRANCH   3   2
BRANCH   6   7
ATOM      7  C   UNL     1      -0.077   0.904  -4.202  0.00  0.00    +0.509 C 
ATOM      8  O   UNL     1       1.105   1.118  -4.415  0.00  0.00    -0.686 OA
ATOM      9  O   UNL     1      -0.875   1.825  -4.212  0.00  0.00    -0.699 OA
ENDBRANCH   6   7
BRANCH  22  23
ATOM     23  O   UNL     1       7.695  -2.970  -0.730  0.00  0.00    -0.565 OA
ATOM     24  H   UNL     1       8.401  -2.309  -0.729  0.00  0.00    +0.372 HD
ENDBRANCH  22  23
TORSDOF 3
