REMARK  Name = ZINC85490208
REMARK  50 active torsions:
REMARK  status: ('A' for Active; 'I' for Inactive)
REMARK    1  A    between atoms: C1_1  and  C2_2
REMARK    2  A    between atoms: C2_2  and  C3_3
REMARK    3  A    between atoms: C3_3  and  C4_4
REMARK    4  A    between atoms: C4_4  and  C5_5
REMARK    5  A    between atoms: C5_5  and  C6_6
REMARK    6  A    between atoms: C6_6  and  C7_7
REMARK    7  A    between atoms: C7_7  and  C8_8
REMARK    8  A    between atoms: C8_8  and  C9_9
REMARK    9  A    between atoms: C9_9  and  C10_10
REMARK   10  A    between atoms: C10_10  and  C11_11
REMARK   11  A    between atoms: C11_11  and  C12_12
REMARK   12  A    between atoms: C12_12  and  C13_13
REMARK   13  A    between atoms: C13_13  and  C14_14
REMARK   14  A    between atoms: C14_14  and  C15_15
REMARK   15  A    between atoms: C15_15  and  C16_16
REMARK   16  A    between atoms: C16_16  and  C17_17
REMARK   17  A    between atoms: C17_17  and  C18_18
REMARK   18  A    between atoms: C18_18  and  C19_19
REMARK   19  A    between atoms: C19_19  and  C20_20
REMARK   20  A    between atoms: C20_20  and  C21_21
REMARK   21  A    between atoms: C21_21  and  C22_22
REMARK   22  A    between atoms: C22_22  and  C23_23
REMARK   23  A    between atoms: C23_23  and  C24_24
REMARK   24  A    between atoms: C24_24  and  C25_25
REMARK   25  A    between atoms: C25_25  and  C26_26
REMARK   26  A    between atoms: C26_26  and  O1_27
REMARK   27  A    between atoms: O1_27  and  C27_28
REMARK   28  A    between atoms: C27_28  and  C28_30
REMARK   29  A    between atoms: C28_30  and  C29_31
REMARK   30  A    between atoms: C29_31  and  C30_32
REMARK   31  A    between atoms: C30_32  and  C31_33
REMARK   32  A    between atoms: C31_33  and  C32_34
REMARK   33  A    between atoms: C32_34  and  C33_35
REMARK   34  A    between atoms: C33_35  and  C34_36
REMARK   35  A    between atoms: C34_36  and  C35_37
REMARK   36  A    between atoms: C35_37  and  C36_38
REMARK   37  A    between atoms: C36_38  and  C37_39
REMARK   38  A    between atoms: C37_39  and  C38_40
REMARK   39  A    between atoms: C38_40  and  C39_41
REMARK   40  A    between atoms: C39_41  and  C40_42
REMARK   41  A    between atoms: C40_42  and  C41_43
REMARK   42  A    between atoms: C41_43  and  C42_44
REMARK   43  A    between atoms: C42_44  and  C43_45
REMARK   44  A    between atoms: C43_45  and  C44_46
REMARK   45  A    between atoms: C44_46  and  C45_47
REMARK   46  A    between atoms: C45_47  and  C46_48
REMARK   47  A    between atoms: C46_48  and  C47_49
REMARK   48  A    between atoms: C47_49  and  C48_50
REMARK   49  A    between atoms: C48_50  and  C49_51
REMARK   50  A    between atoms: C49_51  and  C50_52
REMARK                            x       y       z     vdW  Elec       q    Type
REMARK                         _______ _______ _______ _____ _____    ______ ____
ROOT
ATOM     26  C   UNL     1       8.845 -24.283 -15.205  0.00  0.00    +0.198 C 
ENDROOT
BRANCH  26  25
ATOM     25  C   UNL     1       8.824 -22.753 -15.196  0.00  0.00    +0.030 C 
BRANCH  25  24
ATOM     24  C   UNL     1       8.108 -22.260 -13.937  0.00  0.00    +0.013 C 
BRANCH  24  23
ATOM     23  C   UNL     1       8.087 -20.730 -13.929  0.00  0.00    +0.008 C 
BRANCH  23  22
ATOM     22  C   UNL     1       7.371 -20.237 -12.670  0.00  0.00    +0.002 C 
BRANCH  22  21
ATOM     21  C   UNL     1       7.350 -18.707 -12.662  0.00  0.00    +0.001 C 
BRANCH  21  20
ATOM     20  C   UNL     1       6.634 -18.213 -11.403  0.00  0.00    +0.000 C 
BRANCH  20  19
ATOM     19  C   UNL     1       6.613 -16.683 -11.395  0.00  0.00    +0.000 C 
BRANCH  19  18
ATOM     18  C   UNL     1       5.897 -16.190 -10.136  0.00  0.00    +0.000 C 
BRANCH  18  17
ATOM     17  C   UNL     1       5.876 -14.660 -10.127  0.00  0.00    +0.000 C 
BRANCH  17  16
ATOM     16  C   UNL     1       5.160 -14.167  -8.868  0.00  0.00    +0.000 C 
BRANCH  16  15
ATOM     15  C   UNL     1       5.140 -12.637  -8.860  0.00  0.00    +0.000 C 
BRANCH  15  14
ATOM     14  C   UNL     1       4.423 -12.144  -7.601  0.00  0.00    +0.000 C 
BRANCH  14  13
ATOM     13  C   UNL     1       4.403 -10.614  -7.593  0.00  0.00    +0.000 C 
BRANCH  13  12
ATOM     12  C   UNL     1       3.687 -10.120  -6.334  0.00  0.00    +0.000 C 
BRANCH  12  11
ATOM     11  C   UNL     1       3.666  -8.591  -6.326  0.00  0.00    +0.000 C 
BRANCH  11  10
ATOM     10  C   UNL     1       2.950  -8.097  -5.067  0.00  0.00    +0.000 C 
BRANCH  10   9
ATOM      9  C   UNL     1       2.929  -6.567  -5.058  0.00  0.00    +0.000 C 
BRANCH   9   8
ATOM      8  C   UNL     1       2.213  -6.074  -3.800  0.00  0.00    +0.000 C 
BRANCH   8   7
ATOM      7  C   UNL     1       2.192  -4.544  -3.791  0.00  0.00    +0.000 C 
BRANCH   7   6
ATOM      6  C   UNL     1       1.476  -4.051  -2.532  0.00  0.00    +0.000 C 
BRANCH   6   5
ATOM      5  C   UNL     1       1.455  -2.521  -2.524  0.00  0.00    +0.000 C 
BRANCH   5   4
ATOM      4  C   UNL     1       0.739  -2.027  -1.265  0.00  0.00    -0.000 C 
BRANCH   4   3
ATOM      3  C   UNL     1       0.718  -0.498  -1.257  0.00  0.00    -0.000 C 
BRANCH   3   2
ATOM      1  C   UNL     1      -0.019   1.526   0.010  0.00  0.00    +0.006 C 
ATOM      2  C   UNL     1       0.002  -0.004   0.002  0.00  0.00    -0.006 C 
ENDBRANCH   3   2
ENDBRANCH   4   3
ENDBRANCH   5   4
ENDBRANCH   6   5
ENDBRANCH   7   6
ENDBRANCH   8   7
ENDBRANCH   9   8
ENDBRANCH  10   9
ENDBRANCH  11  10
ENDBRANCH  12  11
ENDBRANCH  13  12
ENDBRANCH  14  13
ENDBRANCH  15  14
ENDBRANCH  16  15
ENDBRANCH  17  16
ENDBRANCH  18  17
ENDBRANCH  19  18
ENDBRANCH  20  19
ENDBRANCH  21  20
ENDBRANCH  22  21
ENDBRANCH  23  22
ENDBRANCH  24  23
ENDBRANCH  25  24
ENDBRANCH  26  25
BRANCH  26  27
ATOM     27  O   UNL     1       9.514 -24.744 -16.380  0.00  0.00    -0.355 OA
BRANCH  27  28
ATOM     28  C   UNL     1       9.618 -26.073 -16.541  0.00  0.00    +0.459 C 
ATOM     52  O   UNL     1       9.157 -26.820 -15.711  0.00  0.00    -0.507 OA
BRANCH  28  29
ATOM     29  C   UNL     1      10.311 -26.633 -17.756  0.00  0.00    +0.099 C 
BRANCH  29  30
ATOM     30  C   UNL     1      10.292 -28.161 -17.695  0.00  0.00    +0.033 C 
BRANCH  30  31
ATOM     31  C   UNL     1      10.995 -28.730 -18.929  0.00  0.00    +0.010 C 
BRANCH  31  32
ATOM     32  C   UNL     1      10.976 -30.258 -18.868  0.00  0.00    +0.004 C 
BRANCH  32  33
ATOM     33  C   UNL     1      11.679 -30.827 -20.102  0.00  0.00    +0.002 C 
BRANCH  33  34
ATOM     34  C   UNL     1      11.661 -32.356 -20.041  0.00  0.00    +0.000 C 
BRANCH  34  35
ATOM     35  C   UNL     1      12.364 -32.924 -21.275  0.00  0.00    +0.000 C 
BRANCH  35  36
ATOM     36  C   UNL     1      12.345 -34.453 -21.214  0.00  0.00    -0.000 C 
BRANCH  36  37
ATOM     37  C   UNL     1      13.048 -35.021 -22.448  0.00  0.00    +0.000 C 
BRANCH  37  38
ATOM     38  C   UNL     1      13.030 -36.550 -22.387  0.00  0.00    -0.000 C 
BRANCH  38  39
ATOM     39  C   UNL     1      13.733 -37.118 -23.621  0.00  0.00    +0.000 C 
BRANCH  39  40
ATOM     40  C   UNL     1      13.714 -38.647 -23.560  0.00  0.00    +0.000 C 
BRANCH  40  41
ATOM     41  C   UNL     1      14.417 -39.216 -24.794  0.00  0.00    +0.000 C 
BRANCH  41  42
ATOM     42  C   UNL     1      14.398 -40.744 -24.733  0.00  0.00    +0.000 C 
BRANCH  42  43
ATOM     43  C   UNL     1      15.101 -41.313 -25.967  0.00  0.00    +0.000 C 
BRANCH  43  44
ATOM     44  C   UNL     1      15.083 -42.842 -25.906  0.00  0.00    +0.000 C 
BRANCH  44  45
ATOM     45  C   UNL     1      15.786 -43.410 -27.140  0.00  0.00    +0.000 C 
BRANCH  45  46
ATOM     46  C   UNL     1      15.767 -44.939 -27.079  0.00  0.00    +0.000 C 
BRANCH  46  47
ATOM     47  C   UNL     1      16.470 -45.507 -28.313  0.00  0.00    +0.000 C 
BRANCH  47  48
ATOM     48  C   UNL     1      16.452 -47.036 -28.252  0.00  0.00    -0.000 C 
BRANCH  48  49
ATOM     49  C   UNL     1      17.155 -47.604 -29.486  0.00  0.00    -0.000 C 
BRANCH  49  50
ATOM     50  C   UNL     1      17.136 -49.133 -29.424  0.00  0.00    -0.006 C 
ATOM     51  C   UNL     1      17.839 -49.702 -30.659  0.00  0.00    +0.006 C 
ENDBRANCH  49  50
ENDBRANCH  48  49
ENDBRANCH  47  48
ENDBRANCH  46  47
ENDBRANCH  45  46
ENDBRANCH  44  45
ENDBRANCH  43  44
ENDBRANCH  42  43
ENDBRANCH  41  42
ENDBRANCH  40  41
ENDBRANCH  39  40
ENDBRANCH  38  39
ENDBRANCH  37  38
ENDBRANCH  36  37
ENDBRANCH  35  36
ENDBRANCH  34  35
ENDBRANCH  33  34
ENDBRANCH  32  33
ENDBRANCH  31  32
ENDBRANCH  30  31
ENDBRANCH  29  30
ENDBRANCH  28  29
ENDBRANCH  27  28
ENDBRANCH  26  27
TORSDOF 48
