REMARK  Name = ZINC33832344
REMARK  2 active torsions:
REMARK  status: ('A' for Active; 'I' for Inactive)
REMARK    1  A    between atoms: C9_12  and  O4_25
REMARK    2  A    between atoms: C10_14  and  O3_24
REMARK                            x       y       z     vdW  Elec       q    Type
REMARK                         _______ _______ _______ _____ _____    ______ ____
ROOT
ATOM      1  C   UNL     1      -0.017   1.380   0.010  0.00  0.00    +0.062 A 
ATOM      2  C   UNL     1       1.206   2.053   0.002  0.00  0.00    -0.120 A 
ATOM      3  C   UNL     1       2.400   1.356  -0.035  0.00  0.00    -0.071 A 
ATOM      4  C   UNL     1       3.688   2.095  -0.144  0.00  0.00    +0.069 C 
ATOM      5  C   UNL     1       4.893   1.421   0.490  0.00  0.00    +0.212 C 
ATOM      8  C   UNL     1       6.173   2.199   0.194  0.00  0.00    +0.182 C 
ATOM     11  C   UNL     1       5.947   3.622  -0.225  0.00  0.00    +0.036 C 
ATOM     12  C   UNL     1       4.793   4.200  -0.159  0.00  0.00    -0.155 C 
ATOM     13  C   UNL     1       4.263   5.530  -0.631  0.00  0.00    +0.143 C 
ATOM     14  C   UNL     1       2.773   5.218  -0.925  0.00  0.00    +0.278 C 
ATOM     15  N   UNL     1       2.417   4.207   0.055  0.00  0.00    -0.367 N 
ATOM     16  H   UNL     1       2.307   4.810   0.857  0.00  0.00    +0.411 HD
ATOM     17  C   UNL     1       3.590   3.486   0.492  0.00  0.00    +0.207 C 
ATOM     18  C   UNL     1       2.427  -0.037  -0.018  0.00  0.00    +0.102 A 
ATOM     19  C   UNL     1       1.216  -0.709  -0.005  0.00  0.00    +0.053 A 
ATOM     20  O   UNL     1       0.950  -2.035   0.005  0.00  0.00    -0.296 OA
ATOM     21  C   UNL     1      -0.434  -2.153  -0.388  0.00  0.00    +0.450 C 
ATOM     22  O   UNL     1      -1.018  -0.893   0.003  0.00  0.00    -0.298 OA
ATOM     23  C   UNL     1       1.162   3.558   0.061  0.00  0.00    +0.337 C 
ATOM     24  C   UNL     1       0.002  -0.004   0.002  0.00  0.00    +0.051 A 
ENDROOT
BRANCH   5   6
ATOM      6  O   UNL     1       5.018   0.097  -0.033  0.00  0.00    -0.532 OA
ATOM      7  H   UNL     1       5.768  -0.398   0.326  0.00  0.00    +0.395 HD
ENDBRANCH   5   6
BRANCH   8   9
ATOM      9  O   UNL     1       6.881   1.528  -0.850  0.00  0.00    -0.539 OA
ATOM     10  H   UNL     1       7.710   1.957  -1.101  0.00  0.00    +0.391 HD
ENDBRANCH   8   9
TORSDOF 2
