REMARK  Name = ZINC95486363
REMARK  6 active torsions:
REMARK  status: ('A' for Active; 'I' for Inactive)
REMARK    1  A    between atoms: C1_1  and  C2_2
REMARK    2  A    between atoms: C2_2  and  O2_4
REMARK    3  A    between atoms: O2_4  and  C3_5
REMARK    4  A    between atoms: C9_15  and  C21_32
REMARK    5  A    between atoms: C18_29  and  C19_30
REMARK    6  A    between atoms: C18_29  and  C20_31
REMARK                            x       y       z     vdW  Elec       q    Type
REMARK                         _______ _______ _______ _____ _____    ______ ____
ROOT
ATOM      4  C   UNL     1      -1.361  -1.904   0.938  0.00  0.00    +0.210 C 
ATOM      5  C   UNL     1      -1.034  -1.749  -0.550  0.00  0.00    +0.045 C 
ATOM      6  C   UNL     1      -0.035  -2.764  -1.083  0.00  0.00    +0.134 C 
ATOM      7  C   UNL     1      -0.433  -3.687  -2.236  0.00  0.00    +0.137 C 
ATOM      8  C   UNL     1       0.007  -5.145  -2.191  0.00  0.00    +0.052 C 
ATOM      9  C   UNL     1      -0.941  -6.086  -2.915  0.00  0.00    +0.066 C 
ATOM     10  C   UNL     1      -2.171  -6.536  -2.134  0.00  0.00    +0.034 C 
ATOM     11  C   UNL     1      -3.503  -6.246  -2.858  0.00  0.00    +0.080 C 
ATOM     12  C   UNL     1      -2.127  -6.761  -0.635  0.00  0.00    +0.144 C 
ATOM     13  C   UNL     1      -3.328  -6.469   0.258  0.00  0.00    +0.058 C 
ATOM     14  C   UNL     1      -3.099  -5.331   1.252  0.00  0.00    +0.012 C 
ATOM     15  C   UNL     1      -4.398  -4.793   1.850  0.00  0.00    +0.040 C 
ATOM     16  C   UNL     1      -3.958  -3.917   3.026  0.00  0.00    +0.394 C 
ATOM     17  C   UNL     1      -2.905  -2.931   2.670  0.00  0.00    -0.194 C 
ATOM     18  C   UNL     1      -2.343  -2.186   3.623  0.00  0.00    +0.128 C 
ATOM     19  O   UNL     1      -4.425  -4.015   4.144  0.00  0.00    -0.446 OA
ATOM     20  C   UNL     1      -2.316  -4.197   0.645  0.00  0.00    -0.039 C 
ATOM     21  C   UNL     1      -0.857  -4.557   0.866  0.00  0.00    +0.026 C 
ATOM     22  C   UNL     1      -2.787  -4.061  -0.793  0.00  0.00    +0.030 C 
ATOM     23  O   UNL     1      -2.156  -7.854  -1.554  0.00  0.00    -0.371 OA
ATOM     24  O   UNL     1       0.515  -2.631  -2.398  0.00  0.00    -0.359 OA
ATOM     25  C   UNL     1      -2.540  -2.826   1.226  0.00  0.00    +0.069 C 
ENDROOT
BRANCH   4   3
ATOM      3  O   UNL     1      -1.701  -0.579   1.412  0.00  0.00    -0.356 OA
BRANCH   3   2
ATOM      1  C   UNL     1      -0.965   1.592   2.327  0.00  0.00    +0.156 C 
ATOM      2  C   UNL     1      -0.688   0.200   1.821  0.00  0.00    +0.455 C 
ATOM     26  O   UNL     1       0.447  -0.215   1.784  0.00  0.00    -0.506 OA
ENDBRANCH   3   2
ENDBRANCH   4   3
TORSDOF 2
