REMARK  Name = ZINC95485960
REMARK  10 active torsions:
REMARK  status: ('A' for Active; 'I' for Inactive)
REMARK    1  A    between atoms: C1_1  and  C2_2
REMARK    2  A    between atoms: C2_2  and  C4_4
REMARK    3  A    between atoms: C7_8  and  C31_37
REMARK    4  A    between atoms: C8_9  and  C30_36
REMARK    5  A    between atoms: C13_16  and  C29_35
REMARK    6  A    between atoms: C16_19  and  O1_34
REMARK    7  A    between atoms: C17_21  and  C27_32
REMARK    8  A    between atoms: C17_21  and  C28_33
REMARK    9  A    between atoms: C21_26  and  C26_31
REMARK   10  A    between atoms: C22_27  and  C25_30
REMARK                            x       y       z     vdW  Elec       q    Type
REMARK                         _______ _______ _______ _____ _____    ______ ____
ROOT
ATOM      3  C   UNL     1      -0.903  -1.266   0.860  0.00  0.00    +0.019 C 
ATOM      4  C   UNL     1      -1.767  -1.513  -0.391  0.00  0.00    +0.011 C 
ATOM      5  C   UNL     1      -3.196  -1.070  -0.022  0.00  0.00    +0.004 C 
ATOM      6  C   UNL     1      -3.212  -1.146   1.517  0.00  0.00    -0.117 C 
ATOM     10  C   UNL     1      -4.361  -0.350   2.087  0.00  0.00    +0.024 C 
ATOM     11  C   UNL     1      -4.181   1.136   1.777  0.00  0.00    +0.001 C 
ATOM     12  C   UNL     1      -2.913   1.630   2.481  0.00  0.00    -0.030 C 
ATOM     13  C   UNL     1      -3.109   1.485   3.994  0.00  0.00    +0.015 C 
ATOM     14  C   UNL     1      -2.732   3.134   2.177  0.00  0.00    -0.029 C 
ATOM     15  C   UNL     1      -3.913   3.832   2.883  0.00  0.00    +0.012 C 
ATOM     16  C   UNL     1      -2.866   3.349   0.674  0.00  0.00    +0.014 C 
ATOM     17  C   UNL     1      -2.719   4.818   0.314  0.00  0.00    +0.003 C 
ATOM     18  C   UNL     1      -1.415   5.435   0.806  0.00  0.00    +0.004 C 
ATOM     19  C   UNL     1      -0.339   5.401  -0.256  0.00  0.00    -0.033 C 
ATOM     20  C   UNL     1      -0.709   6.442  -1.343  0.00  0.00    +0.018 C 
ATOM     21  C   UNL     1      -0.235   4.045  -0.957  0.00  0.00    +0.030 C 
ATOM     22  C   UNL     1       1.040   5.799   0.267  0.00  0.00    +0.165 C 
ATOM     25  C   UNL     1       1.364   5.009   1.532  0.00  0.00    -0.019 C 
ATOM     26  C   UNL     1       0.376   5.393   2.619  0.00  0.00    +0.018 C 
ATOM     27  C   UNL     1      -1.080   5.098   2.230  0.00  0.00    -0.024 C 
ATOM     28  C   UNL     1      -1.883   6.090   3.127  0.00  0.00    +0.001 C 
ATOM     29  C   UNL     1      -1.417   3.678   2.690  0.00  0.00    +0.008 C 
ATOM     30  C   UNL     1      -0.225   2.777   2.358  0.00  0.00    +0.001 C 
ATOM     31  C   UNL     1      -0.498   1.332   2.794  0.00  0.00    -0.001 C 
ATOM     32  C   UNL     1      -1.703   0.854   1.975  0.00  0.00    +0.021 C 
ATOM     33  C   UNL     1      -1.817  -0.653   1.952  0.00  0.00    +0.003 C 
ATOM     34  C   UNL     1      -1.457  -1.278   3.317  0.00  0.00    +0.020 C 
ENDROOT
BRANCH   3   2
ATOM      1  C   UNL     1       0.162   0.629  -0.571  0.00  0.00    +0.067 C 
ATOM      2  C   UNL     1       0.288  -0.439   0.484  0.00  0.00    -0.084 C 
ATOM     35  C   UNL     1       1.440  -0.644   1.073  0.00  0.00    -0.039 C 
ENDBRANCH   3   2
BRANCH   6   7
ATOM      7  C   UNL     1      -3.369  -2.588   1.933  0.00  0.00    +0.507 C 
ATOM      8  O   UNL     1      -3.862  -2.860   3.015  0.00  0.00    -0.701 OA
ATOM      9  O   UNL     1      -3.002  -3.481   1.189  0.00  0.00    -0.698 OA
ENDBRANCH   6   7
BRANCH  22  23
ATOM     23  O   UNL     1       1.060   7.199   0.551  0.00  0.00    -0.561 OA
ATOM     24  H   UNL     1       1.912   7.523   0.875  0.00  0.00    +0.370 HD
ENDBRANCH  22  23
TORSDOF 3
