REMARK  Name = ZINC03994270
REMARK  10 active torsions:
REMARK  status: ('A' for Active; 'I' for Inactive)
REMARK    1  A    between atoms: C1_1  and  C2_2
REMARK    2  A    between atoms: C5_5  and  O2_36
REMARK    3  A    between atoms: C6_7  and  C29_34
REMARK    4  A    between atoms: C6_7  and  C30_35
REMARK    5  A    between atoms: C10_12  and  C28_33
REMARK    6  A    between atoms: C15_18  and  C27_32
REMARK    7  A    between atoms: C18_21  and  C26_30
REMARK    8  A    between atoms: C21_25  and  C24_28
REMARK    9  A    between atoms: C21_25  and  C25_29
REMARK   10  A    between atoms: C26_30  and  O1_31
REMARK                            x       y       z     vdW  Elec       q    Type
REMARK                         _______ _______ _______ _____ _____    ______ ____
ROOT
ATOM      1  C   UNL     1      -0.029   1.511   0.482  0.00  0.00    +0.026 C 
ATOM      2  C   UNL     1      -0.022  -0.012   0.404  0.00  0.00    -0.034 C 
ATOM      3  C   UNL     1      -1.483  -0.492   0.498  0.00  0.00    +0.017 C 
ATOM      4  C   UNL     1      -2.061  -0.111   1.858  0.00  0.00    -0.018 C 
ATOM      5  C   UNL     1      -1.291  -0.808   2.973  0.00  0.00    +0.164 C 
ATOM      8  C   UNL     1       0.203  -0.481   2.925  0.00  0.00    -0.038 C 
ATOM      9  C   UNL     1       0.453   0.910   3.506  0.00  0.00    +0.034 C 
ATOM     10  C   UNL     1       0.901  -1.497   3.863  0.00  0.00    +0.018 C 
ATOM     11  C   UNL     1       0.540  -0.494  -0.934  0.00  0.00    +0.006 C 
ATOM     12  C   UNL     1      -0.131   0.234  -2.100  0.00  0.00    +0.059 C 
ATOM     13  C   UNL     1       0.420  -0.301  -3.393  0.00  0.00    -0.064 C 
ATOM     14  C   UNL     1       1.572  -0.895  -3.497  0.00  0.00    -0.094 C 
ATOM     15  C   UNL     1       2.493  -1.152  -2.332  0.00  0.00    -0.000 C 
ATOM     16  C   UNL     1       2.402  -2.657  -2.042  0.00  0.00    +0.020 C 
ATOM     17  C   UNL     1       3.941  -0.845  -2.688  0.00  0.00    +0.022 C 
ATOM     18  C   UNL     1       4.338  -1.448  -4.037  0.00  0.00    +0.020 C 
ATOM     19  C   UNL     1       3.420  -0.923  -5.144  0.00  0.00    -0.036 C 
ATOM     23  C   UNL     1       3.881  -1.464  -6.497  0.00  0.00    +0.023 C 
ATOM     24  C   UNL     1       2.933  -1.029  -7.607  0.00  0.00    +0.013 C 
ATOM     25  C   UNL     1       1.491  -1.432  -7.320  0.00  0.00    -0.061 C 
ATOM     26  C   UNL     1       0.583  -0.796  -8.386  0.00  0.00    +0.016 C 
ATOM     27  C   UNL     1       1.345  -2.953  -7.407  0.00  0.00    +0.020 C 
ATOM     28  C   UNL     1       1.043  -0.940  -5.944  0.00  0.00    +0.025 C 
ATOM     29  C   UNL     1       2.000  -1.409  -4.859  0.00  0.00    +0.042 C 
ATOM     30  C   UNL     1       2.052  -0.386  -1.081  0.00  0.00    -0.024 C 
ATOM     31  C   UNL     1       2.455   1.085  -1.281  0.00  0.00    +0.017 C 
ATOM     32  C   UNL     1       2.786  -0.913   0.148  0.00  0.00    +0.015 C 
ATOM     33  C   UNL     1       2.239  -0.249   1.425  0.00  0.00    +0.017 C 
ATOM     34  C   UNL     1       0.769  -0.654   1.535  0.00  0.00    -0.001 C 
ENDROOT
BRANCH   5   6
ATOM      6  O   UNL     1      -1.819  -0.409   4.241  0.00  0.00    -0.564 OA
ATOM      7  H   UNL     1      -2.754  -0.624   4.363  0.00  0.00    +0.375 HD
ENDBRANCH   5   6
BRANCH  19  20
ATOM     20  C   UNL     1       3.471   0.604  -5.164  0.00  0.00    +0.179 C 
BRANCH  20  21
ATOM     21  O   UNL     1       4.811   1.032  -5.413  0.00  0.00    -0.570 OA
ATOM     22  H   UNL     1       4.919   1.993  -5.439  0.00  0.00    +0.375 HD
ENDBRANCH  20  21
ENDBRANCH  19  20
TORSDOF 3
