REMARK  Name = ZINC95486306
REMARK  6 active torsions:
REMARK  status: ('A' for Active; 'I' for Inactive)
REMARK    1  A    between atoms: C1_1  and  C2_2
REMARK    2  A    between atoms: C12_16  and  O3_27
REMARK    3  A    between atoms: C13_17  and  C20_26
REMARK    4  A    between atoms: C14_18  and  O2_25
REMARK    5  A    between atoms: C17_22  and  C18_23
REMARK    6  A    between atoms: C17_22  and  C19_24
REMARK                            x       y       z     vdW  Elec       q    Type
REMARK                         _______ _______ _______ _____ _____    ______ ____
ROOT
ATOM      1  C   UNL     1      -0.134   1.633  -0.006  0.00  0.00    +0.030 C 
ATOM      2  C   UNL     1      -0.134   0.106  -0.057  0.00  0.00    +0.058 C 
ATOM      3  C   UNL     1       0.512  -0.331  -1.344  0.00  0.00    -0.174 A 
ATOM      4  C   UNL     1      -0.032  -0.326  -2.642  0.00  0.00    -0.056 A 
ATOM      5  C   UNL     1       0.927  -0.797  -3.463  0.00  0.00    +0.151 A 
ATOM      6  O   UNL     1       2.017  -1.081  -2.726  0.00  0.00    -0.175 OA
ATOM      7  C   UNL     1       1.763  -0.819  -1.438  0.00  0.00    -0.013 A 
ATOM      8  C   UNL     1       2.674  -1.038  -0.256  0.00  0.00    +0.127 C 
ATOM      9  C   UNL     1       2.136  -0.281   0.964  0.00  0.00    +0.057 C 
ATOM     10  C   UNL     1       2.888  -0.775   2.216  0.00  0.00    -0.018 C 
ATOM     11  C   UNL     1       2.653  -2.279   2.373  0.00  0.00    +0.041 C 
ATOM     12  C   UNL     1       4.384  -0.533   2.018  0.00  0.00    +0.166 C 
ATOM     15  C   UNL     1       5.146  -0.895   3.291  0.00  0.00    -0.021 C 
ATOM     16  C   UNL     1       4.674  -0.025   4.448  0.00  0.00    +0.030 C 
ATOM     17  C   UNL     1       3.174  -0.171   4.696  0.00  0.00    -0.075 C 
ATOM     18  C   UNL     1       2.889  -1.488   5.416  0.00  0.00    +0.027 C 
ATOM     19  C   UNL     1       2.774   0.971   5.663  0.00  0.00    +0.019 C 
ATOM     20  C   UNL     1       2.366  -0.007   3.423  0.00  0.00    +0.173 C 
ATOM     23  C   UNL     1       0.894  -0.379   3.639  0.00  0.00    -0.014 C 
ATOM     24  C   UNL     1       0.101   0.106   2.420  0.00  0.00    +0.023 C 
ATOM     25  C   UNL     1       0.634  -0.503   1.126  0.00  0.00    -0.002 C 
ENDROOT
BRANCH  12  13
ATOM     13  O   UNL     1       4.627   0.833   1.682  0.00  0.00    -0.539 OA
ATOM     14  H   UNL     1       5.560   1.045   1.544  0.00  0.00    +0.368 HD
ENDBRANCH  12  13
BRANCH  20  21
ATOM     21  O   UNL     1       2.392   1.402   3.086  0.00  0.00    -0.543 OA
ATOM     22  H   UNL     1       2.023   1.977   3.771  0.00  0.00    +0.362 HD
ENDBRANCH  20  21
TORSDOF 2
