REMARK  Name = ZINC95486269
REMARK  7 active torsions:
REMARK  status: ('A' for Active; 'I' for Inactive)
REMARK    1  A    between atoms: C1_1  and  C2_2
REMARK    2  A    between atoms: C2_2  and  C23_33
REMARK    3  A    between atoms: C12_16  and  O7_32
REMARK    4  A    between atoms: C15_19  and  O6_30
REMARK    5  A    between atoms: C16_20  and  O5_28
REMARK    6  A    between atoms: O5_28  and  C21_29
REMARK    7  A    between atoms: O6_30  and  C22_31
REMARK                            x       y       z     vdW  Elec       q    Type
REMARK                         _______ _______ _______ _____ _____    ______ ____
ROOT
ATOM      1  C   UNL     1      -0.019   1.526   0.010  0.00  0.00    +0.094 C 
ATOM      2  C   UNL     1       0.002  -0.004   0.002  0.00  0.00    -0.098 C 
ATOM      3  C   UNL     1       1.147  -0.644  -0.786  0.00  0.00    +0.071 C 
ATOM      4  C   UNL     1      -1.346  -0.728   0.001  0.00  0.00    +0.009 C 
ATOM      5  C   UNL     1      -1.386  -2.181  -0.420  0.00  0.00    -0.191 A 
ATOM      6  C   UNL     1      -2.018  -2.810  -1.477  0.00  0.00    +0.240 A 
ATOM      7  C   UNL     1      -1.879  -4.202  -1.627  0.00  0.00    -0.275 A 
ATOM      8  C   UNL     1      -2.541  -4.878  -2.759  0.00  0.00    +0.394 C 
ATOM      9  C   UNL     1      -3.075  -3.953  -3.833  0.00  0.00    +0.116 C 
ATOM     12  C   UNL     1      -4.100  -4.635  -4.692  0.00  0.00    -0.203 A 
ATOM     13  C   UNL     1      -3.913  -5.956  -5.061  0.00  0.00    +0.046 A 
ATOM     14  C   UNL     1      -4.843  -6.598  -5.859  0.00  0.00    +0.068 A 
ATOM     17  C   UNL     1      -5.971  -5.910  -6.294  0.00  0.00    +0.155 A 
ATOM     20  C   UNL     1      -6.160  -4.591  -5.923  0.00  0.00    -0.061 A 
ATOM     21  C   UNL     1      -5.228  -3.947  -5.116  0.00  0.00    +0.159 A 
ATOM     22  O   UNL     1      -5.468  -2.658  -4.759  0.00  0.00    -0.298 OA
ATOM     23  C   UNL     1      -4.419  -1.898  -4.152  0.00  0.00    +0.304 C 
ATOM     24  C   UNL     1      -3.748  -2.780  -3.101  0.00  0.00    +0.171 C 
ATOM     25  O   UNL     1      -2.651  -6.085  -2.824  0.00  0.00    -0.422 OA
ATOM     26  C   UNL     1      -1.115  -4.930  -0.712  0.00  0.00    +0.168 A 
ATOM     27  C   UNL     1      -0.503  -4.285   0.384  0.00  0.00    -0.036 A 
ATOM     28  O   UNL     1      -2.762  -2.081  -2.350  0.00  0.00    -0.276 OA
ATOM     29  C   UNL     1      -0.628  -2.896   0.523  0.00  0.00    +0.183 A 
ATOM     30  O   UNL     1      -0.100  -2.086   1.472  0.00  0.00    -0.254 OA
ATOM     31  C   UNL     1      -0.471  -0.723   1.267  0.00  0.00    +0.179 C 
ENDROOT
BRANCH   9  10
ATOM     10  O   UNL     1      -1.994  -3.468  -4.632  0.00  0.00    -0.515 OA
ATOM     11  H   UNL     1      -1.494  -4.163  -5.080  0.00  0.00    +0.388 HD
ENDBRANCH   9  10
BRANCH  14  15
ATOM     15  O   UNL     1      -4.654  -7.897  -6.218  0.00  0.00    -0.303 OA
ATOM     16  C   UNL     1      -3.472  -8.539  -5.735  0.00  0.00    +0.239 C 
ENDBRANCH  14  15
BRANCH  17  18
ATOM     18  O   UNL     1      -6.887  -6.533  -7.083  0.00  0.00    -0.297 OA
ATOM     19  C   UNL     1      -8.021  -5.766  -7.492  0.00  0.00    +0.245 C 
ENDBRANCH  17  18
TORSDOF 3
