REMARK  Name = ZINC15121560
REMARK  8 active torsions:
REMARK  status: ('A' for Active; 'I' for Inactive)
REMARK    1  A    between atoms: C1_1  and  C2_2
REMARK    2  A    between atoms: C4_4  and  O3_27
REMARK    3  A    between atoms: C7_7  and  C8_8
REMARK    4  A    between atoms: C13_13  and  O1_14
REMARK    5  A    between atoms: C14_15  and  C18_21
REMARK    6  A    between atoms: C15_17  and  C17_20
REMARK    7  A    between atoms: C22_25  and  O2_26
REMARK    8  A    between atoms: O3_27  and  C23_28
REMARK                            x       y       z     vdW  Elec       q    Type
REMARK                         _______ _______ _______ _____ _____    ______ ____
ROOT
ATOM     16  C   UNL     1       0.020  -2.890  -0.015  0.00  0.00    -0.029 A 
ATOM     17  C   UNL     1      -0.589  -3.252  -1.216  0.00  0.00    +0.073 A 
ATOM     18  C   UNL     1      -1.752  -3.991  -1.198  0.00  0.00    +0.028 A 
ATOM     19  C   UNL     1      -2.331  -4.371   0.006  0.00  0.00    -0.076 A 
ATOM     20  C   UNL     1      -1.742  -4.011   1.200  0.00  0.00    -0.154 A 
ATOM     21  C   UNL     1      -2.342  -4.391   2.529  0.00  0.00    +0.238 C 
ATOM     22  N   UNL     1      -3.309  -5.485   2.366  0.00  0.00    -0.510 N 
ATOM     23  H   UNL     1      -2.813  -6.340   2.089  0.00  0.00    +0.434 HD
ATOM     24  H   UNL     1      -3.795  -5.645   3.256  0.00  0.00    +0.435 HD
ATOM     25  C   UNL     1      -4.295  -5.133   1.327  0.00  0.00    +0.170 C 
ATOM     26  C   UNL     1      -5.445  -6.142   1.354  0.00  0.00    +0.094 C 
ATOM     27  C   UNL     1      -3.050  -3.174   3.130  0.00  0.00    +0.093 C 
ATOM     28  C   UNL     1      -3.603  -5.179  -0.035  0.00  0.00    +0.130 C 
ATOM     29  C   UNL     1      -0.565  -3.272   1.196  0.00  0.00    +0.146 A 
ENDROOT
BRANCH  16  15
ATOM      1  C   UNL     1       2.551  -4.251  -0.047  0.00  0.00    +0.096 C 
ATOM      2  C   UNL     1       2.499  -2.745  -0.037  0.00  0.00    +0.006 A 
ATOM      3  C   UNL     1       3.682  -2.018  -0.045  0.00  0.00    -0.100 A 
ATOM      4  C   UNL     1       3.666  -0.640  -0.037  0.00  0.00    +0.179 A 
ATOM      7  C   UNL     1       2.436   0.047  -0.021  0.00  0.00    -0.108 A 
ATOM      8  C   UNL     1       1.226  -0.688  -0.013  0.00  0.00    +0.025 A 
ATOM      9  C   UNL     1       0.002  -0.004   0.002  0.00  0.00    -0.024 A 
ATOM     10  C   UNL     1      -0.016   1.359   0.009  0.00  0.00    +0.060 A 
ATOM     11  C   UNL     1       1.166   2.091   0.002  0.00  0.00    -0.033 A 
ATOM     12  C   UNL     1       2.388   1.455  -0.012  0.00  0.00    +0.159 A 
ATOM     15  C   UNL     1       1.274  -2.103  -0.022  0.00  0.00    -0.115 A 
BRANCH   4   5
ATOM      5  O   UNL     1       4.833   0.055  -0.045  0.00  0.00    -0.292 OA
ATOM      6  C   UNL     1       6.041  -0.708  -0.062  0.00  0.00    +0.248 C 
ENDBRANCH   4   5
BRANCH  12  13
ATOM     13  O   UNL     1       3.537   2.179  -0.020  0.00  0.00    -0.480 OA
ATOM     14  H   UNL     1       3.861   2.394  -0.905  0.00  0.00    +0.397 HD
ENDBRANCH  12  13
ENDBRANCH  16  15
BRANCH  29  30
ATOM     30  O   UNL     1       0.018  -2.919   2.371  0.00  0.00    -0.485 OA
ATOM     31  H   UNL     1      -0.282  -2.069   2.720  0.00  0.00    +0.397 HD
ENDBRANCH  29  30
TORSDOF 4
