REMARK  Name = ZINC95486023
REMARK  10 active torsions:
REMARK  status: ('A' for Active; 'I' for Inactive)
REMARK    1  A    between atoms: C1_1  and  C2_2
REMARK    2  A    between atoms: C6_6  and  C24_30
REMARK    3  A    between atoms: C7_7  and  C13_15
REMARK    4  A    between atoms: C8_8  and  O2_14
REMARK    5  A    between atoms: C10_10  and  O1_12
REMARK    6  A    between atoms: O1_12  and  C12_13
REMARK    7  A    between atoms: C14_16  and  O4_29
REMARK    8  A    between atoms: C18_20  and  O3_21
REMARK    9  A    between atoms: O3_21  and  C19_22
REMARK   10  A    between atoms: C21_25  and  C23_28
REMARK                            x       y       z     vdW  Elec       q    Type
REMARK                         _______ _______ _______ _____ _____    ______ ____
ROOT
ATOM      1  C   UNL     1      -0.018   1.503   0.010  0.00  0.00    +0.099 C 
ATOM      2  C   UNL     1       0.002  -0.004   0.002  0.00  0.00    -0.020 A 
ATOM      3  C   UNL     1       0.005  -0.667  -1.187  0.00  0.00    -0.025 A 
ATOM      4  C   UNL     1       0.024  -2.072  -1.207  0.00  0.00    +0.016 A 
ATOM      5  C   UNL     1       0.029  -2.779  -2.424  0.00  0.00    +0.018 A 
ATOM      6  C   UNL     1       0.047  -4.137  -2.423  0.00  0.00    -0.039 A 
ATOM      7  C   UNL     1       0.051  -4.881  -3.734  0.00  0.00    +0.095 C 
ATOM      8  C   UNL     1       0.062  -4.857  -1.219  0.00  0.00    -0.103 A 
ATOM     25  C   UNL     1       0.058  -4.192  -0.001  0.00  0.00    +0.175 A 
ATOM     28  C   UNL     1       0.040  -2.785   0.017  0.00  0.00    -0.108 A 
ATOM     29  C   UNL     1       0.036  -2.072   1.233  0.00  0.00    +0.159 A 
ATOM     32  C   UNL     1       0.023  -0.695   1.210  0.00  0.00    -0.090 A 
ENDROOT
BRANCH   8   9
ATOM      9  C   UNL     1       0.082  -6.339  -1.248  0.00  0.00    -0.083 A 
ATOM     10  C   UNL     1      -1.119  -7.056  -1.263  0.00  0.00    +0.232 A 
ATOM     13  C   UNL     1      -1.106  -8.445  -1.298  0.00  0.00    +0.004 A 
ATOM     14  C   UNL     1       0.090  -9.123  -1.314  0.00  0.00    +0.007 A 
ATOM     15  C   UNL     1       1.301  -8.421  -1.288  0.00  0.00    -0.216 A 
ATOM     16  C   UNL     1       2.559  -9.182  -1.271  0.00  0.00    +0.590 C 
ATOM     17  N   UNL     1       2.553 -10.436  -0.964  0.00  0.00    -0.536 N 
ATOM     18  H   UNL     1       3.389 -10.928  -0.988  0.00  0.00    +0.443 HD
ATOM     19  C   UNL     1       1.333 -11.140  -0.583  0.00  0.00    +0.227 C 
ATOM     20  C   UNL     1       1.079 -10.930   0.911  0.00  0.00    +0.078 C 
ATOM     21  C   UNL     1       0.128 -10.629  -1.370  0.00  0.00    +0.136 C 
ATOM     22  C   UNL     1       1.299  -7.023  -1.268  0.00  0.00    +0.217 A 
BRANCH  10  11
ATOM     11  O   UNL     1      -2.303  -6.392  -1.243  0.00  0.00    -0.475 OA
ATOM     12  H   UNL     1      -2.649  -6.177  -2.120  0.00  0.00    +0.412 HD
ENDBRANCH  10  11
BRANCH  22  23
ATOM     23  O   UNL     1       2.470  -6.337  -1.261  0.00  0.00    -0.324 OA
ATOM     24  C   UNL     1       3.037  -6.033   0.015  0.00  0.00    +0.254 C 
ENDBRANCH  22  23
ENDBRANCH   8   9
BRANCH  25  26
ATOM     26  O   UNL     1       0.072  -4.892   1.163  0.00  0.00    -0.471 OA
ATOM     27  H   UNL     1       0.959  -5.083   1.496  0.00  0.00    +0.380 HD
ENDBRANCH  25  26
BRANCH  29  30
ATOM     30  O   UNL     1       0.051  -2.737   2.417  0.00  0.00    -0.299 OA
ATOM     31  C   UNL     1       0.046  -1.945   3.606  0.00  0.00    +0.245 C 
ENDBRANCH  29  30
TORSDOF 5
