REMARK  Name = ZINC95486088
REMARK  10 active torsions:
REMARK  status: ('A' for Active; 'I' for Inactive)
REMARK    1  A    between atoms: C1_1  and  C2_2
REMARK    2  A    between atoms: C5_5  and  O2_36
REMARK    3  A    between atoms: C6_7  and  C29_34
REMARK    4  A    between atoms: C6_7  and  C30_35
REMARK    5  A    between atoms: C10_12  and  C28_33
REMARK    6  A    between atoms: C14_17  and  C27_32
REMARK    7  A    between atoms: C18_21  and  C26_30
REMARK    8  A    between atoms: C21_25  and  C24_28
REMARK    9  A    between atoms: C21_25  and  C25_29
REMARK   10  A    between atoms: C26_30  and  O1_31
REMARK                            x       y       z     vdW  Elec       q    Type
REMARK                         _______ _______ _______ _____ _____    ______ ____
ROOT
ATOM      1  C   UNL     1      -1.369   1.290  -1.214  0.00  0.00    +0.027 C 
ATOM      2  C   UNL     1      -1.328  -0.227  -1.134  0.00  0.00    -0.036 C 
ATOM      3  C   UNL     1      -2.745  -0.754  -1.424  0.00  0.00    +0.019 C 
ATOM      4  C   UNL     1      -3.697  -0.290  -0.325  0.00  0.00    -0.018 C 
ATOM      5  C   UNL     1      -3.274  -0.868   1.019  0.00  0.00    +0.166 C 
ATOM      8  C   UNL     1      -1.833  -0.498   1.375  0.00  0.00    -0.038 C 
ATOM      9  C   UNL     1      -1.772   0.940   1.886  0.00  0.00    +0.034 C 
ATOM     10  C   UNL     1      -1.429  -1.418   2.554  0.00  0.00    +0.018 C 
ATOM     11  C   UNL     1      -0.382  -0.839  -2.172  0.00  0.00    +0.002 C 
ATOM     12  C   UNL     1      -0.771  -0.542  -3.601  0.00  0.00    +0.013 C 
ATOM     13  C   UNL     1       0.106  -1.243  -4.630  0.00  0.00    +0.012 C 
ATOM     14  C   UNL     1       1.212  -2.112  -4.023  0.00  0.00    -0.001 C 
ATOM     15  C   UNL     1       0.577  -3.382  -3.461  0.00  0.00    +0.024 C 
ATOM     16  C   UNL     1       1.910  -1.343  -2.946  0.00  0.00    -0.096 C 
ATOM     17  C   UNL     1       3.205  -1.261  -2.846  0.00  0.00    -0.055 C 
ATOM     18  C   UNL     1       4.179  -1.818  -3.833  0.00  0.00    +0.066 C 
ATOM     19  C   UNL     1       3.549  -2.946  -4.660  0.00  0.00    -0.037 C 
ATOM     23  C   UNL     1       4.446  -3.143  -5.897  0.00  0.00    +0.024 C 
ATOM     24  C   UNL     1       3.858  -4.180  -6.842  0.00  0.00    +0.012 C 
ATOM     25  C   UNL     1       2.440  -3.820  -7.273  0.00  0.00    -0.064 C 
ATOM     26  C   UNL     1       2.452  -2.587  -8.177  0.00  0.00    +0.021 C 
ATOM     27  C   UNL     1       1.852  -5.000  -8.065  0.00  0.00    +0.015 C 
ATOM     28  C   UNL     1       1.555  -3.573  -6.049  0.00  0.00    +0.026 C 
ATOM     29  C   UNL     1       2.172  -2.520  -5.137  0.00  0.00    +0.008 C 
ATOM     30  C   UNL     1       1.090  -0.568  -1.917  0.00  0.00    -0.003 C 
ATOM     31  C   UNL     1       1.474   0.911  -2.101  0.00  0.00    +0.028 C 
ATOM     32  C   UNL     1       1.475  -1.019  -0.508  0.00  0.00    +0.018 C 
ATOM     33  C   UNL     1       0.553  -0.344   0.519  0.00  0.00    +0.018 C 
ATOM     34  C   UNL     1      -0.887  -0.757   0.227  0.00  0.00    -0.003 C 
ENDROOT
BRANCH   5   6
ATOM      6  O   UNL     1      -4.149  -0.381   2.043  0.00  0.00    -0.564 OA
ATOM      7  H   UNL     1      -5.078  -0.615   1.912  0.00  0.00    +0.375 HD
ENDBRANCH   5   6
BRANCH  19  20
ATOM     20  C   UNL     1       3.547  -4.236  -3.846  0.00  0.00    +0.182 C 
BRANCH  20  21
ATOM     21  O   UNL     1       4.893  -4.656  -3.616  0.00  0.00    -0.570 OA
ATOM     22  H   UNL     1       4.968  -5.472  -3.103  0.00  0.00    +0.377 HD
ENDBRANCH  20  21
ENDBRANCH  19  20
TORSDOF 3
