REMARK  Name = ZINC13386152
REMARK  6 active torsions:
REMARK  status: ('A' for Active; 'I' for Inactive)
REMARK    1  A    between atoms: C1_1  and  C2_2
REMARK    2  A    between atoms: C3_3  and  C4_4
REMARK    3  A    between atoms: C5_5  and  C6_6
REMARK    4  A    between atoms: C7_7  and  C8_8
REMARK    5  A    between atoms: C13_13  and  O1_14
REMARK    6  A    between atoms: O1_14  and  C14_15
REMARK                            x       y       z     vdW  Elec       q    Type
REMARK                         _______ _______ _______ _____ _____    ______ ____
ROOT
ATOM      8  C   UNL     1      -0.017   1.428   0.010  0.00  0.00    -0.015 A 
ATOM      9  C   UNL     1      -1.236   2.115   0.019  0.00  0.00    +0.108 A 
ATOM     10  C   UNL     1      -1.246   3.494   0.031  0.00  0.00    -0.074 A 
ATOM     11 CL   UNL     1      -2.758   4.347   0.050  0.00  0.00    -0.058 Cl
ATOM     12  C   UNL     1      -0.055   4.202   0.024  0.00  0.00    +0.093 A 
ATOM     13  C   UNL     1       1.156   3.535   0.009  0.00  0.00    -0.050 A 
ATOM     14  C   UNL     1       1.186   2.150   0.002  0.00  0.00    +0.164 A 
ENDROOT
BRANCH   8   7
ATOM      6  C   UNL     1       0.018  -1.178  -0.004  0.00  0.00    -0.052 C 
ATOM      7  C   UNL     1       0.002  -0.004   0.002  0.00  0.00    -0.055 C 
BRANCH   6   5
ATOM      4  C   UNL     1       0.053  -3.729  -0.018  0.00  0.00    -0.010 C 
ATOM      5  C   UNL     1       0.037  -2.555  -0.012  0.00  0.00    -0.026 C 
BRANCH   4   3
ATOM      1  C   UNL     1       0.107  -7.751  -0.041  0.00  0.00    +0.227 C 
ATOM      2  C   UNL     1       0.087  -6.279  -0.033  0.00  0.00    -0.097 C 
ATOM      3  C   UNL     1       0.071  -5.106  -0.026  0.00  0.00    -0.104 C 
ENDBRANCH   4   3
ENDBRANCH   6   5
ENDBRANCH   8   7
BRANCH  14  15
ATOM     15  O   UNL     1       2.375   1.494  -0.012  0.00  0.00    -0.304 OA
ATOM     16  C   UNL     1       3.558   2.295  -0.019  0.00  0.00    +0.252 C 
ENDBRANCH  14  15
TORSDOF 4
