REMARK  Name = ZINC14762512
REMARK  11 active torsions:
REMARK  status: ('A' for Active; 'I' for Inactive)
REMARK    1  A    between atoms: C1_1  and  C2_2
REMARK    2  A    between atoms: C2_2  and  C20_25
REMARK    3  A    between atoms: C3_3  and  C4_4
REMARK    4  A    between atoms: C4_4  and  C5_5
REMARK    5  A    between atoms: C7_7  and  C11_13
REMARK    6  A    between atoms: C9_9  and  O2_12
REMARK    7  A    between atoms: C10_10  and  O1_11
REMARK    8  A    between atoms: C12_14  and  C13_15
REMARK    9  A    between atoms: C13_15  and  C14_17
REMARK   10  A    between atoms: C17_20  and  O5_24
REMARK   11  A    between atoms: C19_22  and  O4_23
REMARK                            x       y       z     vdW  Elec       q    Type
REMARK                         _______ _______ _______ _____ _____    ______ ____
ROOT
ATOM      6  C   UNL     1      -2.233   1.105  -0.897  0.00  0.00    -0.087 A 
ATOM      7  C   UNL     1      -3.212   0.264  -0.415  0.00  0.00    +0.053 A 
ATOM      8  C   UNL     1      -4.060  -0.404  -1.306  0.00  0.00    -0.071 A 
ATOM     23  C   UNL     1      -3.910  -0.213  -2.686  0.00  0.00    +0.022 A 
ATOM     24  C   UNL     1      -2.926   0.632  -3.159  0.00  0.00    +0.083 A 
ATOM     27  C   UNL     1      -2.088   1.298  -2.264  0.00  0.00    +0.103 A 
ENDROOT
BRANCH   8   9
ATOM      9  C   UNL     1      -5.105  -1.302  -0.796  0.00  0.00    +0.128 C 
ATOM     10  C   UNL     1      -5.923  -1.945  -1.658  0.00  0.00    -0.100 C 
BRANCH  10  11
ATOM     11  C   UNL     1      -6.963  -2.839  -1.150  0.00  0.00    +0.423 C 
ATOM     22  O   UNL     1      -7.091  -3.003   0.050  0.00  0.00    -0.443 OA
BRANCH  11  12
ATOM     12  C   UNL     1      -7.855  -3.541  -2.091  0.00  0.00    -0.202 A 
ATOM     13  C   UNL     1      -7.713  -3.349  -3.469  0.00  0.00    +0.100 A 
ATOM     14  C   UNL     1      -8.544  -4.010  -4.343  0.00  0.00    -0.029 A 
ATOM     15  C   UNL     1      -9.535  -4.862  -3.861  0.00  0.00    +0.158 A 
ATOM     18  C   UNL     1      -9.688  -5.055  -2.496  0.00  0.00    -0.047 A 
ATOM     19  C   UNL     1      -8.854  -4.399  -1.606  0.00  0.00    +0.185 A 
BRANCH  15  16
ATOM     16  O   UNL     1     -10.355  -5.505  -4.731  0.00  0.00    -0.495 OA
ATOM     17  H   UNL     1     -11.158  -5.014  -4.950  0.00  0.00    +0.399 HD
ENDBRANCH  15  16
BRANCH  19  20
ATOM     20  O   UNL     1      -9.002  -4.587  -0.271  0.00  0.00    -0.478 OA
ATOM     21  H   UNL     1      -9.611  -3.964   0.149  0.00  0.00    +0.399 HD
ENDBRANCH  19  20
ENDBRANCH  11  12
ENDBRANCH  10  11
ENDBRANCH   8   9
BRANCH  24  25
ATOM     25  O   UNL     1      -2.777   0.819  -4.498  0.00  0.00    -0.490 OA
ATOM     26  H   UNL     1      -3.301   1.551  -4.853  0.00  0.00    +0.394 HD
ENDBRANCH  24  25
BRANCH  27  28
ATOM     28  O   UNL     1      -1.125   2.132  -2.732  0.00  0.00    -0.486 OA
ATOM     29  H   UNL     1      -0.277   1.699  -2.903  0.00  0.00    +0.393 HD
ENDBRANCH  27  28
BRANCH   6   5
ATOM      5  C   UNL     1      -1.320   1.824   0.064  0.00  0.00    +0.121 C 
BRANCH   5   4
ATOM      1  C   UNL     1       2.420   0.990  -0.136  0.00  0.00    +0.074 C 
ATOM      2  C   UNL     1       1.116   1.742  -0.077  0.00  0.00    -0.122 C 
ATOM      3  C   UNL     1       1.098   3.236  -0.272  0.00  0.00    +0.077 C 
ATOM      4  C   UNL     1      -0.003   1.097   0.144  0.00  0.00    -0.061 C 
ENDBRANCH   5   4
ENDBRANCH   6   5
TORSDOF 9
