REMARK  Name = ZINC13480348
REMARK  15 active torsions:
REMARK  status: ('A' for Active; 'I' for Inactive)
REMARK    1  A    between atoms: C1_1  and  C2_2
REMARK    2  A    between atoms: C2_2  and  C27_33
REMARK    3  A    between atoms: C3_3  and  C4_4
REMARK    4  A    between atoms: C4_4  and  C5_5
REMARK    5  A    between atoms: C5_5  and  C6_6
REMARK    6  A    between atoms: C6_6  and  C26_32
REMARK    7  A    between atoms: C7_7  and  C8_8
REMARK    8  A    between atoms: C8_8  and  O1_9
REMARK    9  A    between atoms: O1_9  and  C9_10
REMARK   10  A    between atoms: C15_16  and  O3_21
REMARK   11  A    between atoms: C17_18  and  O2_20
REMARK   12  A    between atoms: C21_25  and  C23_27
REMARK   13  A    between atoms: C21_25  and  O5_28
REMARK   14  A    between atoms: O5_28  and  C24_29
REMARK   15  A    between atoms: C24_29  and  C25_31
REMARK                            x       y       z     vdW  Elec       q    Type
REMARK                         _______ _______ _______ _____ _____    ______ ____
ROOT
ATOM     12  C   UNL     1      -2.555  -4.336   0.144  0.00  0.00    +0.173 A 
ATOM     13  C   UNL     1      -1.488  -3.593  -0.316  0.00  0.00    -0.033 A 
ATOM     14  C   UNL     1      -1.618  -2.206  -0.469  0.00  0.00    +0.046 A 
ATOM     15  C   UNL     1      -0.540  -1.427  -0.937  0.00  0.00    -0.002 A 
ATOM     16  C   UNL     1      -0.667  -0.082  -1.082  0.00  0.00    -0.003 A 
ATOM     17  C   UNL     1      -1.888   0.551  -0.770  0.00  0.00    -0.215 A 
ATOM     18  C   UNL     1      -2.027   2.003  -0.935  0.00  0.00    +0.402 C 
ATOM     19  C   UNL     1      -0.768   2.808  -1.180  0.00  0.00    +0.040 C 
ATOM     20  C   UNL     1       0.085   2.031  -2.191  0.00  0.00    +0.133 C 
ATOM     25  C   UNL     1       1.322   2.854  -2.554  0.00  0.00    +0.054 C 
ATOM     26  O   UNL     1      -3.115   2.539  -0.882  0.00  0.00    -0.439 OA
ATOM     27  C   UNL     1      -2.978  -0.191  -0.303  0.00  0.00    +0.223 A 
ATOM     30  C   UNL     1       0.519   0.705  -1.573  0.00  0.00    +0.137 C 
ATOM     31  C   UNL     1      -2.850  -1.583  -0.147  0.00  0.00    -0.157 A 
ATOM     32  C   UNL     1      -3.925  -2.364   0.321  0.00  0.00    +0.190 A 
ATOM     35  C   UNL     1      -3.769  -3.725   0.461  0.00  0.00    -0.097 A 
ENDROOT
BRANCH  27  28
ATOM     28  O   UNL     1      -4.146   0.425  -0.004  0.00  0.00    -0.471 OA
ATOM     29  H   UNL     1      -4.760   0.485  -0.748  0.00  0.00    +0.405 HD
ENDBRANCH  27  28
BRANCH  32  33
ATOM     33  O   UNL     1      -5.109  -1.778   0.633  0.00  0.00    -0.484 OA
ATOM     34  H   UNL     1      -5.175  -1.490   1.554  0.00  0.00    +0.402 HD
ENDBRANCH  32  33
BRANCH  12  11
ATOM     11  O   UNL     1      -2.423  -5.680   0.290  0.00  0.00    -0.303 OA
BRANCH  11  10
ATOM     10  C   UNL     1      -3.563  -6.396   0.770  0.00  0.00    +0.232 C 
BRANCH  10   9
ATOM      7  C   UNL     1      -4.080  -8.756   0.424  0.00  0.00    -0.096 C 
ATOM      8  C   UNL     1      -5.439  -8.327  -0.066  0.00  0.00    +0.078 C 
ATOM      9  C   UNL     1      -3.231  -7.862   0.867  0.00  0.00    -0.052 C 
BRANCH   7   6
ATOM      6  C   UNL     1      -3.698 -10.214   0.405  0.00  0.00    +0.067 C 
BRANCH   6   5
ATOM      5  C   UNL     1      -4.209 -10.892   1.677  0.00  0.00    +0.056 C 
BRANCH   5   4
ATOM      1  C   UNL     1      -2.496 -11.932   3.662  0.00  0.00    +0.072 C 
ATOM      2  C   UNL     1      -3.080 -12.844   2.615  0.00  0.00    -0.130 C 
ATOM      3  C   UNL     1      -2.806 -14.325   2.668  0.00  0.00    +0.072 C 
ATOM      4  C   UNL     1      -3.826 -12.350   1.658  0.00  0.00    -0.062 C 
ENDBRANCH   5   4
ENDBRANCH   6   5
ENDBRANCH   7   6
ENDBRANCH  10   9
ENDBRANCH  11  10
ENDBRANCH  12  11
BRANCH  20  21
ATOM     21  O   UNL     1      -0.696   1.775  -3.388  0.00  0.00    -0.346 OA
BRANCH  21  22
ATOM     22  C   UNL     1      -1.157   2.845  -4.055  0.00  0.00    +0.459 C 
ATOM     23  C   UNL     1      -1.975   2.657  -5.307  0.00  0.00    +0.152 C 
ATOM     24  O   UNL     1      -0.917   3.958  -3.652  0.00  0.00    -0.504 OA
ENDBRANCH  21  22
ENDBRANCH  20  21
TORSDOF 10
