REMARK  Name = ZINC95485882
REMARK  20 active torsions:
REMARK  status: ('A' for Active; 'I' for Inactive)
REMARK    1  A    between atoms: C1_1  and  C2_2
REMARK    2  A    between atoms: C5_5  and  C36_45
REMARK    3  A    between atoms: C7_7  and  C13_15
REMARK    4  A    between atoms: C8_8  and  O2_14
REMARK    5  A    between atoms: C10_10  and  O1_12
REMARK    6  A    between atoms: O1_12  and  C12_13
REMARK    7  A    between atoms: C15_17  and  C25_29
REMARK    8  A    between atoms: C18_20  and  C24_28
REMARK    9  A    between atoms: C20_22  and  O4_26
REMARK   10  A    between atoms: C22_24  and  O3_25
REMARK   11  A    between atoms: O4_26  and  C23_27
REMARK   12  A    between atoms: C26_30  and  O6_44
REMARK   13  A    between atoms: C28_32  and  O5_43
REMARK   14  A    between atoms: C32_36  and  C35_42
REMARK   15  A    between atoms: C33_39  and  C34_41
REMARK   16  A    between atoms: C37_46  and  O8_60
REMARK   17  A    between atoms: C41_50  and  O7_51
REMARK   18  A    between atoms: O7_51  and  C42_52
REMARK   19  A    between atoms: C43_53  and  C47_59
REMARK   20  A    between atoms: C44_55  and  C46_58
REMARK                            x       y       z     vdW  Elec       q    Type
REMARK                         _______ _______ _______ _____ _____    ______ ____
ROOT
ATOM     24  C   UNL     1      -0.005  -5.514  -0.886  0.00  0.00    -0.092 A 
ATOM     25  C   UNL     1       1.298  -5.991  -1.076  0.00  0.00    +0.074 A 
ATOM     26  C   UNL     1       1.690  -7.201  -0.537  0.00  0.00    -0.083 A 
ATOM     45  C   UNL     1       0.766  -7.968   0.215  0.00  0.00    +0.031 A 
ATOM     46  C   UNL     1       1.138  -9.199   0.774  0.00  0.00    -0.045 A 
ATOM     47  C   UNL     1       0.234  -9.921   1.494  0.00  0.00    -0.017 A 
ATOM     48  C   UNL     1       0.646 -11.243   2.089  0.00  0.00    +0.094 C 
ATOM     49  C   UNL     1      -1.063  -9.456   1.689  0.00  0.00    -0.099 A 
ATOM     50  C   UNL     1      -1.466  -8.252   1.156  0.00  0.00    +0.172 A 
ATOM     53  C   UNL     1      -0.550  -7.484   0.407  0.00  0.00    -0.107 A 
ATOM     54  C   UNL     1      -0.926  -6.246  -0.147  0.00  0.00    +0.202 A 
ENDROOT
BRANCH  26  27
ATOM     27  C   UNL     1       3.070  -7.695  -0.746  0.00  0.00    -0.054 A 
ATOM     28  C   UNL     1       3.367  -8.489  -1.859  0.00  0.00    +0.172 A 
ATOM     31  C   UNL     1       4.659  -8.947  -2.047  0.00  0.00    -0.018 A 
ATOM     32  C   UNL     1       5.648  -8.620  -1.134  0.00  0.00    +0.160 A 
ATOM     35  C   UNL     1       5.356  -7.830  -0.024  0.00  0.00    -0.165 A 
ATOM     36  C   UNL     1       6.468  -7.507   0.940  0.00  0.00    +0.239 C 
ATOM     37  C   UNL     1       7.742  -7.196   0.153  0.00  0.00    +0.093 C 
ATOM     38  N   UNL     1       6.118  -6.336   1.755  0.00  0.00    -0.504 N 
ATOM     39  H   UNL     1       6.826  -6.193   2.459  0.00  0.00    +0.432 HD
ATOM     40  H   UNL     1       6.051  -5.517   1.170  0.00  0.00    +0.429 HD
ATOM     41  C   UNL     1       4.822  -6.585   2.404  0.00  0.00    +0.179 C 
ATOM     42  C   UNL     1       4.817  -7.980   3.033  0.00  0.00    +0.089 C 
ATOM     43  C   UNL     1       3.721  -6.494   1.346  0.00  0.00    +0.133 C 
ATOM     44  C   UNL     1       4.076  -7.363   0.166  0.00  0.00    -0.038 A 
BRANCH  28  29
ATOM     29  O   UNL     1       2.392  -8.808  -2.750  0.00  0.00    -0.480 OA
ATOM     30  H   UNL     1       2.299  -8.175  -3.474  0.00  0.00    +0.402 HD
ENDBRANCH  28  29
BRANCH  32  33
ATOM     33  O   UNL     1       6.915  -9.074  -1.323  0.00  0.00    -0.490 OA
ATOM     34  H   UNL     1       7.446  -8.524  -1.915  0.00  0.00    +0.401 HD
ENDBRANCH  32  33
ENDBRANCH  26  27
BRANCH  24  23
ATOM      1  C   UNL     1      -2.257   1.832  -2.932  0.00  0.00    +0.095 C 
ATOM      2  C   UNL     1      -1.853   0.511  -2.329  0.00  0.00    -0.023 A 
ATOM      3  C   UNL     1      -1.532  -0.530  -3.148  0.00  0.00    -0.032 A 
ATOM      4  C   UNL     1      -1.154  -1.763  -2.599  0.00  0.00    +0.028 A 
ATOM      5  C   UNL     1      -0.815  -2.859  -3.432  0.00  0.00    -0.040 A 
ATOM     22  C   UNL     1      -0.446  -4.063  -2.864  0.00  0.00    +0.068 A 
ATOM     23  C   UNL     1      -0.403  -4.212  -1.472  0.00  0.00    -0.094 A 
ATOM     57  C   UNL     1      -0.731  -3.152  -0.637  0.00  0.00    +0.183 A 
ATOM     60  C   UNL     1      -1.110  -1.915  -1.192  0.00  0.00    -0.103 A 
ATOM     61  C   UNL     1      -1.447  -0.822  -0.368  0.00  0.00    +0.163 A 
ATOM     64  C   UNL     1      -1.808   0.375  -0.946  0.00  0.00    -0.095 A 
BRANCH   5   6
ATOM      6  C   UNL     1      -0.858  -2.713  -4.905  0.00  0.00    -0.105 A 
ATOM      7  C   UNL     1       0.281  -2.294  -5.601  0.00  0.00    +0.153 A 
ATOM     10  C   UNL     1       0.246  -2.156  -6.983  0.00  0.00    -0.010 A 
ATOM     11  C   UNL     1      -0.909  -2.432  -7.676  0.00  0.00    -0.029 A 
ATOM     12  C   UNL     1      -2.059  -2.853  -6.993  0.00  0.00    -0.136 A 
ATOM     13  C   UNL     1      -3.276  -3.136  -7.770  0.00  0.00    +0.219 C 
ATOM     14  C   UNL     1      -4.618  -3.172  -7.086  0.00  0.00    +0.135 C 
ATOM     15  N   UNL     1      -3.190  -3.356  -9.041  0.00  0.00    -0.508 NA
ATOM     16  C   UNL     1      -1.913  -3.349  -9.747  0.00  0.00    +0.150 C 
ATOM     17  C   UNL     1      -2.159  -3.052 -11.227  0.00  0.00    +0.057 C 
ATOM     18  C   UNL     1      -0.971  -2.290  -9.175  0.00  0.00    +0.075 C 
ATOM     19  C   UNL     1      -2.034  -3.000  -5.604  0.00  0.00    +0.168 A 
BRANCH   7   8
ATOM      8  O   UNL     1       1.425  -2.020  -4.924  0.00  0.00    -0.485 OA
ATOM      9  H   UNL     1       2.011  -2.782  -4.818  0.00  0.00    +0.389 HD
ENDBRANCH   7   8
BRANCH  19  20
ATOM     20  O   UNL     1      -3.142  -3.414  -4.939  0.00  0.00    -0.323 OA
ATOM     21  C   UNL     1      -3.961  -2.401  -4.350  0.00  0.00    +0.235 C 
ENDBRANCH  19  20
ENDBRANCH   5   6
BRANCH  57  58
ATOM     58  O   UNL     1      -0.686  -3.308   0.711  0.00  0.00    -0.462 OA
ATOM     59  H   UNL     1       0.171  -3.093   1.104  0.00  0.00    +0.382 HD
ENDBRANCH  57  58
BRANCH  61  62
ATOM     62  O   UNL     1      -1.411  -0.947   0.984  0.00  0.00    -0.294 OA
ATOM     63  C   UNL     1      -1.766   0.205   1.751  0.00  0.00    +0.241 C 
ENDBRANCH  61  62
ENDBRANCH  24  23
BRANCH  50  51
ATOM     51  O   UNL     1      -2.734  -7.807   1.351  0.00  0.00    -0.291 OA
ATOM     52  C   UNL     1      -3.603  -8.640   2.121  0.00  0.00    +0.246 C 
ENDBRANCH  50  51
BRANCH  54  55
ATOM     55  O   UNL     1      -2.184  -5.772   0.036  0.00  0.00    -0.464 OA
ATOM     56  H   UNL     1      -2.812  -6.046  -0.646  0.00  0.00    +0.394 HD
ENDBRANCH  54  55
TORSDOF 11
