REMARK  Name = ZINC85996205
REMARK  3 active torsions:
REMARK  status: ('A' for Active; 'I' for Inactive)
REMARK    1  A    between atoms: C1_1  and  C2_2
REMARK    2  A    between atoms: C2_2  and  C21_29
REMARK    3  A    between atoms: C9_9  and  O2_12
REMARK                            x       y       z     vdW  Elec       q    Type
REMARK                         _______ _______ _______ _____ _____    ______ ____
ROOT
ATOM      1  C   UNL     1      -0.019   1.526   0.010  0.00  0.00    +0.084 C 
ATOM      2  C   UNL     1       0.002  -0.004   0.002  0.00  0.00    +0.143 C 
ATOM      3  C   UNL     1       0.732  -0.491  -1.251  0.00  0.00    +0.034 C 
ATOM      4  C   UNL     1      -1.413  -0.519  -0.018  0.00  0.00    -0.054 C 
ATOM      5  C   UNL     1      -1.703  -1.696   0.530  0.00  0.00    +0.058 C 
ATOM      6  C   UNL     1      -0.616  -2.454   1.182  0.00  0.00    -0.145 A 
ATOM      7  C   UNL     1      -0.774  -3.799   1.520  0.00  0.00    +0.183 A 
ATOM      8  C   UNL     1       0.308  -4.467   2.108  0.00  0.00    -0.173 A 
ATOM      9  C   UNL     1       0.070  -5.919   2.368  0.00  0.00    +0.232 C 
ATOM     10  C   UNL     1      -0.605  -6.408   1.040  0.00  0.00    -0.010 C 
ATOM     11  C   UNL     1      -0.393  -7.872   1.163  0.00  0.00    -0.148 A 
ATOM     12  C   UNL     1      -1.078  -8.948   0.623  0.00  0.00    +0.117 A 
ATOM     13  C   UNL     1      -0.564 -10.201   0.958  0.00  0.00    +0.007 A 
ATOM     14  C   UNL     1       0.561 -10.355   1.780  0.00  0.00    +0.067 A 
ATOM     15  O   UNL     1       0.820 -11.678   1.918  0.00  0.00    -0.302 OA
ATOM     16  C   UNL     1      -0.385 -12.353   1.501  0.00  0.00    +0.436 C 
ATOM     17  C   UNL     1       1.246  -9.273   2.328  0.00  0.00    +0.056 A 
ATOM     18  O   UNL     1      -1.006 -11.426   0.587  0.00  0.00    -0.303 OA
ATOM     19  C   UNL     1       0.732  -8.016   2.000  0.00  0.00    +0.107 A 
ATOM     20  C   UNL     1      -2.005  -5.846   1.038  0.00  0.00    +0.281 C 
ATOM     21  O   UNL     1       1.186  -6.796   2.441  0.00  0.00    -0.274 OA
ATOM     22  C   UNL     1       1.486  -3.819   2.380  0.00  0.00    +0.099 A 
ATOM     23  C   UNL     1       1.636  -2.475   2.059  0.00  0.00    +0.054 A 
ATOM     26  O   UNL     1      -1.946  -4.439   1.294  0.00  0.00    -0.314 OA
ATOM     27  C   UNL     1       0.586  -1.792   1.462  0.00  0.00    +0.149 A 
ATOM     28  O   UNL     1       0.693  -0.471   1.160  0.00  0.00    -0.289 OA
ENDROOT
BRANCH  23  24
ATOM     24  O   UNL     1       2.805  -1.833   2.328  0.00  0.00    -0.478 OA
ATOM     25  H   UNL     1       3.450  -1.872   1.609  0.00  0.00    +0.386 HD
ENDBRANCH  23  24
TORSDOF 1
