REMARK  Name = ZINC95486304
REMARK  20 active torsions:
REMARK  status: ('A' for Active; 'I' for Inactive)
REMARK    1  A    between atoms: C1_1  and  C2_2
REMARK    2  A    between atoms: C2_2  and  C35_45
REMARK    3  A    between atoms: C3_3  and  C4_4
REMARK    4  A    between atoms: C4_4  and  C5_5
REMARK    5  A    between atoms: C5_5  and  C6_6
REMARK    6  A    between atoms: C6_6  and  C34_44
REMARK    7  A    between atoms: C7_7  and  C8_8
REMARK    8  A    between atoms: C8_8  and  C9_9
REMARK    9  A    between atoms: C10_10  and  O7_43
REMARK   10  A    between atoms: C12_12  and  C15_16
REMARK   11  A    between atoms: C14_14  and  O1_15
REMARK   12  A    between atoms: C16_17  and  C17_18
REMARK   13  A    between atoms: C21_22  and  O2_24
REMARK   14  A    between atoms: O2_24  and  O3_25
REMARK   15  A    between atoms: O3_25  and  C23_26
REMARK   16  A    between atoms: C24_28  and  C33_42
REMARK   17  A    between atoms: C26_30  and  O6_41
REMARK   18  A    between atoms: C27_32  and  O5_40
REMARK   19  A    between atoms: C28_34  and  C31_38
REMARK   20  A    between atoms: C28_34  and  C32_39
REMARK                            x       y       z     vdW  Elec       q    Type
REMARK                         _______ _______ _______ _____ _____    ______ ____
ROOT
ATOM     19  C   UNL     1      -0.153  10.294   4.469  0.00  0.00    -0.093 A 
ATOM     20  C   UNL     1      -1.321  11.044   4.617  0.00  0.00    +0.090 A 
ATOM     21  C   UNL     1      -1.337  12.383   4.276  0.00  0.00    -0.165 A 
ATOM     22  C   UNL     1      -0.195  12.990   3.784  0.00  0.00    +0.167 A 
ATOM     23  O   UNL     1      -0.167  14.303   3.435  0.00  0.00    -0.293 OA
ATOM     24  C   UNL     1      -1.212  15.149   3.957  0.00  0.00    +0.132 C 
ATOM     25  C   UNL     1      -0.960  15.341   5.452  0.00  0.00    +0.038 C 
ATOM     26  C   UNL     1      -1.127  16.492   3.231  0.00  0.00    +0.032 C 
ATOM     27  C   UNL     1      -2.312  17.373   3.620  0.00  0.00    +0.150 C 
ATOM     30  C   UNL     1      -3.608  16.696   3.184  0.00  0.00    +0.189 C 
ATOM     33  C   UNL     1      -3.767  15.326   3.843  0.00  0.00    -0.037 C 
ATOM     34  C   UNL     1      -4.958  14.629   3.145  0.00  0.00    +0.043 C 
ATOM     35  C   UNL     1      -4.148  15.511   5.312  0.00  0.00    +0.041 C 
ATOM     36  C   UNL     1      -2.537  14.461   3.657  0.00  0.00    -0.007 C 
ATOM     37  C   UNL     1       0.978  12.243   3.634  0.00  0.00    +0.031 A 
ATOM     41  C   UNL     1      -2.622  13.160   4.457  0.00  0.00    +0.102 C 
ATOM     42  C   UNL     1       1.003  10.906   3.974  0.00  0.00    +0.085 A 
ENDROOT
BRANCH  19  18
ATOM     17  C   UNL     1       0.989   8.149   4.690  0.00  0.00    +0.011 C 
ATOM     18  C   UNL     1      -0.137   8.867   4.833  0.00  0.00    +0.037 C 
BRANCH  17  16
ATOM     11  C   UNL     1       1.033   4.031   5.742  0.00  0.00    -0.126 A 
ATOM     12  C   UNL     1       2.183   4.632   5.250  0.00  0.00    +0.128 A 
ATOM     15  C   UNL     1       2.174   5.973   4.906  0.00  0.00    -0.006 A 
ATOM     16  C   UNL     1       1.004   6.721   5.055  0.00  0.00    -0.025 A 
ATOM     43  C   UNL     1      -0.152   6.112   5.549  0.00  0.00    -0.013 A 
ATOM     44  C   UNL     1      -0.134   4.769   5.886  0.00  0.00    +0.125 A 
BRANCH  12  13
ATOM     13  O   UNL     1       3.321   3.902   5.107  0.00  0.00    -0.491 OA
ATOM     14  H   UNL     1       3.410   3.478   4.242  0.00  0.00    +0.390 HD
ENDBRANCH  12  13
BRANCH  44  45
ATOM     45  O   UNL     1      -1.259   4.174   6.363  0.00  0.00    -0.492 OA
ATOM     46  H   UNL     1      -1.348   4.215   7.325  0.00  0.00    +0.391 HD
ENDBRANCH  44  45
BRANCH  11  10
ATOM     10  C   UNL     1       1.048   2.571   6.116  0.00  0.00    +0.120 C 
BRANCH  10   9
ATOM      7  C   UNL     1       1.458   0.770   4.520  0.00  0.00    -0.126 C 
ATOM      8  C   UNL     1       2.778   0.539   5.209  0.00  0.00    +0.075 C 
ATOM      9  C   UNL     1       0.673   1.742   4.915  0.00  0.00    -0.042 C 
BRANCH   7   6
ATOM      6  C   UNL     1       1.040  -0.118   3.376  0.00  0.00    +0.060 C 
BRANCH   6   5
ATOM      5  C   UNL     1       1.645   0.410   2.073  0.00  0.00    +0.053 C 
BRANCH   5   4
ATOM      1  C   UNL     1       0.361   1.520  -0.175  0.00  0.00    +0.071 C 
ATOM      2  C   UNL     1       0.630   0.039  -0.116  0.00  0.00    -0.132 C 
ATOM      3  C   UNL     1       0.212  -0.849  -1.260  0.00  0.00    +0.071 C 
ATOM      4  C   UNL     1       1.227  -0.478   0.929  0.00  0.00    -0.061 C 
ENDBRANCH   5   4
ENDBRANCH   6   5
ENDBRANCH   7   6
ENDBRANCH  10   9
ENDBRANCH  11  10
ENDBRANCH  17  16
ENDBRANCH  19  18
BRANCH  27  28
ATOM     28  O   UNL     1      -2.194  18.636   2.952  0.00  0.00    -0.567 OA
ATOM     29  H   UNL     1      -1.387  19.122   3.170  0.00  0.00    +0.385 HD
ENDBRANCH  27  28
BRANCH  30  31
ATOM     31  O   UNL     1      -3.615  16.541   1.762  0.00  0.00    -0.555 OA
ATOM     32  H   UNL     1      -3.552  17.375   1.275  0.00  0.00    +0.385 HD
ENDBRANCH  30  31
BRANCH  37  38
ATOM     38  O   UNL     1       2.101  12.839   3.151  0.00  0.00    -0.165 OA
BRANCH  38  39
ATOM     39  O   UNL     1       2.960  13.425   4.189  0.00  0.00    -0.241 OA
ATOM     40  C   UNL     1       4.140  14.052   3.681  0.00  0.00    +0.234 C 
ENDBRANCH  38  39
ENDBRANCH  37  38
TORSDOF 13
