REMARK  Name = ZINC00607911
REMARK  9 active torsions:
REMARK  status: ('A' for Active; 'I' for Inactive)
REMARK    1  A    between atoms: C1_1  and  N1_2
REMARK    2  A    between atoms: C6_7  and  O4_26
REMARK    3  A    between atoms: C7_8  and  O3_24
REMARK    4  A    between atoms: C15_17  and  O2_22
REMARK    5  A    between atoms: C16_18  and  O1_20
REMARK    6  A    between atoms: O1_20  and  C18_21
REMARK    7  A    between atoms: O2_22  and  C19_23
REMARK    8  A    between atoms: O3_24  and  C20_25
REMARK    9  A    between atoms: O4_26  and  C21_27
REMARK                            x       y       z     vdW  Elec       q    Type
REMARK                         _______ _______ _______ _____ _____    ______ ____
ROOT
ATOM      1  C   UNL     1       0.661   1.520  -0.041  0.00  0.00    +0.329 C 
ATOM      2  N   UNL     1       0.445   0.067  -0.011  0.00  0.00    -0.382 N 
ATOM      3  H   UNL     1      -0.540  -0.124   0.094  0.00  0.00    +0.426 HD
ATOM      4  C   UNL     1       0.926  -0.522  -1.260  0.00  0.00    +0.268 C 
ATOM      5  C   UNL     1       0.547  -1.992  -1.346  0.00  0.00    +0.126 C 
ATOM      6  C   UNL     1       0.679  -2.689  -0.022  0.00  0.00    -0.040 A 
ATOM      7  C   UNL     1       0.506  -4.067   0.014  0.00  0.00    -0.052 A 
ATOM      8  C   UNL     1       0.640  -4.769   1.198  0.00  0.00    +0.148 A 
ATOM     11  C   UNL     1       0.947  -4.088   2.371  0.00  0.00    +0.081 A 
ATOM     14  C   UNL     1       1.100  -2.704   2.342  0.00  0.00    +0.024 A 
ATOM     15  C   UNL     1       1.426  -1.960   3.582  0.00  0.00    -0.060 A 
ATOM     16  C   UNL     1       1.921  -2.626   4.700  0.00  0.00    +0.024 A 
ATOM     17  C   UNL     1       2.235  -1.910   5.842  0.00  0.00    +0.108 A 
ATOM     20  C   UNL     1       2.057  -0.529   5.868  0.00  0.00    +0.124 A 
ATOM     23  C   UNL     1       1.557   0.130   4.755  0.00  0.00    -0.024 A 
ATOM     24  C   UNL     1       1.233  -0.581   3.618  0.00  0.00    -0.075 A 
ATOM     25  C   UNL     1       0.669   0.123   2.414  0.00  0.00    +0.113 C 
ATOM     26  C   UNL     1       0.973  -2.005   1.139  0.00  0.00    -0.157 A 
ATOM     27  C   UNL     1       1.180  -0.513   1.123  0.00  0.00    +0.244 C 
ENDROOT
BRANCH   8   9
ATOM      9  O   UNL     1       0.471  -6.118   1.216  0.00  0.00    -0.296 OA
ATOM     10  C   UNL     1       0.156  -6.748  -0.027  0.00  0.00    +0.256 C 
ENDBRANCH   8   9
BRANCH  11  12
ATOM     12  O   UNL     1       1.097  -4.769   3.539  0.00  0.00    -0.317 OA
ATOM     13  C   UNL     1      -0.091  -5.061   4.277  0.00  0.00    +0.237 C 
ENDBRANCH  11  12
BRANCH  17  18
ATOM     18  O   UNL     1       2.717  -2.555   6.938  0.00  0.00    -0.299 OA
ATOM     19  C   UNL     1       2.874  -3.972   6.840  0.00  0.00    +0.248 C 
ENDBRANCH  17  18
BRANCH  20  21
ATOM     21  O   UNL     1       2.375   0.174   6.987  0.00  0.00    -0.297 OA
ATOM     22  C   UNL     1       2.168   1.587   6.946  0.00  0.00    +0.246 C 
ENDBRANCH  20  21
TORSDOF 4
