REMARK  Name = ZINC95486121
REMARK  7 active torsions:
REMARK  status: ('A' for Active; 'I' for Inactive)
REMARK    1  A    between atoms: C1_1  and  C2_2
REMARK    2  A    between atoms: C5_5  and  O3_27
REMARK    3  A    between atoms: C6_7  and  C19_25
REMARK    4  A    between atoms: C6_7  and  C20_26
REMARK    5  A    between atoms: C16_20  and  C18_22
REMARK    6  A    between atoms: C16_20  and  O2_24
REMARK    7  A    between atoms: C18_22  and  O1_23
REMARK                            x       y       z     vdW  Elec       q    Type
REMARK                         _______ _______ _______ _____ _____    ______ ____
ROOT
ATOM      1  C   UNL     1      -0.266   1.453   0.672  0.00  0.00    +0.010 C 
ATOM      2  C   UNL     1      -0.177  -0.090   0.567  0.00  0.00    -0.030 C 
ATOM      3  C   UNL     1       0.110  -0.452  -0.886  0.00  0.00    +0.031 C 
ATOM      4  C   UNL     1       1.460   0.121  -1.318  0.00  0.00    -0.023 C 
ATOM      5  C   UNL     1       2.566  -0.480  -0.460  0.00  0.00    +0.165 C 
ATOM      8  C   UNL     1       2.335  -0.231   1.026  0.00  0.00    -0.042 C 
ATOM      9  C   UNL     1       3.380  -1.074   1.792  0.00  0.00    +0.025 C 
ATOM     10  C   UNL     1       2.682   1.230   1.357  0.00  0.00    +0.027 C 
ATOM     11  C   UNL     1      -1.556  -0.586   0.981  0.00  0.00    -0.005 C 
ATOM     12  C   UNL     1      -2.649  -0.228  -0.013  0.00  0.00    +0.018 C 
ATOM     13  C   UNL     1      -2.968  -1.310  -1.031  0.00  0.00    +0.023 C 
ATOM     14  C   UNL     1      -3.038  -2.703  -0.402  0.00  0.00    +0.005 C 
ATOM     15  C   UNL     1      -3.946  -2.676   0.846  0.00  0.00    +0.144 C 
ATOM     21  C   UNL     1      -3.040  -2.267   2.026  0.00  0.00    +0.008 C 
ATOM     22  C   UNL     1      -1.625  -2.979   0.187  0.00  0.00    +0.031 C 
ATOM     23  C   UNL     1      -1.643  -2.037   1.407  0.00  0.00    -0.044 C 
ATOM     24  C   UNL     1      -0.542  -2.404   2.381  0.00  0.00    +0.010 C 
ATOM     25  C   UNL     1       0.806  -2.101   1.704  0.00  0.00    +0.027 C 
ATOM     26  C   UNL     1       0.932  -0.592   1.486  0.00  0.00    +0.013 C 
ENDROOT
BRANCH   5   6
ATOM      6  O   UNL     1       2.659  -1.886  -0.706  0.00  0.00    -0.559 OA
ATOM      7  H   UNL     1       2.859  -2.113  -1.624  0.00  0.00    +0.372 HD
ENDBRANCH   5   6
BRANCH  15  16
ATOM     16  O   UNL     1      -5.010  -1.740   0.680  0.00  0.00    -0.549 OA
ATOM     17  H   UNL     1      -5.608  -1.686   1.438  0.00  0.00    +0.379 HD
ENDBRANCH  15  16
BRANCH  15  18
ATOM     18  C   UNL     1      -4.526  -4.073   1.098  0.00  0.00    +0.153 C 
BRANCH  18  19
ATOM     19  O   UNL     1      -5.364  -4.039   2.255  0.00  0.00    -0.574 OA
ATOM     20  H   UNL     1      -5.766  -4.890   2.474  0.00  0.00    +0.383 HD
ENDBRANCH  18  19
ENDBRANCH  15  18
TORSDOF 4
