REMARK  Name = ZINC95485941
REMARK  6 active torsions:
REMARK  status: ('A' for Active; 'I' for Inactive)
REMARK    1  A    between atoms: C1_1  and  C2_2
REMARK    2  A    between atoms: C2_2  and  C3_3
REMARK    3  A    between atoms: C3_3  and  C23_37
REMARK    4  A    between atoms: C10_15  and  O6_34
REMARK    5  A    between atoms: C12_18  and  C21_33
REMARK    6  A    between atoms: C16_26  and  C17_28
REMARK                            x       y       z     vdW  Elec       q    Type
REMARK                         _______ _______ _______ _____ _____    ______ ____
ROOT
ATOM      3  C   UNL     1       1.774  -2.276   1.433  0.00  0.00    +0.140 C 
ATOM      4  C   UNL     1       1.361  -1.798   2.826  0.00  0.00    +0.043 C 
ATOM      5  C   UNL     1       1.332  -3.716   1.220  0.00  0.00    -0.022 C 
ATOM      6  C   UNL     1       2.471  -4.266   0.316  0.00  0.00    -0.040 C 
ATOM      7  C   UNL     1       3.679  -3.609   0.990  0.00  0.00    +0.211 C 
ATOM      8  C   UNL     1       2.402  -5.784   0.352  0.00  0.00    +0.070 C 
ATOM      9  C   UNL     1       1.004  -6.113  -0.190  0.00  0.00    +0.367 C 
ATOM     10  C   UNL     1       0.180  -4.922  -0.618  0.00  0.00    +0.020 C 
ATOM     11  C   UNL     1      -1.222  -5.311  -1.072  0.00  0.00    +0.061 C 
ATOM     12  C   UNL     1      -1.479  -6.625  -1.796  0.00  0.00    +0.127 C 
ATOM     13  C   UNL     1      -2.662  -6.655  -2.746  0.00  0.00    +0.488 C 
ATOM     14  O   UNL     1      -3.313  -5.517  -3.015  0.00  0.00    -0.309 OA
ATOM     15  C   UNL     1      -3.415  -4.614  -2.002  0.00  0.00    +0.325 C 
ATOM     21  O   UNL     1      -3.013  -7.694  -3.253  0.00  0.00    -0.423 OA
ATOM     22  O   UNL     1      -1.826  -6.423  -0.414  0.00  0.00    -0.287 OA
ATOM     23  C   UNL     1      -2.069  -4.177  -1.474  0.00  0.00    -0.073 C 
ATOM     24  C   UNL     1      -1.341  -3.468  -2.618  0.00  0.00    +0.061 C 
ATOM     25  C   UNL     1      -2.171  -3.185  -0.321  0.00  0.00    +0.040 C 
ATOM     26  C   UNL     1      -0.761  -2.762   0.122  0.00  0.00    +0.194 C 
ATOM     29  O   UNL     1       0.592  -7.245  -0.269  0.00  0.00    -0.424 OA
ATOM     30  C   UNL     1       0.014  -3.986   0.574  0.00  0.00    +0.037 C 
ATOM     31  O   UNL     1       3.215  -2.276   1.315  0.00  0.00    -0.378 OA
ENDROOT
BRANCH  15  16
ATOM     16  C   UNL     1      -4.240  -5.145  -0.858  0.00  0.00    -0.233 A 
ATOM     17  C   UNL     1      -4.998  -4.382   0.059  0.00  0.00    -0.041 A 
ATOM     18  C   UNL     1      -5.573  -5.252   0.908  0.00  0.00    +0.169 A 
ATOM     19  O   UNL     1      -5.206  -6.495   0.556  0.00  0.00    -0.167 OA
ATOM     20  C   UNL     1      -4.401  -6.436  -0.518  0.00  0.00    +0.194 A 
ENDBRANCH  15  16
BRANCH   3   2
ATOM      1  C   UNL     1       1.454   0.091   0.699  0.00  0.00    -0.002 C 
ATOM      2  C   UNL     1       1.158  -1.372   0.363  0.00  0.00    -0.021 C 
ENDBRANCH   3   2
BRANCH  26  27
ATOM     27  O   UNL     1      -0.860  -1.835   1.205  0.00  0.00    -0.511 OA
ATOM     28  H   UNL     1      -1.450  -1.089   1.031  0.00  0.00    +0.385 HD
ENDBRANCH  26  27
TORSDOF 3
