REMARK  Name = ZINC95486277
REMARK  19 active torsions:
REMARK  status: ('A' for Active; 'I' for Inactive)
REMARK    1  A    between atoms: C1_1  and  C2_2
REMARK    2  A    between atoms: C3_4  and  O10_60
REMARK    3  A    between atoms: C4_6  and  O9_59
REMARK    4  A    between atoms: C5_8  and  O8_58
REMARK    5  A    between atoms: C6_10  and  O2_13
REMARK    6  A    between atoms: O2_13  and  C7_14
REMARK    7  A    between atoms: C7_14  and  C8_16
REMARK    8  A    between atoms: C7_14  and  C38_55
REMARK    9  A    between atoms: C8_16  and  C9_17
REMARK   10  A    between atoms: C9_17  and  C37_54
REMARK   11  A    between atoms: C13_22  and  C36_53
REMARK   12  A    between atoms: C15_25  and  C19_33
REMARK   13  A    between atoms: C16_26  and  O4_32
REMARK   14  A    between atoms: C18_29  and  O3_31
REMARK   15  A    between atoms: C23_37  and  C35_52
REMARK   16  A    between atoms: C26_40  and  C34_51
REMARK   17  A    between atoms: C29_44  and  C32_47
REMARK   18  A    between atoms: C29_44  and  C33_48
REMARK   19  A    between atoms: C38_55  and  C39_57
REMARK                            x       y       z     vdW  Elec       q    Type
REMARK                         _______ _______ _______ _____ _____    ______ ____
ROOT
ATOM     19  C   UNL     1       2.482  -0.463   4.448  0.00  0.00    -0.022 C 
ATOM     20  C   UNL     1       1.436   0.671   4.301  0.00  0.00    +0.031 C 
ATOM     21  C   UNL     1       3.478  -0.041   5.503  0.00  0.00    +0.008 C 
ATOM     22  C   UNL     1       2.916  -0.068   6.914  0.00  0.00    +0.011 C 
ATOM     23  C   UNL     1       2.926  -1.432   7.576  0.00  0.00    +0.004 C 
ATOM     24  C   UNL     1       4.225  -2.202   7.425  0.00  0.00    -0.019 C 
ATOM     25  C   UNL     1       5.206  -1.664   8.489  0.00  0.00    +0.011 C 
ATOM     26  C   UNL     1       4.858  -2.075   6.045  0.00  0.00    +0.017 C 
ATOM     27  C   UNL     1       6.269  -2.671   6.107  0.00  0.00    +0.070 C 
ATOM     28  C   UNL     1       6.211  -4.053   6.697  0.00  0.00    -0.091 C 
ATOM     29  C   UNL     1       5.220  -4.507   7.402  0.00  0.00    -0.078 C 
ATOM     30  C   UNL     1       5.257  -5.944   7.878  0.00  0.00    +0.072 C 
ATOM     31  C   UNL     1       6.591  -6.598   7.558  0.00  0.00    +0.019 C 
ATOM     32  C   UNL     1       6.619  -8.044   8.054  0.00  0.00    -0.131 C 
ATOM     36  C   UNL     1       8.033  -8.608   7.838  0.00  0.00    +0.008 C 
ATOM     37  C   UNL     1       6.285  -8.116   9.540  0.00  0.00    +0.009 C 
ATOM     38  C   UNL     1       4.968  -7.424   9.865  0.00  0.00    +0.007 C 
ATOM     39  C   UNL     1       4.973  -5.976   9.378  0.00  0.00    -0.037 C 
ATOM     40  C   UNL     1       6.029  -5.184  10.145  0.00  0.00    +0.010 C 
ATOM     41  C   UNL     1       3.595  -5.351   9.615  0.00  0.00    +0.003 C 
ATOM     42  C   UNL     1       3.585  -3.881   9.196  0.00  0.00    +0.014 C 
ATOM     43  C   UNL     1       4.007  -3.685   7.748  0.00  0.00    +0.002 C 
ATOM     44  C   UNL     1       2.873  -4.227   6.866  0.00  0.00    +0.017 C 
ATOM     45  C   UNL     1       4.860  -0.680   5.457  0.00  0.00    -0.017 C 
ATOM     46  C   UNL     1       5.832   0.256   6.206  0.00  0.00    +0.023 C 
ATOM     47  C   UNL     1       5.352  -0.675   4.002  0.00  0.00    +0.167 C 
ATOM     50  C   UNL     1       4.382  -1.469   3.134  0.00  0.00    -0.045 C 
ATOM     51  C   UNL     1       3.083  -0.668   3.057  0.00  0.00    +0.195 C 
ENDROOT
BRANCH  32  33
ATOM     33  C   UNL     1       5.647  -8.882   7.266  0.00  0.00    +0.507 C 
ATOM     34  O   UNL     1       4.639  -8.374   6.804  0.00  0.00    -0.688 OA
ATOM     35  O   UNL     1       5.867 -10.068   7.089  0.00  0.00    -0.703 OA
ENDBRANCH  32  33
BRANCH  47  48
ATOM     48  O   UNL     1       6.680  -1.154   3.879  0.00  0.00    -0.552 OA
ATOM     49  H   UNL     1       7.013  -1.160   2.971  0.00  0.00    +0.370 HD
ENDBRANCH  47  48
BRANCH  51  52
ATOM     52  O   UNL     1       3.332   0.602   2.450  0.00  0.00    -0.560 OA
ATOM     53  H   UNL     1       3.714   0.546   1.564  0.00  0.00    +0.367 HD
ENDBRANCH  51  52
BRANCH  19  18
ATOM     18  C   UNL     1       1.708  -1.730   4.819  0.00  0.00    +0.074 C 
BRANCH  18  14
ATOM     14  C   UNL     1       0.486  -1.865   3.908  0.00  0.00    +0.144 C 
BRANCH  14  15
ATOM     15  C   UNL     1      -0.415  -2.953   4.436  0.00  0.00    +0.323 C 
ATOM     16  C   UNL     1      -1.349  -2.667   5.583  0.00  0.00    +0.066 C 
ATOM     17  O   UNL     1      -0.389  -4.053   3.938  0.00  0.00    -0.426 OA
ENDBRANCH  14  15
BRANCH  14  13
ATOM     13  O   UNL     1       0.912  -2.199   2.586  0.00  0.00    -0.327 OA
BRANCH  13  12
ATOM      1  C   UNL     1      -0.514   1.823   0.514  0.00  0.00    +0.074 C 
ATOM      2  C   UNL     1      -0.692   0.304   0.491  0.00  0.00    +0.138 C 
ATOM      3  C   UNL     1      -0.317  -0.233  -0.893  0.00  0.00    +0.165 C 
ATOM      6  C   UNL     1      -0.440  -1.760  -0.891  0.00  0.00    +0.194 C 
ATOM      9  C   UNL     1       0.452  -2.331   0.216  0.00  0.00    +0.146 C 
ATOM     12  C   UNL     1       0.047  -1.713   1.557  0.00  0.00    +0.282 C 
ATOM     54  O   UNL     1       0.155  -0.291   1.477  0.00  0.00    -0.378 OA
BRANCH   3   4
ATOM      4  O   UNL     1      -1.199   0.317  -1.874  0.00  0.00    -0.546 OA
ATOM      5  H   UNL     1      -1.176   1.282  -1.927  0.00  0.00    +0.381 HD
ENDBRANCH   3   4
BRANCH   6   7
ATOM      7  O   UNL     1      -0.023  -2.275  -2.157  0.00  0.00    -0.546 OA
ATOM      8  H   UNL     1      -0.074  -3.238  -2.226  0.00  0.00    +0.389 HD
ENDBRANCH   6   7
BRANCH   9  10
ATOM     10  O   UNL     1       0.292  -3.750   0.274  0.00  0.00    -0.553 OA
ATOM     11  H   UNL     1       0.829  -4.179   0.955  0.00  0.00    +0.401 HD
ENDBRANCH   9  10
ENDBRANCH  13  12
ENDBRANCH  14  13
ENDBRANCH  18  14
ENDBRANCH  19  18
TORSDOF 11
