REMARK  Name = ZINC33831297
REMARK  6 active torsions:
REMARK  status: ('A' for Active; 'I' for Inactive)
REMARK    1  A    between atoms: C1_1  and  C2_2
REMARK    2  A    between atoms: C6_6  and  C19_25
REMARK    3  A    between atoms: C6_6  and  C20_26
REMARK    4  A    between atoms: C10_11  and  C18_23
REMARK    5  A    between atoms: C14_16  and  C17_21
REMARK    6  A    between atoms: C16_18  and  O1_20
REMARK                            x       y       z     vdW  Elec       q    Type
REMARK                         _______ _______ _______ _____ _____    ______ ____
ROOT
ATOM      1  C   UNL     1       0.067   1.506  -0.010  0.00  0.00    +0.023 C 
ATOM      2  C   UNL     1       0.073  -0.019  -0.007  0.00  0.00    -0.039 C 
ATOM      3  C   UNL     1      -1.384  -0.496   0.135  0.00  0.00    +0.018 C 
ATOM      4  C   UNL     1      -1.959   0.035   1.446  0.00  0.00    +0.003 C 
ATOM      5  C   UNL     1      -1.188  -0.521   2.635  0.00  0.00    +0.010 C 
ATOM      6  C   UNL     1       0.319  -0.286   2.530  0.00  0.00    -0.047 C 
ATOM      7  C   UNL     1       0.667   1.126   2.998  0.00  0.00    +0.022 C 
ATOM      8  C   UNL     1       0.974  -1.264   3.540  0.00  0.00    +0.010 C 
ATOM      9  C   UNL     1       0.629  -0.552  -1.329  0.00  0.00    +0.043 C 
ATOM     10  C   UNL     1      -0.153   0.034  -2.510  0.00  0.00    +0.060 C 
ATOM     11  C   UNL     1      -0.297  -1.051  -3.563  0.00  0.00    +0.065 C 
ATOM     12  C   UNL     1       0.747  -1.424  -4.271  0.00  0.00    -0.212 C 
ATOM     15  C   UNL     1       2.093  -0.769  -4.032  0.00  0.00    +0.050 C 
ATOM     16  C   UNL     1       2.650  -1.220  -2.695  0.00  0.00    +0.187 C 
ATOM     19  C   UNL     1       2.127  -0.403  -1.504  0.00  0.00    -0.100 C 
ATOM     22  C   UNL     1       2.853  -0.965  -0.268  0.00  0.00    +0.040 C 
ATOM     23  C   UNL     1       2.344  -0.288   1.008  0.00  0.00    +0.020 C 
ATOM     24  C   UNL     1       0.859  -0.611   1.155  0.00  0.00    +0.004 C 
ENDROOT
BRANCH  12  13
ATOM     13  C   UNL     1       0.607  -2.460  -5.297  0.00  0.00    +0.474 C 
ATOM     14  O   UNL     1       1.571  -2.802  -5.948  0.00  0.00    -0.463 OA
ENDBRANCH  12  13
BRANCH  16  17
ATOM     17  O   UNL     1       2.329  -2.597  -2.486  0.00  0.00    -0.553 OA
ATOM     18  H   UNL     1       2.627  -3.182  -3.196  0.00  0.00    +0.380 HD
ENDBRANCH  16  17
BRANCH  19  20
ATOM     20  C   UNL     1       2.571   1.019  -1.700  0.00  0.00    +0.442 C 
ATOM     21  O   UNL     1       3.370   1.512  -0.941  0.00  0.00    -0.438 OA
ENDBRANCH  19  20
TORSDOF 3
