REMARK  Name = ZINC00001411
REMARK  5 active torsions:
REMARK  status: ('A' for Active; 'I' for Inactive)
REMARK    1  A    between atoms: C1_1  and  O1_2
REMARK    2  A    between atoms: O1_2  and  C2_3
REMARK    3  A    between atoms: C4_5  and  C8_10
REMARK    4  A    between atoms: C7_8  and  O2_9
REMARK    5  A    between atoms: C8_10  and  C9_11
REMARK                            x       y       z     vdW  Elec       q    Type
REMARK                         _______ _______ _______ _____ _____    ______ ____
ROOT
ATOM      3  C   UNL     1       0.626  -0.619   1.042  0.00  0.00    +0.105 A 
ATOM      4  C   UNL     1       1.202   0.137   2.051  0.00  0.00    -0.060 A 
ATOM      5  C   UNL     1       1.836  -0.490   3.108  0.00  0.00    -0.047 A 
ATOM      9  C   UNL     1       1.897  -1.870   3.161  0.00  0.00    -0.007 A 
ATOM     10  C   UNL     1       1.325  -2.630   2.158  0.00  0.00    +0.034 A 
ATOM     11  C   UNL     1       0.683  -2.008   1.099  0.00  0.00    +0.069 A 
ENDROOT
BRANCH   3   2
ATOM      1  C   UNL     1      -0.017   1.425   0.010  0.00  0.00    +0.239 C 
ATOM      2  O   UNL     1       0.002  -0.004   0.002  0.00  0.00    -0.308 OA
ENDBRANCH   3   2
BRANCH  11  12
ATOM     12  O   UNL     1       0.115  -2.754   0.114  0.00  0.00    -0.487 OA
ATOM     13  H   UNL     1       0.711  -2.957  -0.620  0.00  0.00    +0.387 HD
ENDBRANCH  11  12
BRANCH   5   6
ATOM      6  C   UNL     1       2.462   0.334   4.204  0.00  0.00    +0.108 C 
BRANCH   6   7
ATOM      7  C   UNL     1       1.445   0.582   5.289  0.00  0.00    -0.042 C 
ATOM      8  C   UNL     1       1.714   0.251   6.527  0.00  0.00    +0.010 C 
ENDBRANCH   6   7
ENDBRANCH   5   6
TORSDOF 4
