REMARK  Name = ZINC95486168
REMARK  4 active torsions:
REMARK  status: ('A' for Active; 'I' for Inactive)
REMARK    1  A    between atoms: C1_1  and  C2_2
REMARK    2  A    between atoms: C3_4  and  O7_21
REMARK    3  A    between atoms: C7_10  and  O5_18
REMARK    4  A    between atoms: C10_13  and  O2_14
REMARK                            x       y       z     vdW  Elec       q    Type
REMARK                         _______ _______ _______ _____ _____    ______ ____
ROOT
ATOM      1  C   UNL     1      -0.019   1.526   0.010  0.00  0.00    +0.076 C 
ATOM      2  C   UNL     1       0.002  -0.004   0.002  0.00  0.00    +0.003 C 
ATOM      3  C   UNL     1       0.729  -0.503  -1.255  0.00  0.00    +0.189 C 
ATOM      6  C   UNL     1       2.157  -0.004  -1.213  0.00  0.00    +0.377 C 
ATOM      7  C   UNL     1       2.909  -0.134   0.039  0.00  0.00    -0.133 A 
ATOM      8  C   UNL     1       2.208  -0.385   1.249  0.00  0.00    -0.124 A 
ATOM      9  C   UNL     1       2.913  -0.509   2.445  0.00  0.00    +0.172 A 
ATOM     12  C   UNL     1       4.306  -0.386   2.447  0.00  0.00    +0.042 A 
ATOM     13  C   UNL     1       4.991  -0.141   1.264  0.00  0.00    +0.037 A 
ATOM     14  O   UNL     1       6.326  -0.066   1.541  0.00  0.00    -0.290 OA
ATOM     15  C   UNL     1       6.413   0.140   2.963  0.00  0.00    +0.446 C 
ATOM     16  O   UNL     1       5.208  -0.466   3.468  0.00  0.00    -0.289 OA
ATOM     17  C   UNL     1       4.298  -0.015   0.057  0.00  0.00    +0.173 A 
ATOM     20  O   UNL     1       2.668   0.493  -2.195  0.00  0.00    -0.409 OA
ATOM     21  C   UNL     1       0.742  -0.509   1.221  0.00  0.00    +0.418 C 
ATOM     22  O   UNL     1       0.140  -1.007   2.150  0.00  0.00    -0.415 OA
ENDROOT
BRANCH   3   4
ATOM      4  O   UNL     1       0.716  -1.932  -1.281  0.00  0.00    -0.540 OA
ATOM      5  H   UNL     1       1.159  -2.315  -2.051  0.00  0.00    +0.393 HD
ENDBRANCH   3   4
BRANCH   9  10
ATOM     10  O   UNL     1       2.249  -0.748   3.604  0.00  0.00    -0.467 OA
ATOM     11  H   UNL     1       2.134  -1.687   3.804  0.00  0.00    +0.405 HD
ENDBRANCH   9  10
BRANCH  17  18
ATOM     18  O   UNL     1       4.974   0.224  -1.094  0.00  0.00    -0.467 OA
ATOM     19  H   UNL     1       5.094   1.163  -1.293  0.00  0.00    +0.404 HD
ENDBRANCH  17  18
TORSDOF 3
