REMARK  Name = ZINC15122160
REMARK  5 active torsions:
REMARK  status: ('A' for Active; 'I' for Inactive)
REMARK    1  A    between atoms: C1_1  and  C2_2
REMARK    2  A    between atoms: C2_2  and  C21_29
REMARK    3  A    between atoms: C8_8  and  O6_27
REMARK    4  A    between atoms: C12_13  and  C14_17
REMARK    5  A    between atoms: C19_22  and  O3_23
REMARK                            x       y       z     vdW  Elec       q    Type
REMARK                         _______ _______ _______ _____ _____    ______ ____
ROOT
ATOM      1  C   UNL     1      -2.362  -6.220  -0.216  0.00  0.00    +0.037 C 
ATOM      2  C   UNL     1      -0.883  -5.832  -0.252  0.00  0.00    +0.146 C 
ATOM      3  C   UNL     1      -0.030  -7.101  -0.314  0.00  0.00    +0.086 C 
ATOM      4  C   UNL     1      -0.618  -4.995  -1.475  0.00  0.00    -0.059 C 
ATOM      5  C   UNL     1      -0.758  -3.672  -1.419  0.00  0.00    +0.066 C 
ATOM      6  C   UNL     1      -1.164  -3.070  -0.132  0.00  0.00    -0.191 A 
ATOM      7  C   UNL     1      -1.042  -3.842   1.036  0.00  0.00    +0.224 A 
ATOM      8  C   UNL     1      -1.409  -3.317   2.263  0.00  0.00    -0.069 A 
ATOM      9  C   UNL     1      -1.905  -2.026   2.345  0.00  0.00    +0.248 A 
ATOM     12  C   UNL     1      -2.037  -1.248   1.183  0.00  0.00    -0.314 A 
ATOM     13  C   UNL     1      -2.575   0.111   1.250  0.00  0.00    +0.413 C 
ATOM     14  O   UNL     1      -3.062   0.533   2.279  0.00  0.00    -0.424 OA
ATOM     15  C   UNL     1      -2.513   0.977   0.019  0.00  0.00    +0.015 C 
ATOM     27  C   UNL     1      -2.587   0.117  -1.234  0.00  0.00    +0.281 C 
ATOM     28  O   UNL     1      -1.754  -1.019  -1.181  0.00  0.00    -0.294 OA
ATOM     29  C   UNL     1      -1.656  -1.768  -0.067  0.00  0.00    +0.243 A 
ATOM     30  O   UNL     1      -0.558  -5.105   0.934  0.00  0.00    -0.295 OA
ENDROOT
BRANCH  15  16
ATOM     16  C   UNL     1      -1.220   1.750   0.017  0.00  0.00    -0.105 A 
ATOM     17  C   UNL     1      -0.013   1.076   0.008  0.00  0.00    +0.069 A 
ATOM     18  C   UNL     1       1.178   1.784   0.000  0.00  0.00    +0.031 A 
ATOM     19  C   UNL     1       1.158   3.176   0.008  0.00  0.00    +0.059 A 
ATOM     20  O   UNL     1       2.445   3.631  -0.001  0.00  0.00    -0.304 OA
ATOM     21  C   UNL     1       3.253   2.508   0.398  0.00  0.00    +0.438 C 
ATOM     22  C   UNL     1      -0.052   3.849   0.022  0.00  0.00    +0.021 A 
ATOM     23  O   UNL     1       2.478   1.366  -0.014  0.00  0.00    -0.303 OA
ATOM     24  C   UNL     1      -1.242   3.136   0.029  0.00  0.00    +0.138 A 
BRANCH  24  25
ATOM     25  O   UNL     1      -2.430   3.797   0.043  0.00  0.00    -0.482 OA
ATOM     26  H   UNL     1      -2.781   3.993  -0.837  0.00  0.00    +0.395 HD
ENDBRANCH  24  25
ENDBRANCH  15  16
BRANCH   9  10
ATOM     10  O   UNL     1      -2.261  -1.513   3.549  0.00  0.00    -0.475 OA
ATOM     11  H   UNL     1      -3.186  -1.672   3.785  0.00  0.00    +0.405 HD
ENDBRANCH   9  10
TORSDOF 3
