REMARK  Name = ZINC15120587
REMARK  8 active torsions:
REMARK  status: ('A' for Active; 'I' for Inactive)
REMARK    1  A    between atoms: C1_1  and  C2_2
REMARK    2  A    between atoms: C2_2  and  C18_20
REMARK    3  A    between atoms: C3_3  and  C4_4
REMARK    4  A    between atoms: C4_4  and  C5_5
REMARK    5  A    between atoms: C5_5  and  C6_6
REMARK    6  A    between atoms: C6_6  and  C17_19
REMARK    7  A    between atoms: C7_7  and  C8_8
REMARK    8  A    between atoms: C8_8  and  C9_9
REMARK                            x       y       z     vdW  Elec       q    Type
REMARK                         _______ _______ _______ _____ _____    ______ ____
ROOT
ATOM     10  C   UNL     1       0.260   0.265  -2.513  0.00  0.00    +0.134 C 
ENDROOT
BRANCH  10  11
ATOM     11  C   UNL     1       1.357  -0.220  -3.425  0.00  0.00    -0.160 A 
ATOM     12  C   UNL     1       2.597   0.285  -3.520  0.00  0.00    +0.220 A 
ATOM     13  N   UNL     1       3.316  -0.413  -4.452  0.00  0.00    -0.596 N 
ATOM     14  C   UNL     1       2.533  -1.406  -4.998  0.00  0.00    +0.095 A 
ATOM     15  C   UNL     1       2.758  -2.379  -5.966  0.00  0.00    -0.013 A 
ATOM     16  C   UNL     1       1.748  -3.252  -6.306  0.00  0.00    +0.026 A 
ATOM     17  C   UNL     1       0.506  -3.172  -5.692  0.00  0.00    -0.025 A 
ATOM     18  C   UNL     1       0.263  -2.223  -4.739  0.00  0.00    +0.050 A 
ATOM     19  H   UNL     1       4.238  -0.234  -4.694  0.00  0.00    +0.415 HD
ATOM     20  C   UNL     1       1.272  -1.328  -4.379  0.00  0.00    -0.102 A 
ENDBRANCH  10  11
BRANCH  10   9
ATOM      7  C   UNL     1       0.310   0.033  -0.083  0.00  0.00    -0.134 C 
ATOM      8  C   UNL     1       0.244   1.536   0.004  0.00  0.00    +0.071 C 
ATOM      9  C   UNL     1       0.255  -0.559  -1.251  0.00  0.00    -0.042 C 
BRANCH   7   6
ATOM      6  C   UNL     1       0.438  -0.790   1.173  0.00  0.00    +0.056 C 
BRANCH   6   5
ATOM      5  C   UNL     1       1.914  -0.896   1.565  0.00  0.00    +0.055 C 
BRANCH   5   4
ATOM      1  C   UNL     1       3.468  -3.249   1.561  0.00  0.00    +0.071 C 
ATOM      2  C   UNL     1       2.816  -2.776   2.834  0.00  0.00    -0.133 C 
ATOM      3  C   UNL     1       3.054  -3.519   4.124  0.00  0.00    +0.071 C 
ATOM      4  C   UNL     1       2.043  -1.719   2.820  0.00  0.00    -0.061 C 
ENDBRANCH   5   4
ENDBRANCH   6   5
ENDBRANCH   7   6
ENDBRANCH  10   9
TORSDOF 5
