REMARK  Name = ZINC14441498
REMARK  8 active torsions:
REMARK  status: ('A' for Active; 'I' for Inactive)
REMARK    1  A    between atoms: C1_1  and  C2_2
REMARK    2  A    between atoms: C3_3  and  O7_29
REMARK    3  A    between atoms: C5_6  and  C7_9
REMARK    4  A    between atoms: C8_10  and  O6_27
REMARK    5  A    between atoms: C12_14  and  O3_15
REMARK    6  A    between atoms: C15_19  and  C16_21
REMARK    7  A    between atoms: O6_27  and  C22_28
REMARK    8  A    between atoms: O7_29  and  C23_30
REMARK                            x       y       z     vdW  Elec       q    Type
REMARK                         _______ _______ _______ _____ _____    ______ ____
ROOT
ATOM      8  C   UNL     1      -2.269   5.402   0.049  0.00  0.00    -0.123 A 
ATOM      9  C   UNL     1      -1.010   6.017   0.041  0.00  0.00    +0.228 A 
ATOM     12  C   UNL     1       0.145   5.255   0.027  0.00  0.00    -0.093 A 
ATOM     13  C   UNL     1       0.067   3.870   0.021  0.00  0.00    +0.214 A 
ATOM     14  C   UNL     1      -1.192   3.244   0.030  0.00  0.00    -0.289 A 
ATOM     15  C   UNL     1      -1.246   1.772   0.018  0.00  0.00    +0.426 A 
ATOM     16  C   UNL     1      -0.013   1.076   0.008  0.00  0.00    -0.142 A 
ATOM     17  C   UNL     1       1.152   1.776   0.001  0.00  0.00    +0.203 A 
ATOM     24  O   UNL     1      -2.310   1.176   0.020  0.00  0.00    -0.454 OA
ATOM     25  O   UNL     1       1.188   3.118   0.007  0.00  0.00    -0.218 OA
ATOM     26  C   UNL     1      -2.362   4.011   0.044  0.00  0.00    +0.262 A 
ENDROOT
BRANCH   8   7
ATOM      1  C   UNL     1      -7.038   8.607  -0.023  0.00  0.00    +0.182 C 
ATOM      2  C   UNL     1      -5.789   7.767   0.054  0.00  0.00    +0.115 A 
ATOM      3  C   UNL     1      -5.293   7.436   1.266  0.00  0.00    -0.085 A 
ATOM      6  C   UNL     1      -4.115   6.643   1.334  0.00  0.00    +0.399 A 
ATOM      7  C   UNL     1      -3.500   6.229   0.065  0.00  0.00    -0.200 A 
ATOM     29  C   UNL     1      -4.088   6.628  -1.097  0.00  0.00    +0.317 A 
ATOM     30  O   UNL     1      -3.631   6.320   2.407  0.00  0.00    -0.458 OA
ATOM     31  O   UNL     1      -5.200   7.370  -1.080  0.00  0.00    -0.201 OA
BRANCH   3   4
ATOM      4  O   UNL     1      -5.912   7.854   2.404  0.00  0.00    -0.301 OA
ATOM      5  C   UNL     1      -5.497   9.109   2.944  0.00  0.00    +0.223 C 
ENDBRANCH   3   4
ENDBRANCH   8   7
BRANCH  17  18
ATOM     18  C   UNL     1       2.428   1.032  -0.016  0.00  0.00    -0.073 A 
ATOM     19  C   UNL     1       2.425  -0.365  -0.017  0.00  0.00    +0.056 A 
ATOM     20  C   UNL     1       3.620  -1.053  -0.038  0.00  0.00    +0.014 A 
ATOM     21  C   UNL     1       4.819  -0.364  -0.046  0.00  0.00    +0.037 A 
ATOM     22  C   UNL     1       4.830   1.020  -0.039  0.00  0.00    +0.009 A 
ATOM     23  C   UNL     1       3.642   1.722  -0.023  0.00  0.00    +0.054 A 
ENDBRANCH  17  18
BRANCH   9  10
ATOM     10  O   UNL     1      -0.923   7.372   0.045  0.00  0.00    -0.296 OA
ATOM     11  C   UNL     1       0.389   7.937   0.035  0.00  0.00    +0.256 C 
ENDBRANCH   9  10
BRANCH  26  27
ATOM     27  O   UNL     1      -3.577   3.407   0.052  0.00  0.00    -0.461 OA
ATOM     28  H   UNL     1      -3.937   3.235  -0.829  0.00  0.00    +0.401 HD
ENDBRANCH  26  27
TORSDOF 5
