REMARK  Name = ZINC01532860
REMARK  12 active torsions:
REMARK  status: ('A' for Active; 'I' for Inactive)
REMARK    1  A    between atoms: C1_1  and  C2_2
REMARK    2  A    between atoms: C2_2  and  C15_16
REMARK    3  A    between atoms: C3_3  and  C4_4
REMARK    4  A    between atoms: C4_4  and  C5_5
REMARK    5  A    between atoms: C5_5  and  C6_6
REMARK    6  A    between atoms: C6_6  and  C14_15
REMARK    7  A    between atoms: C7_7  and  C8_8
REMARK    8  A    between atoms: C8_8  and  C9_9
REMARK    9  A    between atoms: C9_9  and  C10_10
REMARK   10  A    between atoms: C10_10  and  C13_14
REMARK   11  A    between atoms: C11_11  and  C12_12
REMARK   12  A    between atoms: C12_12  and  O1_13
REMARK                            x       y       z     vdW  Elec       q    Type
REMARK                         _______ _______ _______ _____ _____    ______ ____
ROOT
ATOM      7  C   UNL     1      -0.835   0.247   4.693  0.00  0.00    -0.125 C 
ATOM      8  C   UNL     1       0.163   0.062   5.807  0.00  0.00    +0.072 C 
ATOM      9  C   UNL     1      -1.811   1.110   4.824  0.00  0.00    -0.056 C 
ENDROOT
BRANCH   7   6
ATOM      6  C   UNL     1      -0.709  -0.562   3.427  0.00  0.00    +0.059 C 
BRANCH   6   5
ATOM      5  C   UNL     1       0.265   0.132   2.473  0.00  0.00    +0.053 C 
BRANCH   5   4
ATOM      1  C   UNL     1      -0.093   1.368  -0.035  0.00  0.00    +0.072 C 
ATOM      2  C   UNL     1       0.171  -0.113   0.046  0.00  0.00    -0.133 C 
ATOM      3  C   UNL     1       0.182  -0.947  -1.210  0.00  0.00    +0.072 C 
ATOM      4  C   UNL     1       0.391  -0.677   1.208  0.00  0.00    -0.061 C 
ENDBRANCH   5   4
ENDBRANCH   6   5
ENDBRANCH   7   6
BRANCH   9  10
ATOM     10  C   UNL     1      -1.993   1.850   6.124  0.00  0.00    +0.056 C 
BRANCH  10  11
ATOM     11  C   UNL     1      -2.025   3.356   5.853  0.00  0.00    +0.062 C 
BRANCH  11  12
ATOM     12  C   UNL     1      -2.207   4.096   7.153  0.00  0.00    -0.113 C 
ATOM     13  C   UNL     1      -3.591   4.313   7.709  0.00  0.00    +0.075 C 
ATOM     14  C   UNL     1      -1.162   4.551   7.800  0.00  0.00    -0.050 C 
BRANCH  14  15
ATOM     15  C   UNL     1      -1.344   5.291   9.099  0.00  0.00    +0.209 C 
BRANCH  15  16
ATOM     16  O   UNL     1      -0.395   4.815  10.056  0.00  0.00    -0.571 OA
ATOM     17  H   UNL     1      -0.455   5.248  10.918  0.00  0.00    +0.381 HD
ENDBRANCH  15  16
ENDBRANCH  14  15
ENDBRANCH  11  12
ENDBRANCH  10  11
ENDBRANCH   9  10
TORSDOF 8
