REMARK  Name = ZINC95486074
REMARK  9 active torsions:
REMARK  status: ('A' for Active; 'I' for Inactive)
REMARK    1  A    between atoms: C1_1  and  C2_2
REMARK    2  A    between atoms: C5_5  and  O3_38
REMARK    3  A    between atoms: C6_7  and  C29_36
REMARK    4  A    between atoms: C6_7  and  C30_37
REMARK    5  A    between atoms: C10_12  and  C28_35
REMARK    6  A    between atoms: C15_18  and  C27_34
REMARK    7  A    between atoms: C21_25  and  C24_30
REMARK    8  A    between atoms: C21_25  and  C25_31
REMARK    9  A    between atoms: C23_27  and  O1_29
REMARK                            x       y       z     vdW  Elec       q    Type
REMARK                         _______ _______ _______ _____ _____    ______ ____
ROOT
ATOM      1  C   UNL     1       0.503   2.304   0.013  0.00  0.00    +0.024 C 
ATOM      2  C   UNL     1       0.442   0.815   0.329  0.00  0.00    -0.039 C 
ATOM      3  C   UNL     1      -1.019   0.500   0.715  0.00  0.00    +0.020 C 
ATOM      4  C   UNL     1      -1.397   1.334   1.937  0.00  0.00    -0.023 C 
ATOM      5  C   UNL     1      -0.530   0.960   3.131  0.00  0.00    +0.165 C 
ATOM      8  C   UNL     1       0.967   1.015   2.831  0.00  0.00    -0.039 C 
ATOM      9  C   UNL     1       1.479   2.448   2.972  0.00  0.00    +0.033 C 
ATOM     10  C   UNL     1       1.658   0.181   3.940  0.00  0.00    +0.015 C 
ATOM     11  C   UNL     1       0.795  -0.028  -0.911  0.00  0.00    +0.039 C 
ATOM     12  C   UNL     1       0.317  -1.451  -0.596  0.00  0.00    +0.009 C 
ATOM     13  C   UNL     1       0.658  -2.426  -1.713  0.00  0.00    +0.025 C 
ATOM     14  C   UNL     1       1.309  -1.699  -2.875  0.00  0.00    +0.141 C 
ATOM     15  C   UNL     1       2.572  -0.964  -2.452  0.00  0.00    -0.040 C 
ATOM     16  C   UNL     1       3.680  -1.938  -2.039  0.00  0.00    +0.029 C 
ATOM     17  C   UNL     1       3.051  -0.130  -3.653  0.00  0.00    +0.027 C 
ATOM     18  C   UNL     1       3.092  -0.988  -4.930  0.00  0.00    +0.024 C 
ATOM     19  C   UNL     1       1.709  -1.580  -5.175  0.00  0.00    -0.080 C 
ATOM     20  C   UNL     1       0.632  -0.549  -4.821  0.00  0.00    +0.197 C 
ATOM     21  C   UNL     1       1.575  -2.236  -6.525  0.00  0.00    +0.185 C 
ATOM     24  C   UNL     1       2.584  -3.384  -6.637  0.00  0.00    -0.002 C 
ATOM     25  C   UNL     1       2.456  -4.390  -5.501  0.00  0.00    -0.060 C 
ATOM     26  C   UNL     1       3.636  -5.369  -5.586  0.00  0.00    +0.023 C 
ATOM     27  C   UNL     1       1.160  -5.182  -5.641  0.00  0.00    +0.022 C 
ATOM     28  C   UNL     1       2.510  -3.694  -4.128  0.00  0.00    +0.051 C 
ATOM     29  O   UNL     1       0.386  -0.701  -3.404  0.00  0.00    -0.367 OA
ATOM     30  C   UNL     1       1.447  -2.638  -4.068  0.00  0.00    -0.019 C 
ATOM     31  C   UNL     1       2.276  -0.027  -1.260  0.00  0.00    -0.022 C 
ATOM     32  C   UNL     1       2.766   1.376  -1.655  0.00  0.00    +0.018 C 
ATOM     33  C   UNL     1       3.092  -0.439  -0.030  0.00  0.00    +0.016 C 
ATOM     34  C   UNL     1       2.792   0.520   1.139  0.00  0.00    +0.008 C 
ATOM     35  C   UNL     1       1.316   0.392   1.496  0.00  0.00    +0.001 C 
ENDROOT
BRANCH   5   6
ATOM      6  O   UNL     1      -0.818   1.848   4.219  0.00  0.00    -0.566 OA
ATOM      7  H   UNL     1      -1.739   1.824   4.513  0.00  0.00    +0.374 HD
ENDBRANCH   5   6
BRANCH  21  22
ATOM     22  O   UNL     1       1.821  -1.271  -7.556  0.00  0.00    -0.564 OA
ATOM     23  H   UNL     1       1.751  -1.627  -8.452  0.00  0.00    +0.377 HD
ENDBRANCH  21  22
TORSDOF 2
