REMARK  Name = ZINC95485928
REMARK  13 active torsions:
REMARK  status: ('A' for Active; 'I' for Inactive)
REMARK    1  A    between atoms: C1_1  and  C2_2
REMARK    2  A    between atoms: C2_2  and  C28_34
REMARK    3  A    between atoms: C3_3  and  C4_4
REMARK    4  A    between atoms: C4_4  and  C5_5
REMARK    5  A    between atoms: C5_5  and  C6_6
REMARK    6  A    between atoms: C6_6  and  C27_33
REMARK    7  A    between atoms: C7_7  and  C8_8
REMARK    8  A    between atoms: C8_8  and  C9_9
REMARK    9  A    between atoms: C10_10  and  O6_32
REMARK   10  A    between atoms: C14_14  and  O1_15
REMARK   11  A    between atoms: C19_22  and  O5_31
REMARK   12  A    between atoms: C24_27  and  C25_29
REMARK   13  A    between atoms: C24_27  and  C26_30
REMARK                            x       y       z     vdW  Elec       q    Type
REMARK                         _______ _______ _______ _____ _____    ______ ____
ROOT
ATOM     11  C   UNL     1       4.437   1.788   4.056  0.00  0.00    -0.163 A 
ATOM     12  C   UNL     1       4.571   0.690   4.899  0.00  0.00    +0.198 A 
ATOM     15  C   UNL     1       5.148   0.825   6.152  0.00  0.00    -0.028 A 
ATOM     16  C   UNL     1       5.603   2.063   6.582  0.00  0.00    +0.189 A 
ATOM     17  C   UNL     1       5.478   3.171   5.726  0.00  0.00    -0.265 A 
ATOM     18  C   UNL     1       5.990   4.475   6.184  0.00  0.00    +0.448 A 
ATOM     19  C   UNL     1       6.846   4.446   7.384  0.00  0.00    -0.195 A 
ATOM     20  C   UNL     1       6.887   3.269   8.150  0.00  0.00    +0.149 A 
ATOM     21  C   UNL     1       7.697   3.223   9.279  0.00  0.00    +0.017 A 
ATOM     22  C   UNL     1       8.453   4.324   9.652  0.00  0.00    +0.154 A 
ATOM     25  C   UNL     1       8.414   5.494   8.902  0.00  0.00    +0.077 A 
ATOM     26  O   UNL     1       9.148   6.583   9.251  0.00  0.00    -0.287 OA
ATOM     27  C   UNL     1       9.652   7.397   8.191  0.00  0.00    +0.138 C 
ATOM     28  C   UNL     1      10.189   8.707   8.770  0.00  0.00    +0.088 C 
ATOM     29  C   UNL     1      10.789   6.658   7.483  0.00  0.00    +0.035 C 
ATOM     30  C   UNL     1       8.562   7.702   7.197  0.00  0.00    -0.027 C 
ATOM     31  C   UNL     1       7.586   6.818   6.989  0.00  0.00    +0.051 C 
ATOM     32  C   UNL     1       7.608   5.561   7.763  0.00  0.00    -0.024 A 
ATOM     33  O   UNL     1       5.722   5.514   5.607  0.00  0.00    -0.431 OA
ATOM     34  O   UNL     1       6.154   2.190   7.806  0.00  0.00    -0.220 OA
ATOM     35  C   UNL     1       4.890   3.030   4.462  0.00  0.00    +0.221 A 
ENDROOT
BRANCH  12  13
ATOM     13  O   UNL     1       4.132  -0.527   4.489  0.00  0.00    -0.482 OA
ATOM     14  H   UNL     1       4.798  -1.050   4.023  0.00  0.00    +0.401 HD
ENDBRANCH  12  13
BRANCH  22  23
ATOM     23  O   UNL     1       9.239   4.258  10.758  0.00  0.00    -0.475 OA
ATOM     24  H   UNL     1      10.137   3.945  10.584  0.00  0.00    +0.398 HD
ENDBRANCH  22  23
BRANCH  35  36
ATOM     36  O   UNL     1       4.763   4.105   3.643  0.00  0.00    -0.472 OA
ATOM     37  H   UNL     1       3.935   4.591   3.758  0.00  0.00    +0.403 HD
ENDBRANCH  35  36
BRANCH  11  10
ATOM     10  C   UNL     1       3.803   1.624   2.699  0.00  0.00    +0.134 C 
BRANCH  10   9
ATOM      7  C   UNL     1       4.760   0.200   0.962  0.00  0.00    -0.124 C 
ATOM      8  C   UNL     1       5.744  -0.065  -0.149  0.00  0.00    +0.073 C 
ATOM      9  C   UNL     1       4.866   1.287   1.685  0.00  0.00    -0.046 C 
BRANCH   7   6
ATOM      6  C   UNL     1       3.654  -0.785   1.240  0.00  0.00    +0.063 C 
BRANCH   6   5
ATOM      5  C   UNL     1       2.439  -0.447   0.373  0.00  0.00    +0.052 C 
BRANCH   5   4
ATOM      1  C   UNL     1      -0.159   0.472   0.974  0.00  0.00    +0.071 C 
ATOM      2  C   UNL     1       0.146  -1.003   1.000  0.00  0.00    -0.131 C 
ATOM      3  C   UNL     1      -0.914  -1.985   1.428  0.00  0.00    +0.071 C 
ATOM      4  C   UNL     1       1.333  -1.433   0.651  0.00  0.00    -0.062 C 
ENDBRANCH   5   4
ENDBRANCH   6   5
ENDBRANCH   7   6
ENDBRANCH  10   9
ENDBRANCH  11  10
TORSDOF 8
