REMARK  Name = ZINC06404152
REMARK  12 active torsions:
REMARK  status: ('A' for Active; 'I' for Inactive)
REMARK    1  A    between atoms: C1_1  and  O1_2
REMARK    2  A    between atoms: O1_2  and  C2_3
REMARK    3  A    between atoms: C5_6  and  C8_9
REMARK    4  A    between atoms: C9_10  and  C10_11
REMARK    5  A    between atoms: C10_11  and  C11_13
REMARK    6  A    between atoms: C12_14  and  O6_25
REMARK    7  A    between atoms: C14_16  and  O5_23
REMARK    8  A    between atoms: C15_17  and  O4_21
REMARK    9  A    between atoms: C16_18  and  O3_19
REMARK   10  A    between atoms: O3_19  and  C17_20
REMARK   11  A    between atoms: O4_21  and  C18_22
REMARK   12  A    between atoms: O5_23  and  C19_24
REMARK                            x       y       z     vdW  Elec       q    Type
REMARK                         _______ _______ _______ _____ _____    ______ ____
ROOT
ATOM     10  C   UNL     1       1.239  -0.685  -0.014  0.00  0.00    -0.221 A 
ATOM     11  C   UNL     1       2.442   0.038  -0.059  0.00  0.00    +0.191 A 
ATOM     14  C   UNL     1       2.416   1.420  -0.052  0.00  0.00    -0.083 A 
ATOM     15  C   UNL     1       1.204   2.096  -0.001  0.00  0.00    +0.157 A 
ATOM     18  C   UNL     1       0.006   1.389   0.044  0.00  0.00    +0.035 A 
ATOM     21  C   UNL     1       0.017   0.004   0.038  0.00  0.00    +0.167 A 
ENDROOT
BRANCH  10   9
ATOM      9  C   UNL     1       1.260  -2.156  -0.021  0.00  0.00    +0.456 C 
ATOM     24  O   UNL     1       1.162  -2.762  -1.074  0.00  0.00    -0.454 OA
BRANCH   9   8
ATOM      7  C   UNL     1       1.526  -4.236   1.221  0.00  0.00    +0.134 C 
ATOM      8  C   UNL     1       1.397  -2.891   1.236  0.00  0.00    -0.102 C 
BRANCH   7   6
ATOM      3  C   UNL     1       1.924  -6.368   4.866  0.00  0.00    +0.145 A 
ATOM      4  C   UNL     1       1.927  -7.055   3.657  0.00  0.00    -0.020 A 
ATOM      5  C   UNL     1       1.798  -6.368   2.471  0.00  0.00    +0.087 A 
ATOM      6  C   UNL     1       1.664  -4.975   2.484  0.00  0.00    -0.123 A 
ATOM     25  C   UNL     1       1.668  -4.287   3.703  0.00  0.00    +0.079 A 
ATOM     26  C   UNL     1       1.792  -4.984   4.884  0.00  0.00    -0.080 A 
BRANCH   3   2
ATOM      1  C   UNL     1       2.041  -6.283   7.237  0.00  0.00    +0.244 C 
ATOM      2  O   UNL     1       2.051  -7.050   6.032  0.00  0.00    -0.314 OA
ENDBRANCH   3   2
ENDBRANCH   7   6
ENDBRANCH   9   8
ENDBRANCH  10   9
BRANCH  11  12
ATOM     12  O   UNL     1       3.629  -0.619  -0.110  0.00  0.00    -0.488 OA
ATOM     13  H   UNL     1       3.937  -0.806  -1.008  0.00  0.00    +0.402 HD
ENDBRANCH  11  12
BRANCH  15  16
ATOM     16  O   UNL     1       1.188   3.454   0.005  0.00  0.00    -0.297 OA
ATOM     17  C   UNL     1       2.452   4.119  -0.042  0.00  0.00    +0.249 C 
ENDBRANCH  15  16
BRANCH  18  19
ATOM     19  O   UNL     1      -1.178   2.060   0.089  0.00  0.00    -0.315 OA
ATOM     20  C   UNL     1      -1.697   2.374   1.383  0.00  0.00    +0.228 C 
ENDBRANCH  18  19
BRANCH  21  22
ATOM     22  O   UNL     1      -1.152  -0.686   0.081  0.00  0.00    -0.327 OA
ATOM     23  C   UNL     1      -1.761  -1.010  -1.170  0.00  0.00    +0.247 C 
ENDBRANCH  21  22
TORSDOF 8
