REMARK  Name = ZINC95486180
REMARK  10 active torsions:
REMARK  status: ('A' for Active; 'I' for Inactive)
REMARK    1  A    between atoms: C1_1  and  C2_2
REMARK    2  A    between atoms: C5_5  and  C28_34
REMARK    3  A    between atoms: C9_11  and  C27_33
REMARK    4  A    between atoms: C14_18  and  C26_32
REMARK    5  A    between atoms: C18_23  and  C25_31
REMARK    6  A    between atoms: C22_28  and  C23_29
REMARK    7  A    between atoms: C22_28  and  C24_30
REMARK    8  A    between atoms: C28_34  and  C29_35
REMARK    9  A    between atoms: C28_34  and  C30_36
REMARK   10  A    between atoms: C28_34  and  O2_37
REMARK                            x       y       z     vdW  Elec       q    Type
REMARK                         _______ _______ _______ _____ _____    ______ ____
ROOT
ATOM      1  C   UNL     1       2.109   0.590   0.710  0.00  0.00    +0.029 C 
ATOM      2  C   UNL     1       2.147  -0.917   0.431  0.00  0.00    -0.042 C 
ATOM      3  C   UNL     1       0.975  -1.628   1.187  0.00  0.00    +0.006 C 
ATOM      4  C   UNL     1       1.444  -3.092   1.305  0.00  0.00    +0.003 C 
ATOM      5  C   UNL     1       2.983  -3.044   1.339  0.00  0.00    -0.030 C 
ATOM     11  C   UNL     1       1.984  -1.292  -1.037  0.00  0.00    +0.010 C 
ATOM     12  C   UNL     1       0.838  -0.509  -1.677  0.00  0.00    +0.005 C 
ATOM     13  C   UNL     1       0.577  -1.058  -3.088  0.00  0.00    +0.006 C 
ATOM     14  C   UNL     1       1.856  -0.900  -3.912  0.00  0.00    +0.009 C 
ATOM     15  C   UNL     1       2.985  -1.709  -3.295  0.00  0.00    -0.023 C 
ATOM     16  C   UNL     1       2.635  -3.199  -3.179  0.00  0.00    +0.017 C 
ATOM     17  C   UNL     1       4.259  -1.597  -4.129  0.00  0.00    +0.011 C 
ATOM     18  C   UNL     1       4.008  -1.854  -5.607  0.00  0.00    +0.016 C 
ATOM     19  C   UNL     1       2.878  -1.026  -6.209  0.00  0.00    +0.006 C 
ATOM     20  C   UNL     1       3.326   0.356  -6.635  0.00  0.00    -0.093 C 
ATOM     21  C   UNL     1       4.272   1.029  -5.640  0.00  0.00    +0.056 C 
ATOM     22  C   UNL     1       4.080   0.232  -7.980  0.00  0.00    +0.040 C 
ATOM     23  C   UNL     1       2.159   1.290  -6.872  0.00  0.00    +0.370 C 
ATOM     24  O   UNL     1       2.144   2.041  -7.816  0.00  0.00    -0.452 OA
ATOM     25  C   UNL     1       1.013   1.252  -5.884  0.00  0.00    +0.014 C 
ATOM     26  C   UNL     1       0.509  -0.190  -5.888  0.00  0.00    +0.035 C 
ATOM     27  C   UNL     1       1.607  -1.142  -5.389  0.00  0.00    -0.036 C 
ATOM     28  C   UNL     1       1.017  -2.549  -5.633  0.00  0.00    +0.021 C 
ATOM     29  C   UNL     1       3.253  -1.180  -1.868  0.00  0.00    -0.029 C 
ATOM     30  C   UNL     1       3.725   0.276  -1.953  0.00  0.00    +0.019 C 
ATOM     31  C   UNL     1       4.360  -2.015  -1.216  0.00  0.00    +0.015 C 
ATOM     32  C   UNL     1       4.620  -1.495   0.198  0.00  0.00    +0.004 C 
ATOM     33  C   UNL     1       3.378  -1.590   1.057  0.00  0.00    +0.007 C 
ENDROOT
BRANCH   5   6
ATOM      6  C   UNL     1       3.491  -3.468   2.720  0.00  0.00    +0.133 C 
ATOM      9  C   UNL     1       5.019  -3.382   2.751  0.00  0.00    +0.053 C 
ATOM     10  C   UNL     1       3.057  -4.908   3.003  0.00  0.00    +0.004 C 
BRANCH   6   7
ATOM      7  O   UNL     1       2.945  -2.601   3.715  0.00  0.00    -0.556 OA
ATOM      8  H   UNL     1       1.978  -2.605   3.753  0.00  0.00    +0.372 HD
ENDBRANCH   6   7
ENDBRANCH   5   6
TORSDOF 2
