REMARK  Name = ZINC38140514
REMARK  9 active torsions:
REMARK  status: ('A' for Active; 'I' for Inactive)
REMARK    1  A    between atoms: C1_1  and  C2_2
REMARK    2  A    between atoms: C5_5  and  O3_37
REMARK    3  A    between atoms: C6_7  and  C29_35
REMARK    4  A    between atoms: C6_7  and  C30_36
REMARK    5  A    between atoms: C10_12  and  C28_34
REMARK    6  A    between atoms: C15_18  and  C27_33
REMARK    7  A    between atoms: C18_21  and  C26_30
REMARK    8  A    between atoms: C21_25  and  C24_28
REMARK    9  A    between atoms: C21_25  and  C25_29
REMARK                            x       y       z     vdW  Elec       q    Type
REMARK                         _______ _______ _______ _____ _____    ______ ____
ROOT
ATOM      1  C   UNL     1       0.006   1.513   0.475  0.00  0.00    +0.025 C 
ATOM      2  C   UNL     1       0.006  -0.010   0.399  0.00  0.00    -0.034 C 
ATOM      3  C   UNL     1      -1.454  -0.487   0.524  0.00  0.00    +0.018 C 
ATOM      4  C   UNL     1      -2.010  -0.067   1.881  0.00  0.00    -0.020 C 
ATOM      5  C   UNL     1      -1.227  -0.726   3.009  0.00  0.00    +0.166 C 
ATOM      8  C   UNL     1       0.274  -0.457   2.918  0.00  0.00    -0.037 C 
ATOM      9  C   UNL     1       0.595   0.923   3.492  0.00  0.00    +0.033 C 
ATOM     10  C   UNL     1       0.955  -1.498   3.843  0.00  0.00    +0.014 C 
ATOM     11  C   UNL     1       0.541  -0.498  -0.948  0.00  0.00    +0.003 C 
ATOM     12  C   UNL     1      -0.143   0.238  -2.102  0.00  0.00    +0.050 C 
ATOM     13  C   UNL     1       0.374  -0.315  -3.404  0.00  0.00    -0.071 C 
ATOM     14  C   UNL     1       1.516  -0.923  -3.524  0.00  0.00    -0.056 C 
ATOM     15  C   UNL     1       2.462  -1.177  -2.378  0.00  0.00    +0.004 C 
ATOM     16  C   UNL     1       2.373  -2.680  -2.079  0.00  0.00    +0.007 C 
ATOM     17  C   UNL     1       3.903  -0.879  -2.768  0.00  0.00    +0.016 C 
ATOM     18  C   UNL     1       4.267  -1.482  -4.126  0.00  0.00    +0.004 C 
ATOM     19  C   UNL     1       3.322  -0.962  -5.211  0.00  0.00    -0.117 C 
ATOM     23  C   UNL     1       3.755  -1.498  -6.574  0.00  0.00    +0.008 C 
ATOM     24  C   UNL     1       2.772  -1.075  -7.661  0.00  0.00    +0.007 C 
ATOM     25  C   UNL     1       1.346  -1.506  -7.338  0.00  0.00    -0.059 C 
ATOM     26  C   UNL     1       0.400  -0.900  -8.386  0.00  0.00    +0.007 C 
ATOM     27  C   UNL     1       1.231  -3.030  -7.408  0.00  0.00    +0.008 C 
ATOM     28  C   UNL     1       0.923  -1.011  -5.955  0.00  0.00    +0.037 C 
ATOM     29  C   UNL     1       1.912  -1.455  -4.890  0.00  0.00    +0.033 C 
ATOM     30  C   UNL     1       2.051  -0.404  -1.120  0.00  0.00    -0.023 C 
ATOM     31  C   UNL     1       2.466   1.062  -1.329  0.00  0.00    +0.022 C 
ATOM     32  C   UNL     1       2.800  -0.937   0.097  0.00  0.00    +0.010 C 
ATOM     33  C   UNL     1       2.282  -0.263   1.380  0.00  0.00    +0.013 C 
ATOM     34  C   UNL     1       0.811  -0.652   1.520  0.00  0.00    -0.002 C 
ENDROOT
BRANCH  19  20
ATOM     20  C   UNL     1       3.363   0.543  -5.230  0.00  0.00    +0.517 C 
ATOM     21  O   UNL     1       2.346   1.183  -5.025  0.00  0.00    -0.678 OA
ATOM     22  O   UNL     1       4.413   1.121  -5.451  0.00  0.00    -0.711 OA
ENDBRANCH  19  20
BRANCH   5   6
ATOM      6  O   UNL     1      -1.712  -0.237   4.267  0.00  0.00    -0.567 OA
ATOM      7  H   UNL     1      -2.649  -0.416   4.425  0.00  0.00    +0.371 HD
ENDBRANCH   5   6
TORSDOF 2
