REMARK  Name = ZINC95486115
REMARK  19 active torsions:
REMARK  status: ('A' for Active; 'I' for Inactive)
REMARK    1  A    between atoms: C1_1  and  C2_2
REMARK    2  A    between atoms: C3_3  and  C4_4
REMARK    3  A    between atoms: C3_3  and  C5_5
REMARK    4  A    between atoms: C5_5  and  C6_7
REMARK    5  A    between atoms: C6_7  and  C7_8
REMARK    6  A    between atoms: C8_10  and  O11_55
REMARK    7  A    between atoms: C13_19  and  O6_36
REMARK    8  A    between atoms: C14_21  and  C23_35
REMARK    9  A    between atoms: C18_28  and  C19_30
REMARK   10  A    between atoms: O6_36  and  C24_37
REMARK   11  A    between atoms: C24_37  and  C25_39
REMARK   12  A    between atoms: C26_40  and  C34_54
REMARK   13  A    between atoms: C27_42  and  C31_47
REMARK   14  A    between atoms: C28_44  and  C29_45
REMARK   15  A    between atoms: C28_44  and  C30_46
REMARK   16  A    between atoms: C31_47  and  C32_49
REMARK   17  A    between atoms: C31_47  and  O10_53
REMARK   18  A    between atoms: C32_49  and  O9_51
REMARK   19  A    between atoms: O9_51  and  C33_52
REMARK                            x       y       z     vdW  Elec       q    Type
REMARK                         _______ _______ _______ _____ _____    ______ ____
ROOT
ATOM      6  C   UNL     1      -3.642  -4.946  -0.509  0.00  0.00    +0.015 C 
ATOM      7  C   UNL     1      -2.221  -4.889  -0.363  0.00  0.00    +0.204 C 
ATOM     10  C   UNL     1      -1.474  -6.228   0.077  0.00  0.00    +0.109 C 
ATOM     11  C   UNL     1      -1.312  -6.571   1.518  0.00  0.00    +0.028 C 
ATOM     12  C   UNL     1      -1.901  -5.488   2.501  0.00  0.00    +0.089 C 
ATOM     13  C   UNL     1      -3.344  -5.536   2.772  0.00  0.00    -0.003 C 
ATOM     14  C   UNL     1      -3.823  -4.077   3.059  0.00  0.00    +0.028 C 
ATOM     15  C   UNL     1      -4.326  -6.201   1.820  0.00  0.00    -0.016 C 
ATOM     23  C   UNL     1      -1.141  -5.808   3.870  0.00  0.00    -0.001 C 
ATOM     24  C   UNL     1       0.310  -5.585   3.742  0.00  0.00    +0.211 C 
ATOM     29  C   UNL     1       0.876  -6.279   2.539  0.00  0.00    -0.061 C 
ATOM     30  C   UNL     1       1.326  -5.204   1.490  0.00  0.00    +0.079 C 
ATOM     31  C   UNL     1       2.159  -7.050   3.008  0.00  0.00    +0.260 C 
ATOM     37  O   UNL     1       2.708  -7.854   1.936  0.00  0.00    -0.372 OA
ATOM     38  C   UNL     1       1.819  -8.657   1.262  0.00  0.00    +0.485 C 
ATOM     39  O   UNL     1       2.087  -9.836   1.120  0.00  0.00    -0.449 OA
ATOM     40  C   UNL     1       0.529  -8.130   0.803  0.00  0.00    +0.092 C 
ATOM     41  C   UNL     1      -0.059  -7.305   1.946  0.00  0.00    +0.037 C 
ATOM     42  O   UNL     1      -2.206  -7.296   0.656  0.00  0.00    -0.272 OA
ATOM     43  C   UNL     1      -4.598  -5.810   0.376  0.00  0.00    -0.015 C 
ATOM     44  C   UNL     1      -4.751  -7.178  -0.384  0.00  0.00    +0.018 C 
ATOM     45  C   UNL     1      -5.947  -5.255   0.279  0.00  0.00    +0.028 C 
ENDROOT
BRANCH  31  32
ATOM     32  C   UNL     1       3.203  -6.074   3.488  0.00  0.00    -0.188 A 
ATOM     33  C   UNL     1       3.495  -5.748   4.832  0.00  0.00    -0.046 A 
ATOM     34  C   UNL     1       4.489  -4.842   4.806  0.00  0.00    +0.166 A 
ATOM     35  O   UNL     1       4.812  -4.604   3.524  0.00  0.00    -0.173 OA
ATOM     36  C   UNL     1       4.039  -5.352   2.721  0.00  0.00    +0.208 A 
ENDBRANCH  31  32
BRANCH   7   8
ATOM      8  O   UNL     1      -1.760  -3.780   0.376  0.00  0.00    -0.544 OA
ATOM      9  H   UNL     1      -1.909  -2.928  -0.058  0.00  0.00    +0.368 HD
ENDBRANCH   7   8
BRANCH   6   5
ATOM      5  C   UNL     1      -4.221  -3.551  -0.340  0.00  0.00    +0.036 C 
BRANCH   5   4
ATOM      4  C   UNL     1      -3.573  -2.615  -1.327  0.00  0.00    +0.380 C 
ATOM     46  O   UNL     1      -2.727  -3.030  -2.092  0.00  0.00    -0.460 OA
BRANCH   4   3
ATOM      1  C   UNL     1      -3.791   1.075  -2.276  0.00  0.00    +0.087 C 
ATOM      2  C   UNL     1      -3.389  -0.377  -2.238  0.00  0.00    +0.066 C 
ATOM      3  C   UNL     1      -3.963  -1.206  -1.364  0.00  0.00    -0.227 C 
ATOM     47  C   UNL     1      -5.013  -0.690  -0.414  0.00  0.00    +0.092 C 
ENDBRANCH   4   3
ENDBRANCH   5   4
ENDBRANCH   6   5
BRANCH  15  16
ATOM     16  C   UNL     1      -4.460  -7.674   2.136  0.00  0.00    +0.270 C 
BRANCH  16  17
ATOM     17  O   UNL     1      -3.162  -8.271   2.180  0.00  0.00    -0.502 OA
ATOM     18  H   UNL     1      -2.576  -7.889   2.847  0.00  0.00    +0.370 HD
ENDBRANCH  16  17
BRANCH  16  19
ATOM     19  C   UNL     1      -5.136  -7.842   3.471  0.00  0.00    +0.424 C 
ATOM     22  O   UNL     1      -4.534  -8.334   4.396  0.00  0.00    -0.497 OA
BRANCH  19  20
ATOM     20  O   UNL     1      -6.408  -7.446   3.634  0.00  0.00    -0.352 OA
ATOM     21  C   UNL     1      -6.987  -7.635   4.927  0.00  0.00    +0.257 C 
ENDBRANCH  19  20
ENDBRANCH  16  19
ENDBRANCH  15  16
BRANCH  24  25
ATOM     25  O   UNL     1       0.575  -4.189   3.640  0.00  0.00    -0.327 OA
BRANCH  25  26
ATOM     26  C   UNL     1       0.783  -3.523   4.787  0.00  0.00    +0.457 C 
ATOM     27  C   UNL     1       1.070  -2.044   4.757  0.00  0.00    +0.149 C 
ATOM     28  O   UNL     1       0.740  -4.109   5.842  0.00  0.00    -0.507 OA
ENDBRANCH  25  26
ENDBRANCH  24  25
TORSDOF 11
