REMARK  Name = ZINC15121024
REMARK  8 active torsions:
REMARK  status: ('A' for Active; 'I' for Inactive)
REMARK    1  A    between atoms: C1_1  and  C2_2
REMARK    2  A    between atoms: C2_2  and  C3_3
REMARK    3  A    between atoms: C2_2  and  C4_4
REMARK    4  A    between atoms: C2_2  and  C6_6
REMARK    5  A    between atoms: C7_7  and  O6_24
REMARK    6  A    between atoms: C9_9  and  O5_23
REMARK    7  A    between atoms: C14_15  and  O4_22
REMARK    8  A    between atoms: C15_16  and  O3_21
REMARK                            x       y       z     vdW  Elec       q    Type
REMARK                         _______ _______ _______ _____ _____    ______ ____
ROOT
ATOM      3  C   UNL     1      -1.363  -1.688   1.264  0.00  0.00    -0.134 A 
ATOM      4  C   UNL     1      -2.459  -1.656   2.113  0.00  0.00    +0.200 A 
ATOM      7  C   UNL     1      -2.531  -2.507   3.210  0.00  0.00    -0.060 A 
ATOM      8  C   UNL     1      -1.499  -3.389   3.470  0.00  0.00    +0.219 A 
ATOM     11  C   UNL     1      -0.386  -3.422   2.619  0.00  0.00    -0.268 A 
ATOM     12  C   UNL     1       0.728  -4.352   2.871  0.00  0.00    +0.440 A 
ATOM     13  O   UNL     1       0.720  -5.116   3.819  0.00  0.00    -0.433 OA
ATOM     14  C   UNL     1       1.856  -4.312   1.920  0.00  0.00    -0.221 A 
ATOM     15  C   UNL     1       2.956  -5.158   2.081  0.00  0.00    +0.117 A 
ATOM     16  C   UNL     1       3.998  -5.103   1.180  0.00  0.00    +0.050 A 
ATOM     19  C   UNL     1       3.951  -4.204   0.111  0.00  0.00    +0.154 A 
ATOM     22  C   UNL     1       2.864  -3.365  -0.053  0.00  0.00    -0.006 A 
ATOM     23  C   UNL     1       1.806  -3.408   0.847  0.00  0.00    +0.165 A 
ATOM     24  O   UNL     1       0.749  -2.586   0.680  0.00  0.00    -0.202 OA
ATOM     25  C   UNL     1      -0.316  -2.565   1.507  0.00  0.00    +0.198 A 
ENDROOT
BRANCH   3   2
ATOM      1  C   UNL     1      -1.217   0.687   0.564  0.00  0.00    +0.049 C 
ATOM      2  C   UNL     1      -1.306  -0.761   0.077  0.00  0.00    +0.017 C 
ATOM     28  C   UNL     1      -2.568  -0.938  -0.769  0.00  0.00    +0.046 C 
BRANCH   2  26
ATOM     26  C   UNL     1      -0.093  -1.086  -0.756  0.00  0.00    -0.016 C 
ATOM     27  C   UNL     1       0.827  -0.175  -0.957  0.00  0.00    +0.007 C 
ENDBRANCH   2  26
ENDBRANCH   3   2
BRANCH   4   5
ATOM      5  O   UNL     1      -3.474  -0.790   1.867  0.00  0.00    -0.481 OA
ATOM      6  H   UNL     1      -4.211  -1.177   1.375  0.00  0.00    +0.401 HD
ENDBRANCH   4   5
BRANCH   8   9
ATOM      9  O   UNL     1      -1.563  -4.218   4.543  0.00  0.00    -0.474 OA
ATOM     10  H   UNL     1      -1.183  -3.845   5.351  0.00  0.00    +0.403 HD
ENDBRANCH   8   9
BRANCH  16  17
ATOM     17  O   UNL     1       5.072  -5.925   1.330  0.00  0.00    -0.479 OA
ATOM     18  H   UNL     1       5.781  -5.550   1.871  0.00  0.00    +0.390 HD
ENDBRANCH  16  17
BRANCH  19  20
ATOM     20  O   UNL     1       4.980  -4.154  -0.773  0.00  0.00    -0.479 OA
ATOM     21  H   UNL     1       5.676  -3.528  -0.532  0.00  0.00    +0.399 HD
ENDBRANCH  19  20
TORSDOF 6
