REMARK  Name = ZINC95486072
REMARK  7 active torsions:
REMARK  status: ('A' for Active; 'I' for Inactive)
REMARK    1  A    between atoms: C1_1  and  C2_2
REMARK    2  A    between atoms: C6_7  and  C29_35
REMARK    3  A    between atoms: C6_7  and  C30_36
REMARK    4  A    between atoms: C10_12  and  C28_34
REMARK    5  A    between atoms: C15_18  and  C27_33
REMARK    6  A    between atoms: C21_25  and  C24_29
REMARK    7  A    between atoms: C21_25  and  C25_30
REMARK                            x       y       z     vdW  Elec       q    Type
REMARK                         _______ _______ _______ _____ _____    ______ ____
ROOT
ATOM      1  C   UNL     1      -0.026   1.686  -0.274  0.00  0.00    +0.029 C 
ATOM      2  C   UNL     1       0.049   0.172  -0.132  0.00  0.00    -0.043 C 
ATOM      3  C   UNL     1      -1.396  -0.337   0.080  0.00  0.00    +0.036 C 
ATOM      4  C   UNL     1      -2.007   0.383   1.281  0.00  0.00    +0.018 C 
ATOM      5  C   UNL     1      -1.136   0.192   2.494  0.00  0.00    +0.369 C 
ATOM      6  C   UNL     1       0.371   0.205   2.406  0.00  0.00    -0.092 C 
ATOM      7  C   UNL     1       0.901   1.597   2.750  0.00  0.00    +0.055 C 
ATOM      8  C   UNL     1       0.889  -0.763   3.498  0.00  0.00    +0.041 C 
ATOM      9  O   UNL     1      -1.660   0.022   3.581  0.00  0.00    -0.464 OA
ATOM     10  C   UNL     1       0.581  -0.490  -1.416  0.00  0.00    +0.041 C 
ATOM     11  C   UNL     1       0.221  -1.977  -1.296  0.00  0.00    +0.010 C 
ATOM     12  C   UNL     1       0.737  -2.783  -2.477  0.00  0.00    +0.030 C 
ATOM     13  C   UNL     1       1.406  -1.877  -3.494  0.00  0.00    +0.141 C 
ATOM     14  C   UNL     1       2.553  -1.084  -2.886  0.00  0.00    -0.041 C 
ATOM     15  C   UNL     1       3.718  -1.999  -2.494  0.00  0.00    +0.033 C 
ATOM     16  C   UNL     1       3.035  -0.074  -3.942  0.00  0.00    +0.040 C 
ATOM     17  C   UNL     1       3.272  -0.777  -5.289  0.00  0.00    +0.034 C 
ATOM     18  C   UNL     1       1.985  -1.472  -5.721  0.00  0.00    -0.149 C 
ATOM     19  C   UNL     1       0.776  -0.603  -5.382  0.00  0.00    +0.218 C 
ATOM     20  C   UNL     1       2.076  -2.024  -7.100  0.00  0.00    +0.385 C 
ATOM     21  O   UNL     1       1.378  -1.606  -8.000  0.00  0.00    -0.448 OA
ATOM     22  C   UNL     1       3.088  -3.137  -7.323  0.00  0.00    +0.034 C 
ATOM     23  C   UNL     1       2.964  -4.218  -6.254  0.00  0.00    -0.057 C 
ATOM     24  C   UNL     1       4.210  -5.112  -6.329  0.00  0.00    +0.034 C 
ATOM     25  C   UNL     1       1.735  -5.080  -6.529  0.00  0.00    +0.027 C 
ATOM     26  C   UNL     1       2.890  -3.616  -4.839  0.00  0.00    +0.060 C 
ATOM     27  O   UNL     1       0.436  -0.917  -4.010  0.00  0.00    -0.363 OA
ATOM     28  C   UNL     1       1.740  -2.664  -4.754  0.00  0.00    -0.011 C 
ATOM     29  C   UNL     1       2.078  -0.323  -1.629  0.00  0.00    -0.022 C 
ATOM     30  C   UNL     1       2.458   1.155  -1.820  0.00  0.00    +0.020 C 
ATOM     31  C   UNL     1       2.828  -0.810  -0.385  0.00  0.00    +0.020 C 
ATOM     32  C   UNL     1       2.350  -0.021   0.849  0.00  0.00    +0.012 C 
ATOM     33  C   UNL     1       0.867  -0.293   1.061  0.00  0.00    +0.007 C 
ENDROOT
TORSDOF 0
