REMARK  Name = ZINC95486348
REMARK  13 active torsions:
REMARK  status: ('A' for Active; 'I' for Inactive)
REMARK    1  A    between atoms: C1_1  and  C2_2
REMARK    2  A    between atoms: C2_2  and  C3_4
REMARK    3  A    between atoms: C2_2  and  C10_13
REMARK    4  A    between atoms: C3_4  and  C4_5
REMARK    5  A    between atoms: C4_5  and  C5_6
REMARK    6  A    between atoms: C5_6  and  C6_7
REMARK    7  A    between atoms: C5_6  and  C7_9
REMARK    8  A    between atoms: C5_6  and  O2_12
REMARK    9  A    between atoms: C7_9  and  C8_10
REMARK   10  A    between atoms: C7_9  and  C9_11
REMARK   11  A    between atoms: C14_19  and  C28_37
REMARK   12  A    between atoms: C22_29  and  C27_36
REMARK   13  A    between atoms: C25_32  and  O3_35
REMARK                            x       y       z     vdW  Elec       q    Type
REMARK                         _______ _______ _______ _____ _____    ______ ____
ROOT
ATOM      3  C   UNL     1       0.635  -0.410  -1.331  0.00  0.00    -0.003 C 
ATOM      4  C   UNL     1       2.111   0.056  -1.388  0.00  0.00    +0.006 C 
ATOM      5  C   UNL     1       2.975  -1.233  -1.450  0.00  0.00    +0.009 C 
ATOM      6  C   UNL     1       2.060  -2.290  -0.822  0.00  0.00    -0.006 C 
ATOM      7  C   UNL     1       2.374  -3.732  -1.181  0.00  0.00    +0.008 C 
ATOM      8  C   UNL     1       3.736  -4.120  -0.595  0.00  0.00    +0.058 C 
ATOM      9  C   UNL     1       3.963  -5.589  -0.802  0.00  0.00    -0.060 C 
ATOM     10  C   UNL     1       2.993  -6.447  -0.916  0.00  0.00    -0.092 C 
ATOM     11  C   UNL     1       1.510  -6.076  -0.897  0.00  0.00    -0.009 C 
ATOM     12  C   UNL     1       0.887  -6.335  -2.271  0.00  0.00    +0.024 C 
ATOM     13  C   UNL     1       0.792  -6.977   0.112  0.00  0.00    +0.031 C 
ATOM     14  C   UNL     1       1.041  -8.443  -0.249  0.00  0.00    +0.032 C 
ATOM     15  C   UNL     1       2.535  -8.752  -0.145  0.00  0.00    +0.163 C 
ATOM     18  C   UNL     1       3.347  -7.912  -1.115  0.00  0.00    +0.026 C 
ATOM     19  C   UNL     1       1.286  -4.616  -0.542  0.00  0.00    -0.004 C 
ATOM     20  C   UNL     1      -0.123  -4.196  -0.951  0.00  0.00    +0.011 C 
ATOM     21  C   UNL     1      -0.373  -2.703  -0.685  0.00  0.00    +0.023 C 
ATOM     22  C   UNL     1       0.685  -1.930  -1.450  0.00  0.00    -0.055 C 
ATOM     23  C   UNL     1       0.665  -2.336  -2.926  0.00  0.00    +0.021 C 
ENDROOT
BRANCH   3   2
ATOM      1  C   UNL     1       0.895  -0.470   1.154  0.00  0.00    +0.013 C 
ATOM      2  C   UNL     1       0.002  -0.004   0.002  0.00  0.00    -0.009 C 
BRANCH   2  24
ATOM     24  C   UNL     1      -0.145   1.518   0.054  0.00  0.00    +0.023 C 
BRANCH  24  25
ATOM     25  C   UNL     1      -0.911   1.914   1.317  0.00  0.00    +0.007 C 
BRANCH  25  26
ATOM     26  C   UNL     1      -1.058   3.436   1.369  0.00  0.00    +0.076 C 
BRANCH  26  29
ATOM     29  C   UNL     1      -1.824   3.832   2.633  0.00  0.00    -0.037 C 
ATOM     30  C   UNL     1      -1.971   5.354   2.685  0.00  0.00    +0.031 C 
ATOM     31  C   UNL     1      -1.057   3.351   3.866  0.00  0.00    +0.031 C 
ENDBRANCH  26  29
BRANCH  26  27
ATOM     27  O   UNL     1       0.238   4.039   1.390  0.00  0.00    -0.541 OA
ATOM     28  H   UNL     1       0.781   3.778   2.146  0.00  0.00    +0.382 HD
ENDBRANCH  26  27
BRANCH  26  32
ATOM     32  C   UNL     1      -1.813   3.909   0.155  0.00  0.00    +0.465 C 
ATOM     33  O   UNL     1      -2.195   3.112  -0.668  0.00  0.00    -0.433 OA
ENDBRANCH  26  32
ENDBRANCH  25  26
ENDBRANCH  24  25
ENDBRANCH   2  24
ENDBRANCH   3   2
BRANCH  15  16
ATOM     16  O   UNL     1       2.999  -8.428   1.168  0.00  0.00    -0.565 OA
ATOM     17  H   UNL     1       3.940  -8.599   1.306  0.00  0.00    +0.374 HD
ENDBRANCH  15  16
TORSDOF 8
