REMARK  Name = ZINC95486281
REMARK  8 active torsions:
REMARK  status: ('A' for Active; 'I' for Inactive)
REMARK    1  A    between atoms: C1_1  and  C2_2
REMARK    2  A    between atoms: C3_3  and  O7_23
REMARK    3  A    between atoms: C7_7  and  O1_8
REMARK    4  A    between atoms: C9_11  and  O6_22
REMARK    5  A    between atoms: C10_12  and  O4_14
REMARK    6  A    between atoms: O4_14  and  C11_15
REMARK    7  A    between atoms: C14_18  and  O5_21
REMARK    8  A    between atoms: O7_23  and  C17_24
REMARK                            x       y       z     vdW  Elec       q    Type
REMARK                         _______ _______ _______ _____ _____    ______ ____
ROOT
ATOM      1  C   UNL     1      -0.275   1.498   0.034  0.00  0.00    +0.122 C 
ATOM      2  C   UNL     1      -0.208  -0.008   0.021  0.00  0.00    -0.171 A 
ATOM      3  C   UNL     1      -0.203  -0.692  -1.190  0.00  0.00    +0.212 A 
ATOM      6  C   UNL     1      -0.142  -2.076  -1.219  0.00  0.00    -0.090 A 
ATOM      7  C   UNL     1      -0.084  -2.793  -0.034  0.00  0.00    +0.212 A 
ATOM      8  C   UNL     1      -0.088  -2.104   1.191  0.00  0.00    -0.279 A 
ATOM      9  C   UNL     1      -0.025  -2.887   2.436  0.00  0.00    +0.442 A 
ATOM     10  C   UNL     1       0.035  -4.295   2.318  0.00  0.00    -0.060 A 
ATOM     13  C   UNL     1       0.033  -4.864   1.083  0.00  0.00    +0.215 A 
ATOM     23  O   UNL     1      -0.026  -2.342   3.529  0.00  0.00    -0.430 OA
ATOM     24  O   UNL     1      -0.024  -4.141  -0.044  0.00  0.00    -0.234 OA
ATOM     25  C   UNL     1      -0.145  -0.705   1.213  0.00  0.00    +0.241 A 
ENDROOT
BRANCH   3   4
ATOM      4  O   UNL     1      -0.260   0.004  -2.355  0.00  0.00    -0.296 OA
ATOM      5  C   UNL     1      -0.252  -0.756  -3.565  0.00  0.00    +0.255 C 
ENDBRANCH   3   4
BRANCH  10  11
ATOM     11  O   UNL     1       0.095  -5.076   3.433  0.00  0.00    -0.444 OA
ATOM     12  H   UNL     1       0.133  -6.024   3.248  0.00  0.00    +0.399 HD
ENDBRANCH  10  11
BRANCH  25  26
ATOM     26  O   UNL     1      -0.144  -0.039   2.395  0.00  0.00    -0.466 OA
ATOM     27  H   UNL     1      -1.026   0.114   2.761  0.00  0.00    +0.404 HD
ENDBRANCH  25  26
BRANCH  13  14
ATOM     14  O   UNL     1       0.092  -6.211   0.989  0.00  0.00    -0.220 OA
BRANCH  14  15
ATOM     15  C   UNL     1      -0.011  -6.770  -0.246  0.00  0.00    +0.055 A 
ATOM     16  C   UNL     1       1.076  -6.754  -1.108  0.00  0.00    +0.041 A 
ATOM     17  C   UNL     1       0.971  -7.322  -2.362  0.00  0.00    +0.008 A 
ATOM     18  C   UNL     1      -0.221  -7.908  -2.761  0.00  0.00    +0.123 A 
ATOM     21  C   UNL     1      -1.308  -7.923  -1.900  0.00  0.00    +0.010 A 
ATOM     22  C   UNL     1      -1.202  -7.361  -0.643  0.00  0.00    +0.050 A 
BRANCH  18  19
ATOM     19  O   UNL     1      -0.324  -8.466  -3.996  0.00  0.00    -0.496 OA
ATOM     20  H   UNL     1      -0.083  -9.402  -4.026  0.00  0.00    +0.398 HD
ENDBRANCH  18  19
ENDBRANCH  14  15
ENDBRANCH  13  14
TORSDOF 6
