REMARK  Name = ZINC14727631
REMARK  15 active torsions:
REMARK  status: ('A' for Active; 'I' for Inactive)
REMARK    1  A    between atoms: C1_1  and  C2_2
REMARK    2  A    between atoms: C2_2  and  C24_31
REMARK    3  A    between atoms: C3_3  and  C4_4
REMARK    4  A    between atoms: C4_4  and  C5_5
REMARK    5  A    between atoms: C9_9  and  O2_13
REMARK    6  A    between atoms: C10_10  and  O1_11
REMARK    7  A    between atoms: O1_11  and  C11_12
REMARK    8  A    between atoms: C14_17  and  O7_30
REMARK    9  A    between atoms: C15_18  and  C19_24
REMARK   10  A    between atoms: C16_19  and  O5_23
REMARK   11  A    between atoms: C19_24  and  C20_25
REMARK   12  A    between atoms: C20_25  and  C21_26
REMARK   13  A    between atoms: C21_26  and  C22_27
REMARK   14  A    between atoms: C21_26  and  C23_28
REMARK   15  A    between atoms: C21_26  and  O6_29
REMARK                            x       y       z     vdW  Elec       q    Type
REMARK                         _______ _______ _______ _____ _____    ______ ____
ROOT
ATOM      6  C   UNL     1      -0.801   2.168   0.912  0.00  0.00    +0.018 A 
ATOM      7  C   UNL     1      -0.342   3.468   1.139  0.00  0.00    -0.226 A 
ATOM      8  C   UNL     1      -0.953   4.280   2.108  0.00  0.00    +0.180 A 
ATOM      9  O   UNL     1      -0.522   5.538   2.333  0.00  0.00    -0.225 OA
ATOM     10  C   UNL     1       0.501   6.106   1.662  0.00  0.00    +0.193 A 
ATOM     11  C   UNL     1       0.883   7.407   1.955  0.00  0.00    -0.033 A 
ATOM     12  C   UNL     1       1.934   7.997   1.271  0.00  0.00    +0.195 A 
ATOM     15  C   UNL     1       2.619   7.299   0.283  0.00  0.00    -0.169 A 
ATOM     23  C   UNL     1       2.254   6.002  -0.026  0.00  0.00    +0.225 A 
ATOM     26  C   UNL     1       1.192   5.399   0.663  0.00  0.00    -0.267 A 
ATOM     27  C   UNL     1      -2.015   3.771   2.846  0.00  0.00    -0.015 A 
ATOM     28  C   UNL     1      -2.463   2.482   2.621  0.00  0.00    +0.165 A 
ATOM     31  C   UNL     1       0.782   4.018   0.357  0.00  0.00    +0.439 A 
ATOM     32  O   UNL     1       1.346   3.360  -0.499  0.00  0.00    -0.421 OA
ATOM     33  C   UNL     1      -1.856   1.678   1.653  0.00  0.00    +0.038 A 
ENDROOT
BRANCH  12  13
ATOM     13  O   UNL     1       2.299   9.271   1.568  0.00  0.00    -0.483 OA
ATOM     14  H   UNL     1       1.838   9.943   1.048  0.00  0.00    +0.400 HD
ENDBRANCH  12  13
BRANCH  23  24
ATOM     24  O   UNL     1       2.920   5.316  -0.989  0.00  0.00    -0.466 OA
ATOM     25  H   UNL     1       2.547   5.420  -1.875  0.00  0.00    +0.401 HD
ENDBRANCH  23  24
BRANCH  28  29
ATOM     29  O   UNL     1      -3.501   1.993   3.347  0.00  0.00    -0.478 OA
ATOM     30  H   UNL     1      -3.235   1.549   4.164  0.00  0.00    +0.398 HD
ENDBRANCH  28  29
BRANCH  33  34
ATOM     34  O   UNL     1      -2.305   0.411   1.441  0.00  0.00    -0.313 OA
ATOM     35  C   UNL     1      -1.703  -0.628   2.214  0.00  0.00    +0.221 C 
ENDBRANCH  33  34
BRANCH   6   5
ATOM      5  C   UNL     1      -0.143   1.305  -0.133  0.00  0.00    +0.130 C 
BRANCH   5   4
ATOM      1  C   UNL     1      -1.285  -0.752  -1.684  0.00  0.00    +0.075 C 
ATOM      2  C   UNL     1      -1.226   0.654  -2.222  0.00  0.00    -0.129 C 
ATOM      3  C   UNL     1      -1.736   0.953  -3.608  0.00  0.00    +0.073 C 
ATOM      4  C   UNL     1      -0.730   1.617  -1.485  0.00  0.00    -0.036 C 
ENDBRANCH   5   4
ENDBRANCH   6   5
BRANCH  15  16
ATOM     16  C   UNL     1       3.759   7.956  -0.452  0.00  0.00    +0.104 C 
BRANCH  16  17
ATOM     17  C   UNL     1       3.220   8.674  -1.691  0.00  0.00    +0.043 C 
BRANCH  17  18
ATOM     18  C   UNL     1       4.378   9.341  -2.437  0.00  0.00    +0.126 C 
ATOM     21  C   UNL     1       5.137  10.262  -1.480  0.00  0.00    +0.010 C 
ATOM     22  C   UNL     1       3.826  10.161  -3.605  0.00  0.00    +0.008 C 
BRANCH  18  19
ATOM     19  O   UNL     1       5.264   8.338  -2.937  0.00  0.00    -0.558 OA
ATOM     20  H   UNL     1       6.023   8.689  -3.422  0.00  0.00    +0.377 HD
ENDBRANCH  18  19
ENDBRANCH  17  18
ENDBRANCH  16  17
ENDBRANCH  15  16
TORSDOF 10
