REMARK  Name = ZINC01663631
REMARK  9 active torsions:
REMARK  status: ('A' for Active; 'I' for Inactive)
REMARK    1  A    between atoms: C1_1  and  O1_2
REMARK    2  A    between atoms: O1_2  and  C2_3
REMARK    3  A    between atoms: C4_5  and  O6_25
REMARK    4  A    between atoms: C5_6  and  O5_23
REMARK    5  A    between atoms: C9_11  and  C11_15
REMARK    6  A    between atoms: C11_15  and  C12_16
REMARK    7  A    between atoms: C15_19  and  O4_22
REMARK    8  A    between atoms: O5_23  and  C18_24
REMARK    9  A    between atoms: O6_25  and  C19_26
REMARK                            x       y       z     vdW  Elec       q    Type
REMARK                         _______ _______ _______ _____ _____    ______ ____
ROOT
ATOM      3  C   UNL     1      -1.127  -2.596   2.155  0.00  0.00    +0.254 A 
ATOM      4  C   UNL     1      -1.302  -3.935   1.854  0.00  0.00    -0.188 A 
ATOM      5  C   UNL     1      -2.454  -4.359   1.205  0.00  0.00    +0.218 A 
ATOM      8  C   UNL     1      -3.442  -3.446   0.847  0.00  0.00    -0.017 A 
ATOM     11  C   UNL     1      -3.285  -2.100   1.138  0.00  0.00    +0.234 A 
ATOM     12  O   UNL     1      -4.246  -1.214   0.781  0.00  0.00    -0.286 OA
ATOM     13  C   UNL     1      -4.323   0.030   1.478  0.00  0.00    +0.276 C 
ATOM     14  C   UNL     1      -2.944   0.707   1.462  0.00  0.00    -0.050 C 
ATOM     24  C   UNL     1      -1.967  -0.248   2.123  0.00  0.00    +0.407 C 
ATOM     25  O   UNL     1      -1.103   0.146   2.879  0.00  0.00    -0.419 OA
ATOM     26  C   UNL     1      -2.121  -1.671   1.802  0.00  0.00    -0.309 A 
ENDROOT
BRANCH   3   2
ATOM      1  C   UNL     1       0.967  -3.180   3.115  0.00  0.00    +0.248 C 
ATOM      2  O   UNL     1      -0.001  -2.180   2.788  0.00  0.00    -0.280 OA
ENDBRANCH   3   2
BRANCH   5   6
ATOM      6  O   UNL     1      -2.618  -5.675   0.917  0.00  0.00    -0.292 OA
ATOM      7  C   UNL     1      -1.568  -6.561   1.310  0.00  0.00    +0.251 C 
ENDBRANCH   5   6
BRANCH   8   9
ATOM      9  O   UNL     1      -4.567  -3.877   0.210  0.00  0.00    -0.305 OA
ATOM     10  C   UNL     1      -4.532  -3.906  -1.218  0.00  0.00    +0.215 C 
ENDBRANCH   8   9
BRANCH  14  15
ATOM     15  C   UNL     1      -2.513   0.977   0.019  0.00  0.00    +0.109 C 
BRANCH  15  16
ATOM     16  C   UNL     1      -1.220   1.750   0.017  0.00  0.00    -0.100 A 
ATOM     17  C   UNL     1      -0.013   1.076   0.008  0.00  0.00    +0.032 A 
ATOM     18  C   UNL     1       1.175   1.782   0.000  0.00  0.00    -0.012 A 
ATOM     19  C   UNL     1       1.155   3.169   0.008  0.00  0.00    +0.105 A 
ATOM     22  C   UNL     1      -0.057   3.844   0.023  0.00  0.00    -0.014 A 
ATOM     23  C   UNL     1      -1.242   3.133   0.031  0.00  0.00    +0.033 A 
BRANCH  19  20
ATOM     20  O   UNL     1       2.322   3.866   0.000  0.00  0.00    -0.500 OA
ATOM     21  H   UNL     1       2.651   4.073  -0.885  0.00  0.00    +0.390 HD
ENDBRANCH  19  20
ENDBRANCH  15  16
ENDBRANCH  14  15
TORSDOF 6
