REMARK  Name = ZINC01724917
REMARK  0 active torsions:
REMARK  status: ('A' for Active; 'I' for Inactive)
REMARK                            x       y       z     vdW  Elec       q    Type
REMARK                         _______ _______ _______ _____ _____    ______ ____
ROOT
ATOM      1  C   UNL     1      -1.395  10.103   0.070  0.00  0.00    +0.051 A 
ATOM      2  C   UNL     1      -0.006   9.974   0.057  0.00  0.00    +0.121 A 
ATOM      3  C   UNL     1       0.584   8.749   0.043  0.00  0.00    +0.007 A 
ATOM      4  C   UNL     1      -0.212   7.588   0.044  0.00  0.00    +0.158 A 
ATOM      5  C   UNL     1      -1.625   7.723   0.058  0.00  0.00    -0.067 A 
ATOM      6  C   UNL     1      -2.426   6.568   0.060  0.00  0.00    +0.193 A 
ATOM      7  C   UNL     1      -1.798   5.337   0.048  0.00  0.00    +0.098 A 
ATOM      8  C   UNL     1      -0.386   5.278   0.034  0.00  0.00    +0.196 A 
ATOM      9  C   UNL     1      -0.036   3.844   0.023  0.00  0.00    -0.159 A 
ATOM     10  C   UNL     1       1.176   3.157   0.008  0.00  0.00    +0.099 A 
ATOM     11  C   UNL     1       1.182   1.779   0.000  0.00  0.00    +0.011 A 
ATOM     12  C   UNL     1      -0.013   1.076   0.008  0.00  0.00    +0.116 A 
ATOM     13  C   UNL     1      -1.219   1.742   0.017  0.00  0.00    +0.003 A 
ATOM     14  C   UNL     1      -1.246   3.134   0.031  0.00  0.00    +0.206 A 
ATOM     15  N   UNL     1      -2.290   4.043   0.046  0.00  0.00    -0.613 N 
ATOM     16  H   UNL     1      -3.376   3.867   0.055  0.00  0.00    +0.471 HD
ATOM     17  N   UNL     1       0.346   6.377   0.033  0.00  0.00    -0.458 N 
ATOM     18  H   UNL     1       1.442   6.277   0.022  0.00  0.00    +0.478 HD
ATOM     19  C   UNL     1      -2.199   9.006   0.071  0.00  0.00    +0.091 A 
ENDROOT
TORSDOF 0
