REMARK  Name = ZINC00608186
REMARK  13 active torsions:
REMARK  status: ('A' for Active; 'I' for Inactive)
REMARK    1  A    between atoms: C1_1  and  C2_2
REMARK    2  A    between atoms: C4_4  and  O8_27
REMARK    3  A    between atoms: C5_5  and  C19_25
REMARK    4  A    between atoms: C6_6  and  O6_24
REMARK    5  A    between atoms: C7_7  and  C8_8
REMARK    6  A    between atoms: C8_8  and  O2_10
REMARK    7  A    between atoms: O2_10  and  C9_11
REMARK    8  A    between atoms: C11_13  and  C18_23
REMARK    9  A    between atoms: C12_14  and  C16_19
REMARK   10  A    between atoms: C13_15  and  O3_18
REMARK   11  A    between atoms: C14_16  and  C15_17
REMARK   12  A    between atoms: C16_19  and  O5_21
REMARK   13  A    between atoms: O5_21  and  C17_22
REMARK                            x       y       z     vdW  Elec       q    Type
REMARK                         _______ _______ _______ _____ _____    ______ ____
ROOT
ATOM     14  C   UNL     1       1.420  -0.951   3.110  0.00  0.00    +0.525 C 
ATOM     30  O   UNL     1       1.577  -1.503   4.181  0.00  0.00    -0.460 OA
ENDROOT
BRANCH  14  13
ATOM      1  C   UNL     1      -1.002  -2.118   2.061  0.00  0.00    +0.119 C 
ATOM      2  C   UNL     1       0.310  -2.304   1.343  0.00  0.00    +0.027 A 
ATOM      3  C   UNL     1       0.352  -3.032   0.175  0.00  0.00    -0.021 A 
ATOM      4  C   UNL     1       1.553  -3.212  -0.499  0.00  0.00    +0.219 A 
ATOM      7  C   UNL     1       2.738  -2.651   0.010  0.00  0.00    -0.256 A 
ATOM     10  C   UNL     1       2.698  -1.909   1.201  0.00  0.00    +0.226 A 
ATOM     13  C   UNL     1       1.476  -1.732   1.864  0.00  0.00    -0.167 A 
BRANCH   4   5
ATOM      5  O   UNL     1       1.583  -3.930  -1.647  0.00  0.00    -0.474 OA
ATOM      6  H   UNL     1       1.442  -3.402  -2.445  0.00  0.00    +0.406 HD
ENDBRANCH   4   5
BRANCH   7   8
ATOM      8  C   UNL     1       4.006  -2.841  -0.697  0.00  0.00    +0.497 C 
ATOM      9  O   UNL     1       4.037  -3.483  -1.726  0.00  0.00    -0.439 OA
ENDBRANCH   7   8
BRANCH  10  11
ATOM     11  O   UNL     1       3.830  -1.363   1.702  0.00  0.00    -0.483 OA
ATOM     12  H   UNL     1       4.010  -0.468   1.384  0.00  0.00    +0.407 HD
ENDBRANCH  10  11
ENDBRANCH  14  13
BRANCH  14  15
ATOM     15  O   UNL     1       1.194   0.378   3.063  0.00  0.00    -0.286 OA
BRANCH  15  16
ATOM     16  C   UNL     1       1.045   1.041   4.238  0.00  0.00    +0.122 A 
ATOM     17  C   UNL     1      -0.229   1.243   4.763  0.00  0.00    +0.020 A 
ATOM     18  C   UNL     1      -0.391   1.908   5.944  0.00  0.00    -0.018 A 
ATOM     19  C   UNL     1      -1.774   2.122   6.503  0.00  0.00    +0.116 C 
ATOM     20  C   UNL     1       0.725   2.392   6.635  0.00  0.00    -0.129 A 
ATOM     25  C   UNL     1       2.010   2.190   6.110  0.00  0.00    +0.169 A 
ATOM     28  C   UNL     1       2.162   1.509   4.913  0.00  0.00    -0.113 A 
ATOM     29  C   UNL     1       3.538   1.283   4.343  0.00  0.00    +0.120 C 
BRANCH  20  21
ATOM     21  C   UNL     1       0.551   3.110   7.908  0.00  0.00    +0.524 C 
ATOM     24  O   UNL     1       0.550   2.495   8.957  0.00  0.00    -0.490 OA
BRANCH  21  22
ATOM     22  O   UNL     1       0.393   4.448   7.911  0.00  0.00    -0.341 OA
ATOM     23  C   UNL     1       0.230   5.079   9.183  0.00  0.00    +0.264 C 
ENDBRANCH  21  22
ENDBRANCH  20  21
BRANCH  25  26
ATOM     26  O   UNL     1       3.099   2.655   6.772  0.00  0.00    -0.483 OA
ATOM     27  H   UNL     1       3.474   2.025   7.403  0.00  0.00    +0.401 HD
ENDBRANCH  25  26
ENDBRANCH  15  16
ENDBRANCH  14  15
TORSDOF 9
