REMARK  Name = ZINC95485903
REMARK  10 active torsions:
REMARK  status: ('A' for Active; 'I' for Inactive)
REMARK    1  A    between atoms: C1_1  and  C2_2
REMARK    2  A    between atoms: C2_2  and  C3_3
REMARK    3  A    between atoms: C2_2  and  C4_4
REMARK    4  A    between atoms: C4_4  and  C5_5
REMARK    5  A    between atoms: C4_4  and  C28_39
REMARK    6  A    between atoms: C4_4  and  O6_42
REMARK    7  A    between atoms: C8_11  and  O2_14
REMARK    8  A    between atoms: C22_31  and  C27_38
REMARK    9  A    between atoms: C25_34  and  O4_37
REMARK   10  A    between atoms: C28_39  and  C29_41
REMARK                            x       y       z     vdW  Elec       q    Type
REMARK                         _______ _______ _______ _____ _____    ______ ____
ROOT
ATOM      9  C   UNL     1      -2.218  -0.146   1.140  0.00  0.00    +0.189 C 
ATOM     10  C   UNL     1      -3.574  -0.831   1.155  0.00  0.00    +0.117 C 
ATOM     11  C   UNL     1      -4.392   0.300   1.909  0.00  0.00    -0.004 C 
ATOM     12  C   UNL     1      -5.698  -0.393   1.985  0.00  0.00    -0.149 C 
ATOM     13  C   UNL     1      -7.106   0.106   2.209  0.00  0.00    +0.133 C 
ATOM     14  C   UNL     1      -5.235  -1.833   2.391  0.00  0.00    +0.242 C 
ATOM     15  C   UNL     1      -6.121  -2.779   1.639  0.00  0.00    -0.039 C 
ATOM     16  C   UNL     1      -6.917  -2.143   0.812  0.00  0.00    -0.028 C 
ATOM     17  C   UNL     1      -7.818  -2.716  -0.221  0.00  0.00    -0.081 C 
ATOM     18  C   UNL     1      -8.047  -4.200  -0.186  0.00  0.00    +0.069 C 
ATOM     19  C   UNL     1      -9.269  -4.586  -1.018  0.00  0.00    +0.026 C 
ATOM     20  C   UNL     1      -9.118  -3.922  -2.396  0.00  0.00    +0.006 C 
ATOM     21  C   UNL     1      -9.262  -2.418  -2.208  0.00  0.00    -0.019 C 
ATOM     22  C   UNL     1     -10.710  -2.125  -1.812  0.00  0.00    +0.033 C 
ATOM     23  C   UNL     1      -8.984  -1.678  -3.513  0.00  0.00    +0.030 C 
ATOM     24  C   UNL     1      -7.601  -2.038  -4.054  0.00  0.00    -0.015 C 
ATOM     25  C   UNL     1      -7.526  -3.549  -4.290  0.00  0.00    +0.158 C 
ATOM     28  C   UNL     1      -7.744  -4.283  -2.965  0.00  0.00    +0.036 C 
ATOM     29  C   UNL     1      -8.359  -1.896  -1.110  0.00  0.00    -0.068 C 
ATOM     30  C   UNL     1      -8.145  -0.401  -1.099  0.00  0.00    +0.068 C 
ATOM     31  C   UNL     1      -6.858   0.056  -0.422  0.00  0.00    +0.067 C 
ATOM     32  C   UNL     1      -6.764  -0.645   0.932  0.00  0.00    -0.100 C 
ATOM     33  C   UNL     1      -3.954   1.482   1.111  0.00  0.00    +0.373 C 
ATOM     36  O   UNL     1      -3.848  -1.964   1.954  0.00  0.00    -0.337 OA
ATOM     37  O   UNL     1      -2.500   1.273   1.009  0.00  0.00    -0.375 OA
ENDROOT
BRANCH  25  26
ATOM     26  O   UNL     1      -6.244  -3.887  -4.821  0.00  0.00    -0.568 OA
ATOM     27  H   UNL     1      -6.041  -3.457  -5.664  0.00  0.00    +0.377 HD
ENDBRANCH  25  26
BRANCH  33  34
ATOM     34  O   UNL     1      -4.238   2.696   1.809  0.00  0.00    -0.544 OA
ATOM     35  H   UNL     1      -3.973   3.495   1.332  0.00  0.00    +0.389 HD
ENDBRANCH  33  34
BRANCH   9   3
ATOM      3  C   UNL     1      -1.392  -0.633  -0.052  0.00  0.00    +0.095 C 
BRANCH   3   2
ATOM      1  C   UNL     1       0.701  -0.060   1.187  0.00  0.00    +0.039 C 
ATOM      2  C   UNL     1      -0.077   0.147  -0.114  0.00  0.00    +0.021 C 
ATOM     38  C   UNL     1       0.759  -0.356  -1.293  0.00  0.00    +0.032 C 
ENDBRANCH   3   2
BRANCH   3   6
ATOM      6  C   UNL     1      -2.167  -0.411  -1.325  0.00  0.00    +0.336 C 
ATOM      7  C   UNL     1      -1.968  -1.334  -2.500  0.00  0.00    +0.072 C 
ATOM      8  O   UNL     1      -2.949   0.506  -1.404  0.00  0.00    -0.438 OA
ENDBRANCH   3   6
BRANCH   3   4
ATOM      4  O   UNL     1      -1.113  -2.026   0.099  0.00  0.00    -0.526 OA
ATOM      5  H   UNL     1      -1.902  -2.583   0.145  0.00  0.00    +0.382 HD
ENDBRANCH   3   4
ENDBRANCH   9   3
TORSDOF 6
