REMARK  Name = ZINC44607992
REMARK  13 active torsions:
REMARK  status: ('A' for Active; 'I' for Inactive)
REMARK    1  A    between atoms: C1_1  and  C2_2
REMARK    2  A    between atoms: C2_2  and  C3_3
REMARK    3  A    between atoms: C3_3  and  C4_5
REMARK    4  A    between atoms: C3_3  and  C27_35
REMARK    5  A    between atoms: C4_5  and  C5_6
REMARK    6  A    between atoms: C5_6  and  C6_7
REMARK    7  A    between atoms: C6_7  and  C7_9
REMARK    8  A    between atoms: C6_7  and  C8_10
REMARK    9  A    between atoms: C12_16  and  C26_34
REMARK   10  A    between atoms: C20_26  and  C25_33
REMARK   11  A    between atoms: C23_29  and  O1_32
REMARK   12  A    between atoms: C27_35  and  C28_36
REMARK   13  A    between atoms: C27_35  and  C29_37
REMARK                            x       y       z     vdW  Elec       q    Type
REMARK                         _______ _______ _______ _____ _____    ______ ____
ROOT
ATOM     10  C   UNL     1      -2.192  -4.314  -2.841  0.00  0.00    -0.004 C 
ATOM     11  C   UNL     1      -2.351  -5.757  -3.382  0.00  0.00    +0.006 C 
ATOM     12  C   UNL     1      -3.493  -6.410  -2.557  0.00  0.00    +0.009 C 
ATOM     13  C   UNL     1      -3.489  -5.594  -1.259  0.00  0.00    -0.005 C 
ATOM     14  C   UNL     1      -4.778  -5.622  -0.458  0.00  0.00    +0.008 C 
ATOM     15  C   UNL     1      -5.020  -7.039   0.073  0.00  0.00    +0.058 C 
ATOM     16  C   UNL     1      -6.197  -7.024   1.004  0.00  0.00    -0.060 C 
ATOM     17  C   UNL     1      -6.563  -5.968   1.669  0.00  0.00    -0.092 C 
ATOM     18  C   UNL     1      -5.877  -4.606   1.563  0.00  0.00    -0.009 C 
ATOM     19  C   UNL     1      -6.822  -3.593   0.913  0.00  0.00    +0.024 C 
ATOM     20  C   UNL     1      -5.562  -4.104   2.975  0.00  0.00    +0.031 C 
ATOM     21  C   UNL     1      -6.851  -4.067   3.799  0.00  0.00    +0.033 C 
ATOM     22  C   UNL     1      -7.414  -5.482   3.939  0.00  0.00    +0.163 C 
ATOM     25  C   UNL     1      -7.768  -6.077   2.588  0.00  0.00    +0.026 C 
ATOM     26  C   UNL     1      -4.603  -4.665   0.736  0.00  0.00    -0.004 C 
ATOM     27  C   UNL     1      -4.204  -3.257   0.302  0.00  0.00    +0.011 C 
ATOM     28  C   UNL     1      -2.964  -3.270  -0.604  0.00  0.00    +0.023 C 
ATOM     29  C   UNL     1      -3.291  -4.149  -1.796  0.00  0.00    -0.055 C 
ATOM     30  C   UNL     1      -4.577  -3.664  -2.468  0.00  0.00    +0.020 C 
ENDROOT
BRANCH  10   9
ATOM      9  C   UNL     1      -0.816  -4.138  -2.195  0.00  0.00    -0.011 C 
ATOM     31  C   UNL     1      -0.575  -5.268  -1.193  0.00  0.00    +0.014 C 
BRANCH   9   8
ATOM      8  C   UNL     1       0.264  -4.177  -3.278  0.00  0.00    +0.005 C 
BRANCH   8   7
ATOM      7  C   UNL     1       1.625  -3.868  -2.652  0.00  0.00    +0.011 C 
BRANCH   7   3
ATOM      3  C   UNL     1       2.706  -3.907  -3.735  0.00  0.00    -0.015 C 
BRANCH   3   4
ATOM      4  C   UNL     1       4.081  -3.723  -3.090  0.00  0.00    -0.024 C 
ATOM      5  C   UNL     1       4.359  -4.888  -2.139  0.00  0.00    +0.011 C 
ATOM      6  C   UNL     1       4.104  -2.409  -2.306  0.00  0.00    +0.012 C 
ENDBRANCH   3   4
BRANCH   3   2
ATOM      1  C   UNL     1       3.484  -2.878  -5.874  0.00  0.00    +0.003 C 
ATOM      2  C   UNL     1       2.459  -2.782  -4.742  0.00  0.00    +0.003 C 
ENDBRANCH   3   2
ENDBRANCH   7   3
ENDBRANCH   8   7
ENDBRANCH   9   8
ENDBRANCH  10   9
BRANCH  22  23
ATOM     23  O   UNL     1      -6.422  -6.334   4.517  0.00  0.00    -0.565 OA
ATOM     24  H   UNL     1      -6.710  -7.249   4.636  0.00  0.00    +0.374 HD
ENDBRANCH  22  23
TORSDOF 7
