REMARK  Name = ZINC33857007
REMARK  7 active torsions:
REMARK  status: ('A' for Active; 'I' for Inactive)
REMARK    1  A    between atoms: C1_1  and  C2_2
REMARK    2  A    between atoms: C2_2  and  C4_4
REMARK    3  A    between atoms: C9_10  and  O6_32
REMARK    4  A    between atoms: C16_20  and  O5_30
REMARK    5  A    between atoms: C17_21  and  O4_28
REMARK    6  A    between atoms: O4_28  and  C22_29
REMARK    7  A    between atoms: O5_30  and  C23_31
REMARK                            x       y       z     vdW  Elec       q    Type
REMARK                         _______ _______ _______ _____ _____    ______ ____
ROOT
ATOM      3  C   UNL     1      -1.293  -0.775   0.010  0.00  0.00    +0.216 C 
ATOM      4  C   UNL     1      -2.092  -0.490   1.307  0.00  0.00    +0.106 C 
ATOM      5  C   UNL     1      -3.509  -0.474   0.801  0.00  0.00    -0.233 A 
ATOM      6  C   UNL     1      -3.448  -0.374  -0.597  0.00  0.00    +0.201 A 
ATOM      7  C   UNL     1      -4.620  -0.347  -1.360  0.00  0.00    -0.054 A 
ATOM      8  C   UNL     1      -5.832  -0.413  -0.688  0.00  0.00    +0.243 A 
ATOM     11  C   UNL     1      -5.887  -0.500   0.710  0.00  0.00    -0.310 A 
ATOM     12  C   UNL     1      -7.186  -0.545   1.403  0.00  0.00    +0.420 C 
ATOM     13  O   UNL     1      -8.231  -0.734   0.814  0.00  0.00    -0.421 OA
ATOM     14  C   UNL     1      -7.123  -0.341   2.902  0.00  0.00    +0.011 C 
ATOM     15  C   UNL     1      -8.375  -0.826   3.573  0.00  0.00    -0.159 A 
ATOM     16  C   UNL     1      -9.604  -0.594   2.981  0.00  0.00    +0.043 A 
ATOM     17  C   UNL     1     -10.769  -1.005   3.603  0.00  0.00    +0.071 A 
ATOM     20  C   UNL     1     -10.703  -1.658   4.831  0.00  0.00    +0.144 A 
ATOM     23  C   UNL     1      -9.474  -1.896   5.419  0.00  0.00    -0.058 A 
ATOM     24  C   UNL     1      -8.302  -1.485   4.791  0.00  0.00    +0.138 A 
ATOM     25  O   UNL     1      -7.117  -1.749   5.403  0.00  0.00    -0.299 OA
ATOM     26  C   UNL     1      -5.933  -1.100   4.930  0.00  0.00    +0.293 C 
ATOM     27  C   UNL     1      -5.934  -1.175   3.406  0.00  0.00    +0.157 C 
ATOM     28  O   UNL     1      -4.739  -0.654   2.833  0.00  0.00    -0.282 OA
ATOM     29  C   UNL     1      -4.704  -0.543   1.483  0.00  0.00    +0.242 A 
ATOM     30  O   UNL     1      -2.172  -0.305  -1.030  0.00  0.00    -0.279 OA
ENDROOT
BRANCH   3   2
ATOM      1  C   UNL     1      -0.018   1.503   0.010  0.00  0.00    +0.087 C 
ATOM      2  C   UNL     1       0.002  -0.004   0.002  0.00  0.00    -0.134 C 
ATOM     31  C   UNL     1       1.145  -0.644  -0.012  0.00  0.00    +0.053 C 
ENDBRANCH   3   2
BRANCH   8   9
ATOM      9  O   UNL     1      -6.987  -0.392  -1.398  0.00  0.00    -0.479 OA
ATOM     10  H   UNL     1      -7.304  -1.267  -1.658  0.00  0.00    +0.405 HD
ENDBRANCH   8   9
BRANCH  17  18
ATOM     18  O   UNL     1     -11.976  -0.773   3.018  0.00  0.00    -0.304 OA
ATOM     19  C   UNL     1     -11.966  -0.099   1.758  0.00  0.00    +0.239 C 
ENDBRANCH  17  18
BRANCH  20  21
ATOM     21  O   UNL     1     -11.844  -2.061   5.451  0.00  0.00    -0.299 OA
ATOM     22  C   UNL     1     -11.700  -2.725   6.708  0.00  0.00    +0.242 C 
ENDBRANCH  20  21
TORSDOF 4
