REMARK  Name = ZINC95485945
REMARK  5 active torsions:
REMARK  status: ('A' for Active; 'I' for Inactive)
REMARK    1  A    between atoms: C1_1  and  O1_2
REMARK    2  A    between atoms: O1_2  and  C2_3
REMARK    3  A    between atoms: C4_5  and  C7_10
REMARK    4  A    between atoms: C8_11  and  C9_12
REMARK    5  A    between atoms: C13_16  and  O4_18
REMARK                            x       y       z     vdW  Elec       q    Type
REMARK                         _______ _______ _______ _____ _____    ______ ____
ROOT
ATOM      6  C   UNL     1      -2.571  -4.119   0.017  0.00  0.00    +0.012 C 
ATOM      7  C   UNL     1      -3.772  -4.732   0.025  0.00  0.00    +0.110 C 
ENDROOT
BRANCH   6   5
ATOM      3  C   UNL     1      -1.196  -0.635   0.010  0.00  0.00    +0.244 A 
ATOM      4  C   UNL     1      -1.265  -2.039   0.009  0.00  0.00    -0.083 A 
ATOM      5  C   UNL     1      -2.495  -2.658   0.018  0.00  0.00    +0.213 A 
ATOM     16  O   UNL     1      -3.631  -1.932   0.027  0.00  0.00    -0.271 OA
ATOM     17  C   UNL     1      -3.599  -0.588   0.028  0.00  0.00    +0.515 A 
ATOM     18  O   UNL     1      -4.643   0.043   0.036  0.00  0.00    -0.483 OA
ATOM     19  C   UNL     1      -2.377   0.092   0.025  0.00  0.00    -0.233 A 
BRANCH   3   2
ATOM      1  C   UNL     1      -0.017   1.425   0.010  0.00  0.00    +0.264 C 
ATOM      2  O   UNL     1       0.002  -0.004   0.002  0.00  0.00    -0.296 OA
ENDBRANCH   3   2
ENDBRANCH   6   5
BRANCH   7   8
ATOM      8  C   UNL     1      -3.847  -6.202   0.024  0.00  0.00    -0.064 A 
ATOM      9  C   UNL     1      -2.676  -6.966   0.020  0.00  0.00    +0.023 A 
ATOM     10  C   UNL     1      -2.751  -8.343   0.020  0.00  0.00    +0.030 A 
ATOM     11  C   UNL     1      -3.983  -8.973   0.022  0.00  0.00    +0.002 A 
ATOM     12  C   UNL     1      -5.152  -8.224   0.025  0.00  0.00    +0.105 A 
ATOM     15  C   UNL     1      -5.090  -6.841   0.033  0.00  0.00    +0.017 A 
BRANCH  12  13
ATOM     13  O   UNL     1      -6.359  -8.849   0.027  0.00  0.00    -0.498 OA
ATOM     14  H   UNL     1      -6.707  -9.032   0.911  0.00  0.00    +0.394 HD
ENDBRANCH  12  13
ENDBRANCH   7   8
TORSDOF 4
