REMARK  Name = ZINC14680087
REMARK  6 active torsions:
REMARK  status: ('A' for Active; 'I' for Inactive)
REMARK    1  A    between atoms: C1_1  and  O1_2
REMARK    2  A    between atoms: O1_2  and  C2_3
REMARK    3  A    between atoms: C4_5  and  C8_11
REMARK    4  A    between atoms: C6_7  and  O3_10
REMARK    5  A    between atoms: C7_8  and  O2_9
REMARK    6  A    between atoms: C8_11  and  C9_12
REMARK                            x       y       z     vdW  Elec       q    Type
REMARK                         _______ _______ _______ _____ _____    ______ ____
ROOT
ATOM      3  C   UNL     1      -1.864  -2.186  -3.449  0.00  0.00    +0.122 A 
ATOM      4  C   UNL     1      -1.844  -1.316  -2.369  0.00  0.00    -0.064 A 
ATOM      5  C   UNL     1      -1.318  -1.726  -1.159  0.00  0.00    -0.029 A 
ATOM      9  C   UNL     1      -0.821  -3.008  -1.015  0.00  0.00    -0.029 A 
ATOM     10  C   UNL     1      -0.843  -3.886  -2.088  0.00  0.00    +0.124 A 
ATOM     13  C   UNL     1      -1.366  -3.476  -3.309  0.00  0.00    +0.042 A 
ENDROOT
BRANCH   3   2
ATOM      1  C   UNL     1      -2.871  -0.441  -4.713  0.00  0.00    +0.243 C 
ATOM      2  O   UNL     1      -2.377  -1.780  -4.641  0.00  0.00    -0.305 OA
ENDBRANCH   3   2
BRANCH  10  11
ATOM     11  O   UNL     1      -0.354  -5.147  -1.946  0.00  0.00    -0.483 OA
ATOM     12  H   UNL     1      -1.013  -5.794  -1.658  0.00  0.00    +0.391 HD
ENDBRANCH  10  11
BRANCH  13  14
ATOM     14  O   UNL     1      -1.388  -4.335  -4.365  0.00  0.00    -0.475 OA
ATOM     15  H   UNL     1      -2.195  -4.865  -4.423  0.00  0.00    +0.383 HD
ENDBRANCH  13  14
BRANCH   5   6
ATOM      6  C   UNL     1      -1.293  -0.775   0.010  0.00  0.00    +0.112 C 
BRANCH   6   7
ATOM      7  C   UNL     1       0.002  -0.004   0.002  0.00  0.00    -0.040 C 
ATOM      8  C   UNL     1      -0.016   1.306   0.009  0.00  0.00    +0.009 C 
ENDBRANCH   6   7
ENDBRANCH   5   6
TORSDOF 5
