REMARK  Name = ZINC95486108
REMARK  17 active torsions:
REMARK  status: ('A' for Active; 'I' for Inactive)
REMARK    1  A    between atoms: C1_1  and  C2_2
REMARK    2  A    between atoms: C2_2  and  C3_3
REMARK    3  A    between atoms: C2_2  and  C4_4
REMARK    4  A    between atoms: C5_5  and  C6_6
REMARK    5  A    between atoms: C6_6  and  C7_7
REMARK    6  A    between atoms: C11_13  and  C26_31
REMARK    7  A    between atoms: C13_16  and  C22_27
REMARK    8  A    between atoms: C14_17  and  C15_19
REMARK    9  A    between atoms: C15_19  and  C16_20
REMARK   10  A    between atoms: C16_20  and  C17_21
REMARK   11  A    between atoms: C18_22  and  C19_23
REMARK   12  A    between atoms: C18_22  and  C20_24
REMARK   13  A    between atoms: C23_28  and  C24_29
REMARK   14  A    between atoms: C23_28  and  C25_30
REMARK   15  A    between atoms: C26_31  and  C27_33
REMARK   16  A    between atoms: C30_36  and  O5_40
REMARK   17  A    between atoms: C31_37  and  O4_39
REMARK                            x       y       z     vdW  Elec       q    Type
REMARK                         _______ _______ _______ _____ _____    ______ ____
ROOT
ATOM      6  C   UNL     1       1.186  -2.267   4.194  0.00  0.00    -0.020 C 
ATOM      7  C   UNL     1       0.895  -0.766   4.128  0.00  0.00    +0.080 C 
ATOM      8  C   UNL     1      -0.386  -0.487   4.940  0.00  0.00    +0.008 C 
ATOM      9  C   UNL     1      -1.474  -1.369   4.374  0.00  0.00    +0.159 C 
ATOM     10  C   UNL     1      -1.715  -2.603   4.844  0.00  0.00    -0.266 C 
ATOM     23  C   UNL     1      -0.968  -3.176   5.974  0.00  0.00    +0.415 C 
ATOM     24  C   UNL     1       0.240  -2.425   6.499  0.00  0.00    -0.095 C 
ATOM     29  O   UNL     1      -1.309  -4.226   6.474  0.00  0.00    -0.405 OA
ATOM     30  C   UNL     1      -0.090  -0.921   6.368  0.00  0.00    +0.380 C 
ATOM     31  O   UNL     1      -0.133  -0.158   7.303  0.00  0.00    -0.413 OA
ATOM     32  C   UNL     1       1.473  -2.686   5.635  0.00  0.00    +0.029 C 
ENDROOT
BRANCH  24  25
ATOM     25  C   UNL     1       0.525  -2.798   7.931  0.00  0.00    -0.034 C 
ATOM     26  C   UNL     1       0.867  -4.027   8.232  0.00  0.00    -0.086 C 
ATOM     27  C   UNL     1       1.019  -4.434   9.674  0.00  0.00    +0.083 C 
ATOM     28  C   UNL     1       1.107  -5.032   7.135  0.00  0.00    +0.074 C 
ENDBRANCH  24  25
BRANCH  10  11
ATOM     11  C   UNL     1      -2.770  -3.415   4.203  0.00  0.00    +0.454 C 
ATOM     22  O   UNL     1      -3.910  -2.994   4.144  0.00  0.00    -0.432 OA
BRANCH  11  12
ATOM     12  C   UNL     1      -2.442  -4.736   3.636  0.00  0.00    -0.153 A 
ATOM     13  C   UNL     1      -1.154  -5.260   3.781  0.00  0.00    +0.076 A 
ATOM     14  C   UNL     1      -0.849  -6.495   3.251  0.00  0.00    +0.001 A 
ATOM     15  C   UNL     1      -1.818  -7.221   2.571  0.00  0.00    +0.120 A 
ATOM     18  C   UNL     1      -3.105  -6.704   2.423  0.00  0.00    +0.070 A 
ATOM     21  C   UNL     1      -3.419  -5.470   2.957  0.00  0.00    +0.078 A 
BRANCH  15  16
ATOM     16  O   UNL     1      -1.512  -8.437   2.050  0.00  0.00    -0.485 OA
ATOM     17  H   UNL     1      -1.665  -9.174   2.656  0.00  0.00    +0.395 HD
ENDBRANCH  15  16
BRANCH  18  19
ATOM     19  O   UNL     1      -4.052  -7.418   1.757  0.00  0.00    -0.483 OA
ATOM     20  H   UNL     1      -4.567  -8.010   2.321  0.00  0.00    +0.391 HD
ENDBRANCH  18  19
ENDBRANCH  11  12
ENDBRANCH  10  11
BRANCH   6   5
ATOM      5  C   UNL     1       2.403  -2.585   3.322  0.00  0.00    +0.070 C 
BRANCH   5   4
ATOM      3  C   UNL     1       2.824  -1.505   1.174  0.00  0.00    -0.037 C 
ATOM      4  C   UNL     1       2.071  -2.313   1.878  0.00  0.00    -0.053 C 
BRANCH   3   2
ATOM      1  C   UNL     1       2.236   0.264  -0.462  0.00  0.00    +0.022 C 
ATOM      2  C   UNL     1       2.491  -1.233  -0.271  0.00  0.00    +0.002 C 
ATOM     39  C   UNL     1       3.662  -1.668  -1.154  0.00  0.00    +0.021 C 
ENDBRANCH   3   2
ENDBRANCH   5   4
ENDBRANCH   6   5
BRANCH  32  33
ATOM     33  C   UNL     1       2.686  -1.912   6.155  0.00  0.00    +0.036 C 
BRANCH  33  34
ATOM     34  C   UNL     1       3.134  -2.503   7.493  0.00  0.00    +0.055 C 
BRANCH  34  35
ATOM     35  C   UNL     1       4.422  -1.851   7.925  0.00  0.00    -0.059 C 
ATOM     36  C   UNL     1       5.506  -2.573   8.066  0.00  0.00    -0.135 C 
ATOM     37  C   UNL     1       6.770  -1.940   8.588  0.00  0.00    +0.068 C 
ATOM     38  C   UNL     1       5.489  -4.037   7.708  0.00  0.00    +0.070 C 
ENDBRANCH  34  35
ENDBRANCH  33  34
ENDBRANCH  32  33
TORSDOF 11
