REMARK  Name = ZINC95486127
REMARK  15 active torsions:
REMARK  status: ('A' for Active; 'I' for Inactive)
REMARK    1  A    between atoms: C1_1  and  O1_2
REMARK    2  A    between atoms: O1_2  and  C2_3
REMARK    3  A    between atoms: C5_6  and  C8_9
REMARK    4  A    between atoms: C12_15  and  O10_37
REMARK    5  A    between atoms: C14_17  and  O4_21
REMARK    6  A    between atoms: O4_21  and  C17_22
REMARK    7  A    between atoms: C17_22  and  C18_23
REMARK    8  A    between atoms: C18_23  and  C19_25
REMARK    9  A    between atoms: C18_23  and  O9_36
REMARK   10  A    between atoms: C19_25  and  C20_27
REMARK   11  A    between atoms: C19_25  and  O8_35
REMARK   12  A    between atoms: C20_27  and  C21_29
REMARK   13  A    between atoms: C20_27  and  O7_34
REMARK   14  A    between atoms: C21_29  and  C22_31
REMARK   15  A    between atoms: C21_29  and  O6_33
REMARK                            x       y       z     vdW  Elec       q    Type
REMARK                         _______ _______ _______ _____ _____    ______ ____
ROOT
ATOM      7  C   UNL     1      -4.981  -2.629   0.035  0.00  0.00    +0.240 C 
ATOM      8  C   UNL     1      -5.327  -3.090  -1.388  0.00  0.00    +0.036 C 
ATOM      9  C   UNL     1      -6.657  -3.818  -1.314  0.00  0.00    +0.401 C 
ATOM     10  C   UNL     1      -6.861  -4.696  -0.157  0.00  0.00    -0.318 A 
ATOM     11  C   UNL     1      -7.935  -5.600  -0.123  0.00  0.00    +0.245 A 
ATOM     14  C   UNL     1      -8.111  -6.408   0.986  0.00  0.00    -0.141 A 
ATOM     15  C   UNL     1      -7.228  -6.324   2.056  0.00  0.00    +0.217 A 
ATOM     32  C   UNL     1      -6.161  -5.436   2.026  0.00  0.00    -0.056 A 
ATOM     33  C   UNL     1      -5.965  -4.620   0.925  0.00  0.00    +0.236 A 
ATOM     34  O   UNL     1      -7.508  -3.682  -2.169  0.00  0.00    -0.431 OA
ATOM     35  O   UNL     1      -4.915  -3.765   0.897  0.00  0.00    -0.296 OA
ENDROOT
BRANCH   7   6
ATOM      3  C   UNL     1      -1.200  -0.637   0.010  0.00  0.00    +0.139 A 
ATOM      4  C   UNL     1      -2.375   0.101   0.020  0.00  0.00    -0.075 A 
ATOM      5  C   UNL     1      -3.596  -0.545   0.027  0.00  0.00    +0.071 A 
ATOM      6  C   UNL     1      -3.648  -1.927   0.026  0.00  0.00    -0.132 A 
ATOM     36  C   UNL     1      -2.479  -2.665   0.017  0.00  0.00    +0.086 A 
ATOM     37  C   UNL     1      -1.255  -2.024   0.003  0.00  0.00    -0.017 A 
BRANCH   3   2
ATOM      1  C   UNL     1      -0.017   1.425   0.010  0.00  0.00    +0.243 C 
ATOM      2  O   UNL     1       0.002  -0.004   0.002  0.00  0.00    -0.316 OA
ENDBRANCH   3   2
ENDBRANCH   7   6
BRANCH  11  12
ATOM     12  O   UNL     1      -8.793  -5.680  -1.170  0.00  0.00    -0.478 OA
ATOM     13  H   UNL     1      -8.533  -6.322  -1.844  0.00  0.00    +0.401 HD
ENDBRANCH  11  12
BRANCH  15  16
ATOM     16  O   UNL     1      -7.411  -7.118   3.141  0.00  0.00    -0.292 OA
BRANCH  16  17
ATOM     17  C   UNL     1      -8.527  -8.009   3.111  0.00  0.00    +0.183 C 
BRANCH  17  18
ATOM     18  C   UNL     1      -8.570  -8.816   4.411  0.00  0.00    +0.205 C 
BRANCH  18  19
ATOM     19  O   UNL     1      -8.818  -7.936   5.510  0.00  0.00    -0.539 OA
ATOM     20  H   UNL     1      -9.653  -7.453   5.446  0.00  0.00    +0.376 HD
ENDBRANCH  18  19
BRANCH  18  21
ATOM     21  C   UNL     1      -9.689  -9.857   4.329  0.00  0.00    +0.171 C 
BRANCH  21  22
ATOM     22  O   UNL     1      -9.441 -10.736   3.230  0.00  0.00    -0.528 OA
ATOM     23  H   UNL     1      -8.606 -11.220   3.293  0.00  0.00    +0.371 HD
ENDBRANCH  21  22
BRANCH  21  24
ATOM     24  C   UNL     1      -9.731 -10.663   5.628  0.00  0.00    +0.186 C 
BRANCH  24  25
ATOM     25  O   UNL     1      -8.444 -11.229   5.880  0.00  0.00    -0.544 OA
ATOM     26  H   UNL     1      -8.133 -11.825   5.184  0.00  0.00    +0.371 HD
ENDBRANCH  24  25
BRANCH  24  27
ATOM     27  C   UNL     1     -10.765 -11.784   5.499  0.00  0.00    +0.150 C 
BRANCH  27  28
ATOM     28  O   UNL     1     -10.468 -12.575   4.347  0.00  0.00    -0.521 OA
ATOM     29  H   UNL     1      -9.596 -12.993   4.370  0.00  0.00    +0.372 HD
ENDBRANCH  27  28
BRANCH  27  30
ATOM     30  C   UNL     1     -10.720 -12.653   6.730  0.00  0.00    +0.425 C 
ATOM     31  O   UNL     1     -10.461 -13.828   6.631  0.00  0.00    -0.441 OA
ENDBRANCH  27  30
ENDBRANCH  24  27
ENDBRANCH  21  24
ENDBRANCH  18  21
ENDBRANCH  17  18
ENDBRANCH  16  17
ENDBRANCH  15  16
TORSDOF 14
