REMARK  Name = ZINC95486219
REMARK  11 active torsions:
REMARK  status: ('A' for Active; 'I' for Inactive)
REMARK    1  A    between atoms: C1_1  and  C2_2
REMARK    2  A    between atoms: C3_4  and  N1_43
REMARK    3  A    between atoms: C4_6  and  O5_41
REMARK    4  A    between atoms: C6_9  and  O2_12
REMARK    5  A    between atoms: O2_12  and  C7_13
REMARK    6  A    between atoms: C10_17  and  C27_40
REMARK    7  A    between atoms: C19_29  and  C26_39
REMARK    8  A    between atoms: C20_30  and  O4_38
REMARK    9  A    between atoms: C23_33  and  C24_35
REMARK   10  A    between atoms: C24_35  and  C25_37
REMARK   11  A    between atoms: O5_41  and  C28_42
REMARK                            x       y       z     vdW  Elec       q    Type
REMARK                         _______ _______ _______ _____ _____    ______ ____
ROOT
ATOM     14  C   UNL     1       3.087  -1.465   2.785  0.00  0.00    +0.162 C 
ATOM     15  C   UNL     1       4.020  -2.494   2.144  0.00  0.00    -0.007 C 
ATOM     16  C   UNL     1       3.860  -3.839   2.855  0.00  0.00    +0.027 C 
ATOM     17  C   UNL     1       4.216  -3.681   4.334  0.00  0.00    -0.045 C 
ATOM     18  C   UNL     1       5.666  -3.210   4.463  0.00  0.00    +0.020 C 
ATOM     19  C   UNL     1       3.285  -2.650   4.976  0.00  0.00    +0.008 C 
ATOM     20  C   UNL     1       3.640  -2.490   6.455  0.00  0.00    +0.010 C 
ATOM     21  C   UNL     1       3.485  -3.834   7.168  0.00  0.00    +0.008 C 
ATOM     22  C   UNL     1       4.422  -4.860   6.529  0.00  0.00    -0.015 C 
ATOM     23  C   UNL     1       4.268  -6.210   7.205  0.00  0.00    +0.140 C 
ATOM     26  C   UNL     1       4.671  -6.268   8.682  0.00  0.00    +0.008 C 
ATOM     27  C   UNL     1       4.974  -7.775   8.900  0.00  0.00    +0.038 C 
ATOM     28  C   UNL     1       5.287  -8.376   7.478  0.00  0.00    -0.024 C 
ATOM     32  C   UNL     1       5.286  -7.173   6.541  0.00  0.00    -0.035 C 
ATOM     33  C   UNL     1       6.667  -6.512   6.547  0.00  0.00    +0.033 C 
ATOM     34  C   UNL     1       4.846  -7.426   5.112  0.00  0.00    +0.039 C 
ATOM     35  C   UNL     1       4.916  -6.083   4.366  0.00  0.00    +0.010 C 
ATOM     36  C   UNL     1       4.052  -5.025   5.045  0.00  0.00    +0.014 C 
ATOM     37  C   UNL     1       3.444  -1.305   4.265  0.00  0.00    +0.037 C 
ENDROOT
BRANCH  28  29
ATOM     29  C   UNL     1       6.654  -9.008   7.516  0.00  0.00    +0.361 C 
ATOM     30  C   UNL     1       7.032 -10.050   6.496  0.00  0.00    +0.056 C 
ATOM     31  O   UNL     1       7.448  -8.678   8.365  0.00  0.00    -0.454 OA
ENDBRANCH  28  29
BRANCH  23  24
ATOM     24  O   UNL     1       2.943  -6.712   7.015  0.00  0.00    -0.546 OA
ATOM     25  H   UNL     1       2.250  -6.136   7.365  0.00  0.00    +0.371 HD
ENDBRANCH  23  24
BRANCH  14  13
ATOM     13  O   UNL     1       1.734  -1.909   2.667  0.00  0.00    -0.343 OA
BRANCH  13  12
ATOM      1  C   UNL     1       0.279   2.026   0.453  0.00  0.00    +0.079 C 
ATOM      2  C   UNL     1       0.334   0.501   0.332  0.00  0.00    +0.184 C 
ATOM      3  C   UNL     1      -1.088  -0.052   0.204  0.00  0.00    +0.159 C 
ATOM      8  C   UNL     1      -1.029  -1.582   0.144  0.00  0.00    +0.169 C 
ATOM     11  C   UNL     1      -0.311  -2.103   1.393  0.00  0.00    +0.051 C 
ATOM     12  C   UNL     1       1.080  -1.470   1.475  0.00  0.00    +0.324 C 
ATOM     38  O   UNL     1       0.955  -0.047   1.496  0.00  0.00    -0.377 OA
BRANCH   3   4
ATOM      4  N   UNL     1      -1.708   0.465  -1.023  0.00  0.00    -0.628 N 
ATOM      5  H   UNL     1      -1.742   1.472  -0.984  0.00  0.00    +0.437 HD
ATOM      6  H   UNL     1      -2.645   0.100  -1.107  0.00  0.00    +0.438 HD
ATOM      7  H   UNL     1      -1.163   0.177  -1.822  0.00  0.00    +0.440 HD
ENDBRANCH   3   4
BRANCH   8   9
ATOM      9  O   UNL     1      -0.313  -1.987  -1.024  0.00  0.00    -0.392 OA
ATOM     10  C   UNL     1      -0.734  -3.244  -1.557  0.00  0.00    +0.240 C 
ENDBRANCH   8   9
ENDBRANCH  13  12
ENDBRANCH  14  13
TORSDOF 6
