REMARK  Name = ZINC13512214
REMARK  2 active torsions:
REMARK  status: ('A' for Active; 'I' for Inactive)
REMARK    1  A    between atoms: C4_4  and  O2_8
REMARK    2  A    between atoms: C5_5  and  O1_7
REMARK                            x       y       z     vdW  Elec       q    Type
REMARK                         _______ _______ _______ _____ _____    ______ ____
ROOT
ATOM      1  C   UNL     1      -0.017   1.378   0.010  0.00  0.00    +0.019 A 
ATOM      2  C   UNL     1       1.169   2.089   0.002  0.00  0.00    +0.019 A 
ATOM      3  C   UNL     1       2.379   1.420  -0.014  0.00  0.00    +0.003 A 
ATOM      4  C   UNL     1       2.405   0.035  -0.021  0.00  0.00    +0.079 A 
ATOM      7  C   UNL     1       1.211  -0.680  -0.013  0.00  0.00    +0.079 A 
ATOM     10  C   UNL     1       0.002  -0.004   0.002  0.00  0.00    +0.003 A 
ENDROOT
BRANCH   4   5
ATOM      5  O   UNL     1       3.594  -0.625  -0.037  0.00  0.00    -0.489 OA
ATOM      6  H   UNL     1       3.947  -0.820   0.842  0.00  0.00    +0.388 HD
ENDBRANCH   4   5
BRANCH   7   8
ATOM      8  O   UNL     1       1.232  -2.040  -0.021  0.00  0.00    -0.489 OA
ATOM      9  H   UNL     1       1.246  -2.438   0.860  0.00  0.00    +0.388 HD
ENDBRANCH   7   8
TORSDOF 2
