REMARK  Name = ZINC14780240
REMARK  5 active torsions:
REMARK  status: ('A' for Active; 'I' for Inactive)
REMARK    1  A    between atoms: C1_1  and  C2_2
REMARK    2  A    between atoms: C2_2  and  C18_24
REMARK    3  A    between atoms: C8_8  and  O5_22
REMARK    4  A    between atoms: C14_15  and  O4_21
REMARK    5  A    between atoms: C15_16  and  O3_20
REMARK                            x       y       z     vdW  Elec       q    Type
REMARK                         _______ _______ _______ _____ _____    ______ ____
ROOT
ATOM      1  C   UNL     1       0.846   6.060   2.245  0.00  0.00    +0.039 C 
ATOM      2  C   UNL     1       1.055   6.237   0.739  0.00  0.00    +0.144 C 
ATOM      3  C   UNL     1       1.068   7.729   0.404  0.00  0.00    +0.089 C 
ATOM      4  C   UNL     1       2.374   5.627   0.345  0.00  0.00    -0.047 C 
ATOM      5  C   UNL     1       2.437   4.342   0.002  0.00  0.00    +0.059 C 
ATOM      6  C   UNL     1       1.183   3.558   0.011  0.00  0.00    -0.175 A 
ATOM      7  C   UNL     1      -0.037   4.250   0.029  0.00  0.00    +0.219 A 
ATOM      8  C   UNL     1      -1.235   3.554   0.036  0.00  0.00    -0.051 A 
ATOM      9  C   UNL     1      -1.233   2.169   0.031  0.00  0.00    +0.243 A 
ATOM     12  C   UNL     1      -0.018   1.469   0.010  0.00  0.00    -0.289 A 
ATOM     13  C   UNL     1       0.002  -0.004   0.002  0.00  0.00    +0.440 A 
ATOM     14  O   UNL     1      -1.027  -0.656   0.004  0.00  0.00    -0.419 OA
ATOM     15  C   UNL     1       1.327  -0.652  -0.008  0.00  0.00    -0.243 A 
ATOM     16  C   UNL     1       1.443  -2.046  -0.013  0.00  0.00    +0.177 A 
ATOM     19  C   UNL     1       2.705  -2.627  -0.021  0.00  0.00    +0.048 A 
ATOM     22  C   UNL     1       3.837  -1.825  -0.025  0.00  0.00    +0.091 A 
ATOM     23  C   UNL     1       3.727  -0.449  -0.021  0.00  0.00    +0.016 A 
ATOM     24  C   UNL     1       2.476   0.155  -0.014  0.00  0.00    +0.168 A 
ATOM     25  O   UNL     1       2.378   1.501  -0.013  0.00  0.00    -0.221 OA
ATOM     26  C   UNL     1       1.204   2.162   0.002  0.00  0.00    +0.226 A 
ATOM     27  O   UNL     1      -0.018   5.607   0.038  0.00  0.00    -0.292 OA
ENDROOT
BRANCH   9  10
ATOM     10  O   UNL     1      -2.407   1.490   0.042  0.00  0.00    -0.471 OA
ATOM     11  H   UNL     1      -2.736   1.286   0.928  0.00  0.00    +0.406 HD
ENDBRANCH   9  10
BRANCH  16  17
ATOM     17  O   UNL     1       0.331  -2.826  -0.009  0.00  0.00    -0.465 OA
ATOM     18  H   UNL     1       0.005  -3.049  -0.892  0.00  0.00    +0.398 HD
ENDBRANCH  16  17
BRANCH  19  20
ATOM     20  O   UNL     1       2.831  -3.982  -0.025  0.00  0.00    -0.479 OA
ATOM     21  H   UNL     1       2.862  -4.371  -0.909  0.00  0.00    +0.390 HD
ENDBRANCH  19  20
TORSDOF 3
