REMARK  Name = ZINC95485912
REMARK  18 active torsions:
REMARK  status: ('A' for Active; 'I' for Inactive)
REMARK    1  A    between atoms: C1_1  and  C2_2
REMARK    2  A    between atoms: C3_4  and  O16_54
REMARK    3  A    between atoms: C4_6  and  O15_53
REMARK    4  A    between atoms: C5_8  and  O14_52
REMARK    5  A    between atoms: C6_10  and  O2_13
REMARK    6  A    between atoms: O2_13  and  C7_14
REMARK    7  A    between atoms: C8_16  and  O13_51
REMARK    8  A    between atoms: C9_18  and  C28_49
REMARK    9  A    between atoms: C10_21  and  O5_26
REMARK   10  A    between atoms: C11_23  and  O4_25
REMARK   11  A    between atoms: O5_26  and  C12_27
REMARK   12  A    between atoms: C15_31  and  O11_48
REMARK   13  A    between atoms: C17_33  and  O10_47
REMARK   14  A    between atoms: C20_37  and  C21_38
REMARK   15  A    between atoms: C24_41  and  O9_46
REMARK   16  A    between atoms: C25_42  and  O8_44
REMARK   17  A    between atoms: O8_44  and  C27_45
REMARK   18  A    between atoms: C28_49  and  O12_50
REMARK                            x       y       z     vdW  Elec       q    Type
REMARK                         _______ _______ _______ _____ _____    ______ ____
ROOT
ATOM     14  C   UNL     1       2.079  -0.353   4.005  0.00  0.00    +0.211 C 
ATOM     15  C   UNL     1       2.365  -1.295   5.179  0.00  0.00    +0.176 C 
ATOM     18  C   UNL     1       1.833  -0.664   6.469  0.00  0.00    +0.150 C 
ATOM     22  O   UNL     1       2.443   0.614   6.659  0.00  0.00    -0.369 OA
ATOM     23  C   UNL     1       2.172   1.551   5.615  0.00  0.00    +0.297 C 
ATOM     50  C   UNL     1       2.715   1.011   4.290  0.00  0.00    +0.157 C 
ENDROOT
BRANCH  15  16
ATOM     16  O   UNL     1       1.714  -2.547   4.955  0.00  0.00    -0.543 OA
ATOM     17  H   UNL     1       1.853  -3.194   5.661  0.00  0.00    +0.379 HD
ENDBRANCH  15  16
BRANCH  50  51
ATOM     51  O   UNL     1       4.134   0.867   4.380  0.00  0.00    -0.533 OA
ATOM     52  H   UNL     1       4.602   1.694   4.560  0.00  0.00    +0.385 HD
ENDBRANCH  50  51
BRANCH  14  13
ATOM     13  O   UNL     1       2.636  -0.899   2.808  0.00  0.00    -0.329 OA
BRANCH  13  12
ATOM      1  C   UNL     1      -0.341   0.724   0.414  0.00  0.00    +0.024 C 
ATOM      2  C   UNL     1      -0.193  -0.795   0.525  0.00  0.00    +0.188 C 
ATOM      3  C   UNL     1       0.472  -1.337  -0.743  0.00  0.00    +0.164 C 
ATOM      6  C   UNL     1       1.878  -0.741  -0.867  0.00  0.00    +0.198 C 
ATOM      9  C   UNL     1       2.676  -1.075   0.397  0.00  0.00    +0.148 C 
ATOM     12  C   UNL     1       1.926  -0.543   1.620  0.00  0.00    +0.287 C 
ATOM     53  O   UNL     1       0.616  -1.113   1.659  0.00  0.00    -0.383 OA
BRANCH   3   4
ATOM      4  O   UNL     1      -0.305  -0.971  -1.884  0.00  0.00    -0.543 OA
ATOM      5  H   UNL     1      -1.210  -1.312  -1.869  0.00  0.00    +0.383 HD
ENDBRANCH   3   4
BRANCH   6   7
ATOM      7  O   UNL     1       2.533  -1.296  -2.009  0.00  0.00    -0.545 OA
ATOM      8  H   UNL     1       3.430  -0.962  -2.149  0.00  0.00    +0.388 HD
ENDBRANCH   6   7
BRANCH   9  10
ATOM     10  O   UNL     1       3.966  -0.463   0.323  0.00  0.00    -0.554 OA
ATOM     11  H   UNL     1       4.526  -0.634   1.092  0.00  0.00    +0.397 HD
ENDBRANCH   9  10
ENDBRANCH  13  12
ENDBRANCH  14  13
BRANCH  18  19
ATOM     19  C   UNL     1       2.168  -1.571   7.655  0.00  0.00    +0.213 C 
BRANCH  19  20
ATOM     20  O   UNL     1       1.572  -1.042   8.842  0.00  0.00    -0.562 OA
ATOM     21  H   UNL     1       1.743  -1.568   9.635  0.00  0.00    +0.383 HD
ENDBRANCH  19  20
ENDBRANCH  18  19
BRANCH  23  24
ATOM     24  O   UNL     1       2.804   2.797   5.917  0.00  0.00    -0.268 OA
BRANCH  24  25
ATOM     25  C   UNL     1       2.288   3.517   6.950  0.00  0.00    -0.085 A 
ATOM     26  C   UNL     1       0.981   4.064   6.859  0.00  0.00    +0.412 A 
ATOM     27  C   UNL     1       0.486   4.832   8.013  0.00  0.00    -0.261 A 
ATOM     28  C   UNL     1      -0.792   5.406   8.009  0.00  0.00    +0.222 A 
ATOM     31  C   UNL     1      -1.221   6.120   9.112  0.00  0.00    -0.051 A 
ATOM     32  C   UNL     1      -0.388   6.265  10.217  0.00  0.00    +0.197 A 
ATOM     35  C   UNL     1       0.877   5.700  10.228  0.00  0.00    -0.025 A 
ATOM     36  C   UNL     1       1.325   4.980   9.131  0.00  0.00    +0.180 A 
ATOM     37  O   UNL     1       2.555   4.423   9.126  0.00  0.00    -0.203 OA
ATOM     38  O   UNL     1       0.295   3.903   5.862  0.00  0.00    -0.445 OA
ATOM     39  C   UNL     1       3.019   3.715   8.083  0.00  0.00    +0.204 A 
BRANCH  39  40
ATOM     40  C   UNL     1       4.372   3.135   8.165  0.00  0.00    -0.032 A 
ATOM     41  C   UNL     1       5.270   3.299   7.106  0.00  0.00    +0.060 A 
ATOM     42  C   UNL     1       6.534   2.756   7.184  0.00  0.00    +0.037 A 
ATOM     43  C   UNL     1       6.920   2.046   8.313  0.00  0.00    +0.106 A 
ATOM     46  C   UNL     1       6.030   1.878   9.372  0.00  0.00    +0.099 A 
ATOM     49  C   UNL     1       4.762   2.424   9.303  0.00  0.00    -0.009 A 
BRANCH  43  44
ATOM     44  O   UNL     1       8.167   1.513   8.385  0.00  0.00    -0.484 OA
ATOM     45  H   UNL     1       8.826   2.104   8.774  0.00  0.00    +0.392 HD
ENDBRANCH  43  44
BRANCH  46  47
ATOM     47  O   UNL     1       6.411   1.182  10.476  0.00  0.00    -0.304 OA
ATOM     48  C   UNL     1       5.448   1.049  11.524  0.00  0.00    +0.241 C 
ENDBRANCH  46  47
ENDBRANCH  39  40
BRANCH  28  29
ATOM     29  O   UNL     1      -1.602   5.263   6.930  0.00  0.00    -0.471 OA
ATOM     30  H   UNL     1      -2.171   4.482   6.965  0.00  0.00    +0.403 HD
ENDBRANCH  28  29
BRANCH  32  33
ATOM     33  O   UNL     1      -0.820   6.968  11.295  0.00  0.00    -0.486 OA
ATOM     34  H   UNL     1      -1.278   6.433  11.957  0.00  0.00    +0.405 HD
ENDBRANCH  32  33
ENDBRANCH  24  25
ENDBRANCH  23  24
TORSDOF 16
