REMARK  Name = ZINC14680293
REMARK  2 active torsions:
REMARK  status: ('A' for Active; 'I' for Inactive)
REMARK    1  A    between atoms: C1_1  and  C2_2
REMARK    2  A    between atoms: C3_4  and  C4_7
REMARK                            x       y       z     vdW  Elec       q    Type
REMARK                         _______ _______ _______ _____ _____    ______ ____
ROOT
ATOM      4  C   UNL     1       1.106   3.186   0.008  0.00  0.00    +0.165 A 
ATOM      5  C   UNL     1       1.149   1.794   0.001  0.00  0.00    -0.015 A 
ATOM      6  C   UNL     1      -0.013   1.076   0.008  0.00  0.00    +0.088 A 
ATOM      7  C   UNL     1      -1.230   1.783   0.017  0.00  0.00    -0.100 A 
ATOM      8  C   UNL     1      -2.464   1.113   0.031  0.00  0.00    +0.035 A 
ATOM      9  C   UNL     1      -3.620   1.833   0.046  0.00  0.00    +0.017 A 
ATOM     10  C   UNL     1      -3.594   3.226   0.053  0.00  0.00    +0.033 A 
ATOM     11  C   UNL     1      -2.416   3.907   0.045  0.00  0.00    +0.047 A 
ATOM     12  C   UNL     1      -1.202   3.199   0.030  0.00  0.00    +0.128 A 
ATOM     13  N   UNL     1      -0.029   3.841   0.022  0.00  0.00    -0.456 NA
ENDROOT
BRANCH   4   3
ATOM      1  C   UNL     1       3.409   6.243  -0.797  0.00  0.00    +0.080 C 
ATOM      2  C   UNL     1       2.616   4.975  -1.124  0.00  0.00    +0.139 C 
ATOM      3  C   UNL     1       2.400   3.960   0.000  0.00  0.00    +0.180 C 
ATOM     14  O   UNL     1       3.310   3.725  -1.076  0.00  0.00    -0.341 OA
ENDBRANCH   4   3
TORSDOF 1
