REMARK  Name = ZINC95485914
REMARK  6 active torsions:
REMARK  status: ('A' for Active; 'I' for Inactive)
REMARK    1  A    between atoms: C1_1  and  C2_2
REMARK    2  A    between atoms: C2_2  and  C18_23
REMARK    3  A    between atoms: C8_8  and  O4_21
REMARK    4  A    between atoms: C13_14  and  O3_20
REMARK    5  A    between atoms: C18_23  and  C19_24
REMARK    6  A    between atoms: C19_24  and  C20_25
REMARK                            x       y       z     vdW  Elec       q    Type
REMARK                         _______ _______ _______ _____ _____    ______ ____
ROOT
ATOM      1  C   UNL     1      -0.019   1.526   0.010  0.00  0.00    +0.038 C 
ATOM      2  C   UNL     1       0.002  -0.004   0.002  0.00  0.00    +0.148 C 
ATOM      7  C   UNL     1       0.683  -0.484  -1.252  0.00  0.00    -0.030 C 
ATOM      8  C   UNL     1       2.001  -0.680  -1.264  0.00  0.00    +0.052 C 
ATOM      9  C   UNL     1       2.756  -0.448  -0.019  0.00  0.00    -0.047 A 
ATOM     10  C   UNL     1       2.044  -0.331   1.181  0.00  0.00    +0.121 A 
ATOM     11  C   UNL     1       2.724  -0.096   2.364  0.00  0.00    +0.050 A 
ATOM     12  C   UNL     1       4.104   0.006   2.376  0.00  0.00    +0.121 A 
ATOM     15  C   UNL     1       4.838  -0.135   1.196  0.00  0.00    +0.105 A 
ATOM     16  O   UNL     1       6.183  -0.036   1.224  0.00  0.00    -0.214 OA
ATOM     17  C   UNL     1       6.952  -0.463   0.203  0.00  0.00    +0.175 A 
ATOM     18  C   UNL     1       8.317  -0.649   0.389  0.00  0.00    -0.009 A 
ATOM     19  C   UNL     1       9.112  -1.068  -0.658  0.00  0.00    +0.113 A 
ATOM     20  C   UNL     1       8.569  -1.309  -1.909  0.00  0.00    -0.037 A 
ATOM     21  C   UNL     1       7.211  -1.135  -2.122  0.00  0.00    +0.203 A 
ATOM     24  C   UNL     1       6.398  -0.717  -1.063  0.00  0.00    -0.262 A 
ATOM     25  C   UNL     1       4.945  -0.535  -1.243  0.00  0.00    +0.445 A 
ATOM     26  O   UNL     1       4.428  -0.522  -2.346  0.00  0.00    -0.428 OA
ATOM     27  C   UNL     1       4.156  -0.370  -0.007  0.00  0.00    -0.171 A 
ATOM     28  O   UNL     1       0.693  -0.472   1.160  0.00  0.00    -0.294 OA
ENDROOT
BRANCH  12  13
ATOM     13  O   UNL     1       4.752   0.245   3.547  0.00  0.00    -0.476 OA
ATOM     14  H   UNL     1       5.002  -0.555   4.029  0.00  0.00    +0.396 HD
ENDBRANCH  12  13
BRANCH  21  22
ATOM     22  O   UNL     1       6.675  -1.367  -3.346  0.00  0.00    -0.480 OA
ATOM     23  H   UNL     1       6.663  -0.592  -3.924  0.00  0.00    +0.403 HD
ENDBRANCH  21  22
BRANCH   2   3
ATOM      3  C   UNL     1      -1.435  -0.528   0.027  0.00  0.00    +0.069 C 
BRANCH   3   4
ATOM      4  C   UNL     1      -2.175   0.069   1.226  0.00  0.00    +0.056 C 
BRANCH   4   5
ATOM      5  C   UNL     1      -3.591  -0.448   1.250  0.00  0.00    -0.050 C 
ATOM      6  C   UNL     1      -4.053  -1.042   2.322  0.00  0.00    +0.003 C 
ENDBRANCH   4   5
ENDBRANCH   3   4
ENDBRANCH   2   3
TORSDOF 5
