REMARK  Name = ZINC95486111
REMARK  13 active torsions:
REMARK  status: ('A' for Active; 'I' for Inactive)
REMARK    1  A    between atoms: C1_1  and  C2_2
REMARK    2  A    between atoms: C6_7  and  C29_36
REMARK    3  A    between atoms: C6_7  and  O4_37
REMARK    4  A    between atoms: C9_10  and  O3_35
REMARK    5  A    between atoms: C10_12  and  C28_34
REMARK    6  A    between atoms: C14_17  and  C27_33
REMARK    7  A    between atoms: C18_21  and  C26_30
REMARK    8  A    between atoms: C21_25  and  C24_28
REMARK    9  A    between atoms: C21_25  and  C25_29
REMARK   10  A    between atoms: O4_37  and  C30_38
REMARK   11  A    between atoms: C30_38  and  O6_40
REMARK   12  A    between atoms: O6_40  and  C31_41
REMARK   13  A    between atoms: C34_44  and  O7_47
REMARK                            x       y       z     vdW  Elec       q    Type
REMARK                         _______ _______ _______ _____ _____    ______ ____
ROOT
ATOM      1  C   UNL     1       1.155   0.533   0.787  0.00  0.00    +0.032 C 
ATOM      2  C   UNL     1       1.052  -0.993   0.960  0.00  0.00    +0.002 C 
ATOM      3  C   UNL     1       1.210  -1.671  -0.401  0.00  0.00    +0.017 C 
ATOM      4  C   UNL     1       2.667  -1.569  -0.874  0.00  0.00    +0.020 C 
ATOM      5  C   UNL     1       3.573  -2.252   0.147  0.00  0.00    +0.031 C 
ATOM      6  C   UNL     1       4.979  -2.467  -0.376  0.00  0.00    +0.151 C 
ATOM     19  C   UNL     1       4.932  -3.374  -1.621  0.00  0.00    +0.034 C 
ATOM     20  C   UNL     1       5.825  -3.180   0.683  0.00  0.00    +0.022 C 
ATOM     21  C   UNL     1       5.827  -2.365   1.969  0.00  0.00    -0.015 C 
ATOM     22  C   UNL     1       4.402  -2.213   2.509  0.00  0.00    +0.170 C 
ATOM     25  C   UNL     1       3.513  -1.498   1.481  0.00  0.00    -0.028 C 
ATOM     26  C   UNL     1       4.020  -0.066   1.354  0.00  0.00    +0.044 C 
ATOM     27  C   UNL     1      -0.362  -1.252   1.476  0.00  0.00    -0.113 C 
ATOM     28  C   UNL     1      -1.344  -0.908   0.683  0.00  0.00    -0.016 C 
ATOM     29  C   UNL     1      -2.780  -1.001   1.129  0.00  0.00    +0.048 C 
ATOM     30  C   UNL     1      -2.788  -0.666   2.628  0.00  0.00    -0.112 C 
ATOM     34  C   UNL     1      -2.002  -1.757   3.345  0.00  0.00    +0.020 C 
ATOM     35  C   UNL     1      -2.715  -3.096   3.253  0.00  0.00    +0.016 C 
ATOM     36  C   UNL     1      -4.181  -3.031   3.687  0.00  0.00    -0.065 C 
ATOM     37  C   UNL     1      -4.269  -2.803   5.196  0.00  0.00    +0.017 C 
ATOM     38  C   UNL     1      -4.845  -4.378   3.358  0.00  0.00    +0.006 C 
ATOM     39  C   UNL     1      -4.927  -1.932   2.938  0.00  0.00    +0.002 C 
ATOM     40  C   UNL     1      -4.227  -0.591   3.135  0.00  0.00    +0.013 C 
ATOM     41  C   UNL     1      -0.563  -1.851   2.829  0.00  0.00    +0.013 C 
ATOM     42  C   UNL     1      -0.226  -3.345   2.759  0.00  0.00    +0.004 C 
ATOM     43  C   UNL     1       0.383  -1.207   3.836  0.00  0.00    +0.010 C 
ATOM     44  C   UNL     1       1.822  -1.072   3.353  0.00  0.00    +0.024 C 
ATOM     45  C   UNL     1       2.055  -1.565   1.945  0.00  0.00    +0.002 C 
ENDROOT
BRANCH  30  31
ATOM     31  C   UNL     1      -2.148   0.682   2.853  0.00  0.00    +0.514 C 
ATOM     32  O   UNL     1      -1.909   1.062   3.986  0.00  0.00    -0.703 OA
ATOM     33  O   UNL     1      -1.870   1.392   1.901  0.00  0.00    -0.687 OA
ENDBRANCH  30  31
BRANCH  22  23
ATOM     23  O   UNL     1       4.486  -1.407   3.695  0.00  0.00    -0.551 OA
ATOM     24  H   UNL     1       5.039  -1.788   4.391  0.00  0.00    +0.367 HD
ENDBRANCH  22  23
BRANCH   6   7
ATOM      7  O   UNL     1       5.600  -1.234  -0.743  0.00  0.00    -0.293 OA
BRANCH   7   8
ATOM      8  C   UNL     1       6.855  -1.301  -1.223  0.00  0.00    +0.599 C 
ATOM     18  O   UNL     1       7.408  -2.377  -1.328  0.00  0.00    -0.528 OA
BRANCH   8   9
ATOM      9  O   UNL     1       7.497  -0.176  -1.587  0.00  0.00    -0.267 OA
BRANCH   9  10
ATOM     10  C   UNL     1       8.724  -0.298  -2.161  0.00  0.00    +0.088 A 
ATOM     11  C   UNL     1       8.832  -0.683  -3.490  0.00  0.00    +0.038 A 
ATOM     12  C   UNL     1      10.078  -0.806  -4.073  0.00  0.00    +0.008 A 
ATOM     13  C   UNL     1      11.220  -0.546  -3.331  0.00  0.00    +0.114 A 
ATOM     16  C   UNL     1      11.112  -0.162  -2.003  0.00  0.00    +0.009 A 
ATOM     17  C   UNL     1       9.866  -0.033  -1.421  0.00  0.00    +0.047 A 
BRANCH  13  14
ATOM     14  O   UNL     1      12.447  -0.668  -3.906  0.00  0.00    -0.497 OA
ATOM     15  H   UNL     1      12.770   0.143  -4.320  0.00  0.00    +0.394 HD
ENDBRANCH  13  14
ENDBRANCH   9  10
ENDBRANCH   8   9
ENDBRANCH   7   8
ENDBRANCH   6   7
TORSDOF 7
