REMARK  Name = ZINC14686464
REMARK  9 active torsions:
REMARK  status: ('A' for Active; 'I' for Inactive)
REMARK    1  A    between atoms: C1_1  and  N1_2
REMARK    2  A    between atoms: C14_16  and  O2_17
REMARK    3  A    between atoms: C15_19  and  C17_22
REMARK    4  A    between atoms: C17_22  and  C18_23
REMARK    5  A    between atoms: C17_22  and  C19_25
REMARK    6  A    between atoms: C17_22  and  O7_29
REMARK    7  A    between atoms: C18_23  and  O4_24
REMARK    8  A    between atoms: C19_25  and  O6_27
REMARK    9  A    between atoms: O6_27  and  C20_28
REMARK                            x       y       z     vdW  Elec       q    Type
REMARK                         _______ _______ _______ _____ _____    ______ ____
ROOT
ATOM      1  C   UNL     1      -0.134   4.152   0.030  0.00  0.00    +0.308 C 
ATOM      2  N   UNL     1       1.160   3.466   0.010  0.00  0.00    -0.519 N 
ATOM      3  C   UNL     1       1.181   2.088   0.046  0.00  0.00    +0.216 A 
ATOM      4  C   UNL     1      -0.015   1.374   0.097  0.00  0.00    -0.051 A 
ATOM      5  C   UNL     1       0.005  -0.003   0.134  0.00  0.00    +0.085 A 
ATOM      6  C   UNL     1       1.208  -0.695   0.120  0.00  0.00    -0.032 A 
ATOM      7  C   UNL     1       2.401  -0.010   0.070  0.00  0.00    +0.118 A 
ATOM      8  C   UNL     1       2.397   1.386   0.033  0.00  0.00    -0.207 A 
ATOM      9  C   UNL     1       3.663   2.141  -0.022  0.00  0.00    +0.440 A 
ATOM     10  C   UNL     1       3.577   3.607  -0.064  0.00  0.00    -0.271 A 
ATOM     11  C   UNL     1       4.737   4.394  -0.123  0.00  0.00    +0.248 A 
ATOM     14  C   UNL     1       4.634   5.769  -0.158  0.00  0.00    -0.065 A 
ATOM     15  C   UNL     1       3.381   6.388  -0.136  0.00  0.00    +0.205 A 
ATOM     16  O   UNL     1       3.072   7.713  -0.153  0.00  0.00    -0.274 OA
ATOM     17  C   UNL     1       1.703   7.877  -0.560  0.00  0.00    +0.197 C 
ATOM     28  C   UNL     1       1.049   6.553  -0.098  0.00  0.00    +0.089 C 
ATOM     29  C   UNL     1       2.234   5.607  -0.086  0.00  0.00    -0.262 A 
ATOM     30  O   UNL     1       4.739   1.571  -0.034  0.00  0.00    -0.454 OA
ATOM     31  C   UNL     1       2.312   4.224  -0.046  0.00  0.00    +0.296 A 
ENDROOT
BRANCH  11  12
ATOM     12  O   UNL     1       5.958   3.804  -0.144  0.00  0.00    -0.471 OA
ATOM     13  H   UNL     1       6.285   3.607  -1.033  0.00  0.00    +0.404 HD
ENDBRANCH  11  12
BRANCH  17  18
ATOM     18  C   UNL     1       1.066   9.073   0.149  0.00  0.00    +0.160 C 
BRANCH  18  19
ATOM     19  O   UNL     1       1.135   8.881   1.563  0.00  0.00    -0.519 OA
ATOM     20  H   UNL     1       0.678   8.088   1.875  0.00  0.00    +0.389 HD
ENDBRANCH  18  19
BRANCH  18  21
ATOM     21  C   UNL     1      -0.376   9.196  -0.271  0.00  0.00    +0.445 C 
ATOM     24  O   UNL     1      -0.736   8.749  -1.334  0.00  0.00    -0.480 OA
BRANCH  21  22
ATOM     22  O   UNL     1      -1.261   9.803   0.536  0.00  0.00    -0.345 OA
ATOM     23  C   UNL     1      -2.633   9.885   0.067  0.00  0.00    +0.272 C 
ENDBRANCH  21  22
ENDBRANCH  18  21
BRANCH  18  25
ATOM     25  C   UNL     1       1.818  10.351  -0.230  0.00  0.00    +0.247 C 
BRANCH  25  26
ATOM     26  O   UNL     1       1.748  10.542  -1.645  0.00  0.00    -0.564 OA
ATOM     27  H   UNL     1       2.205  11.336  -1.957  0.00  0.00    +0.397 HD
ENDBRANCH  25  26
ENDBRANCH  18  25
ENDBRANCH  17  18
TORSDOF 7
