REMARK  Name = ZINC14614051
REMARK  11 active torsions:
REMARK  status: ('A' for Active; 'I' for Inactive)
REMARK    1  A    between atoms: C1_1  and  C2_2
REMARK    2  A    between atoms: C2_2  and  C26_32
REMARK    3  A    between atoms: C3_3  and  C4_4
REMARK    4  A    between atoms: C4_4  and  C5_5
REMARK    5  A    between atoms: C5_5  and  C6_6
REMARK    6  A    between atoms: C6_6  and  C25_31
REMARK    7  A    between atoms: C16_17  and  C18_20
REMARK    8  A    between atoms: C21_23  and  O4_28
REMARK    9  A    between atoms: C22_24  and  O3_27
REMARK   10  A    between atoms: C23_25  and  O2_26
REMARK   11  A    between atoms: O4_28  and  C24_29
REMARK                            x       y       z     vdW  Elec       q    Type
REMARK                         _______ _______ _______ _____ _____    ______ ____
ROOT
ATOM      7  C   UNL     1      -0.271   8.214  -1.869  0.00  0.00    +0.154 C 
ATOM      8  C   UNL     1       0.070   9.613  -2.386  0.00  0.00    +0.080 C 
ATOM      9  C   UNL     1       1.002   7.436  -1.666  0.00  0.00    -0.067 C 
ATOM     10  C   UNL     1       0.998   6.109  -1.779  0.00  0.00    +0.060 C 
ATOM     11  C   UNL     1      -0.278   5.446  -2.119  0.00  0.00    -0.166 A 
ATOM     12  C   UNL     1      -1.317   6.225  -2.642  0.00  0.00    +0.169 A 
ATOM     13  C   UNL     1      -2.521   5.630  -2.968  0.00  0.00    -0.040 A 
ATOM     14  C   UNL     1      -2.690   4.271  -2.778  0.00  0.00    +0.086 A 
ATOM     15  C   UNL     1      -1.665   3.491  -2.262  0.00  0.00    -0.191 A 
ATOM     16  C   UNL     1      -1.902   2.013  -2.080  0.00  0.00    +0.098 C 
ATOM     17  C   UNL     1      -0.857   1.437  -1.122  0.00  0.00    +0.024 C 
ATOM     30  C   UNL     1       0.527   1.926  -1.569  0.00  0.00    +0.252 C 
ATOM     31  O   UNL     1       0.572   3.345  -1.417  0.00  0.00    -0.305 OA
ATOM     32  C   UNL     1      -0.454   4.072  -1.928  0.00  0.00    +0.180 A 
ATOM     33  O   UNL     1      -1.116   7.557  -2.815  0.00  0.00    -0.299 OA
ENDROOT
BRANCH  17  18
ATOM     18  C   UNL     1      -0.903  -0.069  -1.167  0.00  0.00    -0.128 A 
ATOM     19  C   UNL     1      -0.693  -0.731  -2.362  0.00  0.00    +0.068 A 
ATOM     20  C   UNL     1      -0.728  -2.112  -2.407  0.00  0.00    -0.062 A 
ATOM     21  C   UNL     1      -0.986  -2.839  -1.254  0.00  0.00    +0.120 A 
ATOM     24  C   UNL     1      -1.203  -2.177  -0.052  0.00  0.00    +0.050 A 
ATOM     27  C   UNL     1      -1.161  -0.788  -0.010  0.00  0.00    +0.130 A 
BRANCH  21  22
ATOM     22  O   UNL     1      -1.026  -4.197  -1.301  0.00  0.00    -0.305 OA
ATOM     23  C   UNL     1      -0.794  -4.810  -2.570  0.00  0.00    +0.244 C 
ENDBRANCH  21  22
BRANCH  24  25
ATOM     25  O   UNL     1      -1.457  -2.886   1.081  0.00  0.00    -0.473 OA
ATOM     26  H   UNL     1      -2.396  -3.060   1.235  0.00  0.00    +0.384 HD
ENDBRANCH  24  25
BRANCH  27  28
ATOM     28  O   UNL     1      -1.373  -0.136   1.165  0.00  0.00    -0.479 OA
ATOM     29  H   UNL     1      -2.300   0.085   1.331  0.00  0.00    +0.391 HD
ENDBRANCH  27  28
ENDBRANCH  17  18
BRANCH   7   6
ATOM      6  C   UNL     1      -1.007   8.335  -0.533  0.00  0.00    +0.014 C 
BRANCH   6   5
ATOM      5  C   UNL     1      -2.302   9.125  -0.735  0.00  0.00    +0.061 C 
BRANCH   5   4
ATOM      1  C   UNL     1      -2.777  11.666   0.394  0.00  0.00    +0.072 C 
ATOM      2  C   UNL     1      -3.301  10.427   1.073  0.00  0.00    -0.133 C 
ATOM      3  C   UNL     1      -4.140  10.549   2.319  0.00  0.00    +0.071 C 
ATOM      4  C   UNL     1      -3.027   9.244   0.581  0.00  0.00    -0.060 C 
ENDBRANCH   5   4
ENDBRANCH   6   5
ENDBRANCH   7   6
TORSDOF 7
