REMARK  Name = ZINC95485940
REMARK  5 active torsions:
REMARK  status: ('A' for Active; 'I' for Inactive)
REMARK    1  A    between atoms: C1_1  and  C2_2
REMARK    2  A    between atoms: C4_4  and  O8_36
REMARK    3  A    between atoms: C14_24  and  C15_26
REMARK    4  A    between atoms: C20_33  and  C21_34
REMARK    5  A    between atoms: C20_33  and  O7_35
REMARK                            x       y       z     vdW  Elec       q    Type
REMARK                         _______ _______ _______ _____ _____    ______ ____
ROOT
ATOM      1  C   UNL     1       0.598   1.439   0.308  0.00  0.00    +0.060 C 
ATOM      2  C   UNL     1       0.669  -0.086   0.206  0.00  0.00    -0.062 C 
ATOM      3  C   UNL     1      -0.561  -0.642   0.913  0.00  0.00    +0.024 C 
ATOM      4  C   UNL     1      -0.544  -0.215   2.390  0.00  0.00    +0.221 C 
ATOM      7  C   UNL     1       0.711  -0.751   3.056  0.00  0.00    +0.038 C 
ATOM      8  C   UNL     1       0.782  -0.576   4.536  0.00  0.00    -0.001 C 
ATOM      9  C   UNL     1       1.934   0.404   4.895  0.00  0.00    -0.036 C 
ATOM     10  C   UNL     1       1.609   0.661   6.370  0.00  0.00    +0.227 C 
ATOM     11  O   UNL     1       0.164   0.764   6.394  0.00  0.00    -0.397 OA
ATOM     12  C   UNL     1       3.250  -0.295   4.591  0.00  0.00    +0.069 C 
ATOM     13  C   UNL     1       3.179  -0.601   3.090  0.00  0.00    +0.366 C 
ATOM     14  O   UNL     1       4.056  -1.194   2.509  0.00  0.00    -0.424 OA
ATOM     15  C   UNL     1      -0.389   0.064   5.267  0.00  0.00    +0.300 C 
ATOM     18  C   UNL     1      -1.356  -1.016   5.757  0.00  0.00    +0.046 C 
ATOM     19  C   UNL     1       1.957  -0.129   2.404  0.00  0.00    +0.016 C 
ATOM     20  C   UNL     1       0.705  -0.436  -1.263  0.00  0.00    +0.332 C 
ATOM     26  O   UNL     1       1.927   0.049  -1.870  0.00  0.00    -0.338 OA
ATOM     27  C   UNL     1       3.097  -0.366  -1.371  0.00  0.00    +0.496 C 
ATOM     28  O   UNL     1       4.043  -0.546  -2.101  0.00  0.00    -0.429 OA
ATOM     29  C   UNL     1       3.222  -0.609   0.122  0.00  0.00    +0.128 C 
ATOM     30  O   UNL     1       2.533  -1.780   0.598  0.00  0.00    -0.290 OA
ATOM     31  C   UNL     1       1.937  -0.528   0.933  0.00  0.00    +0.056 C 
ENDROOT
BRANCH  20  21
ATOM     21  C   UNL     1       0.568  -1.929  -1.414  0.00  0.00    -0.227 A 
ATOM     22  C   UNL     1      -0.638  -2.667  -1.430  0.00  0.00    -0.040 A 
ATOM     23  C   UNL     1      -0.302  -3.960  -1.585  0.00  0.00    +0.169 A 
ATOM     24  O   UNL     1       1.036  -4.044  -1.664  0.00  0.00    -0.168 OA
ATOM     25  C   UNL     1       1.569  -2.815  -1.566  0.00  0.00    +0.197 A 
ENDBRANCH  20  21
BRANCH   4   5
ATOM      5  O   UNL     1      -1.697  -0.741   3.051  0.00  0.00    -0.544 OA
ATOM      6  H   UNL     1      -2.536  -0.441   2.677  0.00  0.00    +0.375 HD
ENDBRANCH   4   5
BRANCH  15  16
ATOM     16  O   UNL     1      -1.068   0.977   4.403  0.00  0.00    -0.538 OA
ATOM     17  H   UNL     1      -1.825   1.417   4.812  0.00  0.00    +0.375 HD
ENDBRANCH  15  16
TORSDOF 3
