REMARK  Name = ZINC95486160
REMARK  24 active torsions:
REMARK  status: ('A' for Active; 'I' for Inactive)
REMARK    1  A    between atoms: C1_1  and  C2_2
REMARK    2  A    between atoms: C2_2  and  C41_48
REMARK    3  A    between atoms: C3_3  and  C4_4
REMARK    4  A    between atoms: C4_4  and  C5_5
REMARK    5  A    between atoms: C5_5  and  C6_6
REMARK    6  A    between atoms: C7_7  and  C8_8
REMARK    7  A    between atoms: C8_8  and  C9_9
REMARK    8  A    between atoms: C11_12  and  C32_39
REMARK    9  A    between atoms: C13_14  and  C25_28
REMARK   10  A    between atoms: C15_17  and  C20_23
REMARK   11  A    between atoms: C17_20  and  C18_21
REMARK   12  A    between atoms: C17_20  and  C19_22
REMARK   13  A    between atoms: C20_23  and  C21_24
REMARK   14  A    between atoms: C22_25  and  C23_26
REMARK   15  A    between atoms: C22_25  and  C24_27
REMARK   16  A    between atoms: C25_28  and  C26_30
REMARK   17  A    between atoms: C29_33  and  O5_37
REMARK   18  A    between atoms: C30_34  and  O4_36
REMARK   19  A    between atoms: C32_39  and  C33_40
REMARK   20  A    between atoms: C34_41  and  C35_42
REMARK   21  A    between atoms: C35_42  and  C36_43
REMARK   22  A    between atoms: C36_43  and  C37_44
REMARK   23  A    between atoms: C38_45  and  C39_46
REMARK   24  A    between atoms: C38_45  and  C40_47
REMARK                            x       y       z     vdW  Elec       q    Type
REMARK                         _______ _______ _______ _____ _____    ______ ____
ROOT
ATOM     10  C   UNL     1      -0.015   2.018   5.487  0.00  0.00    -0.001 C 
ATOM     11  C   UNL     1      -0.396   2.848   4.276  0.00  0.00    +0.085 C 
ATOM     12  C   UNL     1      -1.006   4.203   4.599  0.00  0.00    -0.131 C 
ATOM     22  C   UNL     1      -2.394   4.055   5.184  0.00  0.00    +0.396 C 
ATOM     23  O   UNL     1      -3.360   4.309   4.483  0.00  0.00    -0.414 OA
ATOM     24  C   UNL     1      -2.605   3.606   6.600  0.00  0.00    -0.081 C 
ATOM     37  C   UNL     1      -1.400   3.772   7.480  0.00  0.00    +0.394 C 
ATOM     38  C   UNL     1      -0.021   4.080   6.951  0.00  0.00    -0.119 C 
ATOM     44  O   UNL     1      -1.550   3.667   8.693  0.00  0.00    -0.409 OA
ATOM     45  C   UNL     1      -0.167   4.883   5.670  0.00  0.00    +0.382 C 
ATOM     46  O   UNL     1       0.335   5.969   5.515  0.00  0.00    -0.389 OA
ATOM     47  C   UNL     1       0.711   2.787   6.581  0.00  0.00    -0.035 C 
ATOM     48  C   UNL     1       0.829   1.895   7.825  0.00  0.00    +0.046 C 
ATOM     49  C   UNL     1       2.128   3.131   6.102  0.00  0.00    +0.048 C 
ENDROOT
BRANCH  24  25
ATOM     25  C   UNL     1      -3.166   2.213   6.667  0.00  0.00    +0.434 C 
ATOM     36  O   UNL     1      -2.942   1.425   5.772  0.00  0.00    -0.416 OA
BRANCH  25  26
ATOM     26  C   UNL     1      -3.985   1.805   7.816  0.00  0.00    -0.168 A 
ATOM     27  C   UNL     1      -4.249   2.714   8.848  0.00  0.00    +0.096 A 
ATOM     28  C   UNL     1      -5.017   2.329   9.924  0.00  0.00    +0.002 A 
ATOM     29  C   UNL     1      -5.531   1.040   9.989  0.00  0.00    +0.126 A 
ATOM     32  C   UNL     1      -5.272   0.129   8.965  0.00  0.00    +0.067 A 
ATOM     35  C   UNL     1      -4.508   0.508   7.880  0.00  0.00    +0.086 A 
BRANCH  29  30
ATOM     30  O   UNL     1      -6.287   0.667  11.053  0.00  0.00    -0.484 OA
ATOM     31  H   UNL     1      -7.234   0.827  10.938  0.00  0.00    +0.396 HD
ENDBRANCH  29  30
BRANCH  32  33
ATOM     33  O   UNL     1      -5.777  -1.132   9.034  0.00  0.00    -0.482 OA
ATOM     34  H   UNL     1      -6.651  -1.228   8.631  0.00  0.00    +0.391 HD
ENDBRANCH  32  33
ENDBRANCH  25  26
ENDBRANCH  24  25
BRANCH  10   9
ATOM      9  C   UNL     1       0.913   0.879   5.014  0.00  0.00    +0.066 C 
BRANCH   9   8
ATOM      7  C   UNL     1       0.642  -0.261   2.871  0.00  0.00    -0.049 C 
ATOM      8  C   UNL     1       0.161  -0.021   4.066  0.00  0.00    -0.046 C 
BRANCH   7   6
ATOM      6  C   UNL     1      -0.110  -1.160   1.924  0.00  0.00    +0.051 C 
BRANCH   6   5
ATOM      5  C   UNL     1      -0.361  -0.419   0.609  0.00  0.00    +0.051 C 
BRANCH   5   4
ATOM      1  C   UNL     1      -2.844   0.400  -0.448  0.00  0.00    +0.072 C 
ATOM      2  C   UNL     1      -2.292  -0.962  -0.783  0.00  0.00    -0.131 C 
ATOM      3  C   UNL     1      -3.098  -1.914  -1.629  0.00  0.00    +0.071 C 
ATOM      4  C   UNL     1      -1.113  -1.318  -0.339  0.00  0.00    -0.063 C 
ENDBRANCH   5   4
ENDBRANCH   6   5
ENDBRANCH   7   6
ENDBRANCH   9   8
ENDBRANCH  10   9
BRANCH  12  13
ATOM     13  C   UNL     1      -1.059   5.085   3.336  0.00  0.00    +0.111 C 
BRANCH  13  14
ATOM     14  C   UNL     1      -1.666   6.421   3.681  0.00  0.00    -0.065 C 
ATOM     15  C   UNL     1      -1.017   7.526   3.410  0.00  0.00    -0.018 C 
BRANCH  15  16
ATOM     16  C   UNL     1      -1.624   8.861   3.755  0.00  0.00    +0.048 C 
BRANCH  16  17
ATOM     17  C   UNL     1      -0.650   9.654   4.628  0.00  0.00    +0.056 C 
BRANCH  17  18
ATOM     18  C   UNL     1      -1.257  10.989   4.973  0.00  0.00    -0.060 C 
ATOM     19  C   UNL     1      -0.580  12.091   4.763  0.00  0.00    -0.135 C 
ATOM     20  C   UNL     1      -1.198  13.428   5.084  0.00  0.00    +0.070 C 
ATOM     21  C   UNL     1       0.816  12.021   4.200  0.00  0.00    +0.072 C 
ENDBRANCH  17  18
ENDBRANCH  16  17
ENDBRANCH  15  16
ENDBRANCH  13  14
ENDBRANCH  12  13
BRANCH  38  39
ATOM     39  C   UNL     1       0.791   4.874   7.990  0.00  0.00    +0.118 C 
BRANCH  39  40
ATOM     40  C   UNL     1       0.084   6.170   8.296  0.00  0.00    -0.073 C 
ATOM     41  C   UNL     1      -0.313   6.426   9.518  0.00  0.00    -0.108 C 
ATOM     42  C   UNL     1      -1.060   7.701   9.815  0.00  0.00    +0.071 C 
ATOM     43  C   UNL     1      -0.024   5.446  10.626  0.00  0.00    +0.077 C 
ENDBRANCH  39  40
ENDBRANCH  38  39
TORSDOF 16
