REMARK  Name = ZINC15255324
REMARK  6 active torsions:
REMARK  status: ('A' for Active; 'I' for Inactive)
REMARK    1  A    between atoms: C1_1  and  C2_2
REMARK    2  A    between atoms: C6_6  and  C15_16
REMARK    3  A    between atoms: C6_6  and  O1_17
REMARK    4  A    between atoms: C9_9  and  C12_13
REMARK    5  A    between atoms: C12_13  and  C13_14
REMARK    6  A    between atoms: C12_13  and  C14_15
REMARK                            x       y       z     vdW  Elec       q    Type
REMARK                         _______ _______ _______ _____ _____    ______ ____
ROOT
ATOM      1  C   UNL     1      -0.911   0.326   4.930  0.00  0.00    +0.058 C 
ATOM      2  C   UNL     1      -0.378   0.522   3.515  0.00  0.00    -0.119 C 
ATOM      3  C   UNL     1       0.893   0.778   3.407  0.00  0.00    -0.063 C 
ATOM      4  C   UNL     1       1.711   0.887   2.164  0.00  0.00    +0.050 C 
ATOM      5  C   UNL     1       1.638   2.255   1.494  0.00  0.00    +0.055 C 
ATOM      6  C   UNL     1       1.287   2.064   0.001  0.00  0.00    +0.156 C 
ATOM      9  C   UNL     1       1.093   3.424  -0.669  0.00  0.00    +0.017 C 
ATOM     10  C   UNL     1      -0.016   1.296   0.009  0.00  0.00    -0.079 C 
ATOM     11  C   UNL     1       0.002  -0.004   0.002  0.00  0.00    -0.011 C 
ATOM     12  C   UNL     1      -1.238  -0.832   0.211  0.00  0.00    +0.019 C 
ATOM     16  C   UNL     1      -1.386  -0.973   1.742  0.00  0.00    +0.030 C 
ATOM     17  C   UNL     1      -1.361   0.404   2.392  0.00  0.00    +0.047 C 
ENDROOT
BRANCH  12  13
ATOM     13  C   UNL     1      -2.474  -0.182  -0.398  0.00  0.00    -0.017 C 
ATOM     14  C   UNL     1      -3.693  -1.074  -0.150  0.00  0.00    +0.016 C 
ATOM     15  C   UNL     1      -2.269  -0.006  -1.904  0.00  0.00    +0.014 C 
ENDBRANCH  12  13
BRANCH   6   7
ATOM      7  O   UNL     1       2.309   1.323  -0.658  0.00  0.00    -0.551 OA
ATOM      8  H   UNL     1       2.110   1.113  -1.581  0.00  0.00    +0.377 HD
ENDBRANCH   6   7
TORSDOF 2
