REMARK  Name = ZINC95486232
REMARK  21 active torsions:
REMARK  status: ('A' for Active; 'I' for Inactive)
REMARK    1  A    between atoms: C1_1  and  C2_2
REMARK    2  A    between atoms: C2_2  and  C3_3
REMARK    3  A    between atoms: C2_2  and  C4_4
REMARK    4  A    between atoms: C4_4  and  O2_6
REMARK    5  A    between atoms: O2_6  and  C5_7
REMARK    6  A    between atoms: C6_9  and  O11_56
REMARK    7  A    between atoms: C12_18  and  O7_41
REMARK    8  A    between atoms: C13_20  and  O5_37
REMARK    9  A    between atoms: C14_22  and  C24_36
REMARK   10  A    between atoms: C15_23  and  C20_29
REMARK   11  A    between atoms: O5_37  and  C25_38
REMARK   12  A    between atoms: C25_38  and  C26_40
REMARK   13  A    between atoms: O7_41  and  C27_42
REMARK   14  A    between atoms: C27_42  and  C28_44
REMARK   15  A    between atoms: C31_47  and  O9_52
REMARK   16  A    between atoms: C32_49  and  C33_50
REMARK   17  A    between atoms: C32_49  and  C34_51
REMARK   18  A    between atoms: O9_52  and  C35_53
REMARK   19  A    between atoms: C35_53  and  C36_55
REMARK   20  A    between atoms: O11_56  and  C37_57
REMARK   21  A    between atoms: C37_57  and  C38_59
REMARK                            x       y       z     vdW  Elec       q    Type
REMARK                         _______ _______ _______ _____ _____    ______ ____
ROOT
ATOM      5  C   UNL     1       0.642  -0.971   4.068  0.00  0.00    +0.174 C 
ATOM      6  C   UNL     1       0.516  -2.227   4.910  0.00  0.00    +0.193 C 
ATOM     11  C   UNL     1      -0.276  -1.934   6.161  0.00  0.00    +0.028 C 
ATOM     12  C   UNL     1      -0.094  -0.496   6.568  0.00  0.00    -0.050 C 
ATOM     13  C   UNL     1      -0.582  -0.279   7.975  0.00  0.00    +0.010 C 
ATOM     14  C   UNL     1      -1.587  -0.989   8.399  0.00  0.00    -0.064 C 
ATOM     15  C   UNL     1      -2.329  -2.013   7.617  0.00  0.00    +0.222 C 
ATOM     20  C   UNL     1       1.293   0.100   6.287  0.00  0.00    +0.085 C 
ATOM     21  C   UNL     1      -0.655   0.595   5.583  0.00  0.00    +0.078 C 
ATOM     22  C   UNL     1      -0.628   1.808   6.531  0.00  0.00    +0.199 C 
ATOM     27  C   UNL     1      -0.669   3.262   6.115  0.00  0.00    +0.187 C 
ATOM     32  C   UNL     1      -0.333   3.487   4.628  0.00  0.00    -0.024 C 
ATOM     33  C   UNL     1      -1.459   3.073   3.682  0.00  0.00    +0.063 C 
ATOM     34  C   UNL     1      -0.003   5.006   4.502  0.00  0.00    +0.011 C 
ATOM     41  C   UNL     1       1.484   5.000   4.935  0.00  0.00    +0.060 C 
ATOM     42  C   UNL     1       1.979   3.637   4.507  0.00  0.00    -0.014 C 
ATOM     43  C   UNL     1       0.971   2.813   4.335  0.00  0.00    -0.117 C 
ATOM     44  C   UNL     1       1.087   1.387   3.905  0.00  0.00    +0.097 C 
ATOM     45  C   UNL     1      -1.676  -2.456   6.303  0.00  0.00    -0.026 C 
ATOM     46  C   UNL     1      -1.643  -4.002   6.331  0.00  0.00    +0.034 C 
ATOM     47  C   UNL     1      -2.572  -2.025   5.136  0.00  0.00    +0.059 C 
ATOM     48  C   UNL     1       0.779   0.324   4.923  0.00  0.00    -0.038 C 
ENDROOT
BRANCH  34  35
ATOM     35  C   UNL     1      -0.154   5.479   3.054  0.00  0.00    -0.007 C 
ATOM     36  C   UNL     1       1.031   4.993   2.173  0.00  0.00    +0.051 C 
ATOM     37  C   UNL     1       1.132   6.096   1.134  0.00  0.00    +0.479 C 
ATOM     38  O   UNL     1       0.537   7.204   1.601  0.00  0.00    -0.343 OA
ATOM     39  O   UNL     1       1.664   5.992   0.054  0.00  0.00    -0.456 OA
ATOM     40  C   UNL     1       0.044   7.014   2.937  0.00  0.00    +0.251 C 
ENDBRANCH  34  35
BRANCH   5   4
ATOM      4  O   UNL     1      -0.490  -0.851   3.211  0.00  0.00    -0.322 OA
BRANCH   4   3
ATOM      3  C   UNL     1      -0.413  -1.450   2.012  0.00  0.00    +0.466 C 
ATOM     49  O   UNL     1       0.585  -2.057   1.702  0.00  0.00    -0.502 OA
BRANCH   3   2
ATOM      1  C   UNL     1      -1.849   0.101   0.715  0.00  0.00    +0.057 C 
ATOM      2  C   UNL     1      -1.572  -1.365   1.052  0.00  0.00    +0.027 C 
ATOM     50  C   UNL     1      -1.228  -2.127  -0.230  0.00  0.00    +0.059 C 
ENDBRANCH   3   2
ENDBRANCH   4   3
ENDBRANCH   5   4
BRANCH   6   7
ATOM      7  O   UNL     1      -0.066  -3.264   4.126  0.00  0.00    -0.333 OA
BRANCH   7   8
ATOM      8  C   UNL     1       0.775  -4.053   3.439  0.00  0.00    +0.465 C 
ATOM      9  C   UNL     1       0.232  -5.172   2.588  0.00  0.00    +0.153 C 
ATOM     10  O   UNL     1       1.967  -3.867   3.503  0.00  0.00    -0.500 OA
ENDBRANCH   7   8
ENDBRANCH   6   7
BRANCH  15  16
ATOM     16  O   UNL     1      -3.639  -1.510   7.326  0.00  0.00    -0.328 OA
BRANCH  16  17
ATOM     17  C   UNL     1      -4.606  -1.774   8.219  0.00  0.00    +0.454 C 
ATOM     18  C   UNL     1      -6.008  -1.277   7.979  0.00  0.00    +0.151 C 
ATOM     19  O   UNL     1      -4.352  -2.410   9.214  0.00  0.00    -0.514 OA
ENDBRANCH  16  17
ENDBRANCH  15  16
BRANCH  22  23
ATOM     23  O   UNL     1      -1.839   1.692   7.327  0.00  0.00    -0.331 OA
BRANCH  23  24
ATOM     24  C   UNL     1      -1.813   2.224   8.559  0.00  0.00    +0.455 C 
ATOM     25  C   UNL     1      -3.035   2.152   9.438  0.00  0.00    +0.142 C 
ATOM     26  O   UNL     1      -0.810   2.763   8.963  0.00  0.00    -0.514 OA
ENDBRANCH  23  24
ENDBRANCH  22  23
BRANCH  27  28
ATOM     28  O   UNL     1      -1.982   3.777   6.383  0.00  0.00    -0.332 OA
BRANCH  28  29
ATOM     29  C   UNL     1      -2.055   4.944   7.043  0.00  0.00    +0.447 C 
ATOM     30  C   UNL     1      -3.392   5.606   7.257  0.00  0.00    +0.152 C 
ATOM     31  O   UNL     1      -1.050   5.464   7.465  0.00  0.00    -0.495 OA
ENDBRANCH  28  29
ENDBRANCH  27  28
TORSDOF 12
