REMARK  Name = ZINC95486292
REMARK  5 active torsions:
REMARK  status: ('A' for Active; 'I' for Inactive)
REMARK    1  A    between atoms: C7_10  and  C14_20
REMARK    2  A    between atoms: C11_14  and  C13_18
REMARK    3  A    between atoms: C12_15  and  O1_17
REMARK    4  A    between atoms: C13_18  and  O2_19
REMARK    5  A    between atoms: C14_20  and  O3_21
REMARK                            x       y       z     vdW  Elec       q    Type
REMARK                         _______ _______ _______ _____ _____    ______ ____
ROOT
ATOM      1  C   UNL     1      -0.202   1.567   0.192  0.00  0.00    +0.189 C 
ATOM      2  C   UNL     1      -0.095   0.241   0.138  0.00  0.00    -0.223 C 
ATOM      3  C   UNL     1      -1.208  -0.781   0.076  0.00  0.00    -0.010 C 
ATOM      4  C   UNL     1      -0.472  -2.017   0.667  0.00  0.00    +0.175 C 
ATOM      5  O   UNL     1       0.816  -1.898   0.062  0.00  0.00    -0.328 OA
ATOM      6  C   UNL     1      -1.275  -3.251   0.299  0.00  0.00    +0.066 C 
ATOM      7  C   UNL     1      -2.765  -2.882   0.392  0.00  0.00    +0.072 C 
ATOM      8  C   UNL     1      -3.555  -4.114   0.745  0.00  0.00    -0.145 C 
ATOM     12  C   UNL     1      -4.731  -4.005   1.355  0.00  0.00    +0.039 C 
ATOM     13  C   UNL     1      -5.264  -2.671   1.676  0.00  0.00    -0.022 C 
ATOM     14  C   UNL     1      -4.441  -1.631   1.735  0.00  0.00    +0.022 C 
ATOM     15  C   UNL     1      -2.971  -1.813   1.468  0.00  0.00    -0.015 C 
ATOM     19  C   UNL     1      -2.400  -0.470   0.965  0.00  0.00    +0.218 C 
ATOM     22  C   UNL     1       1.145  -0.576   0.117  0.00  0.00    +0.510 C 
ATOM     23  O   UNL     1       2.277  -0.135   0.147  0.00  0.00    -0.441 OA
ENDROOT
BRANCH  19  20
ATOM     20  O   UNL     1      -3.380   0.258   0.223  0.00  0.00    -0.551 OA
ATOM     21  H   UNL     1      -3.062   1.101  -0.127  0.00  0.00    +0.378 HD
ENDBRANCH  19  20
BRANCH   8   9
ATOM      9  C   UNL     1      -3.010  -5.477   0.404  0.00  0.00    +0.234 C 
BRANCH   9  10
ATOM     10  O   UNL     1      -3.932  -6.480   0.835  0.00  0.00    -0.571 OA
ATOM     11  H   UNL     1      -3.646  -7.384   0.647  0.00  0.00    +0.385 HD
ENDBRANCH   9  10
ENDBRANCH   8   9
BRANCH  15  16
ATOM     16  C   UNL     1      -2.267  -2.246   2.756  0.00  0.00    +0.198 C 
BRANCH  16  17
ATOM     17  O   UNL     1      -2.266  -1.161   3.686  0.00  0.00    -0.567 OA
ATOM     18  H   UNL     1      -1.835  -1.365   4.527  0.00  0.00    +0.384 HD
ENDBRANCH  16  17
ENDBRANCH  15  16
TORSDOF 5
