REMARK  Name = ZINC28109109
REMARK  5 active torsions:
REMARK  status: ('A' for Active; 'I' for Inactive)
REMARK    1  A    between atoms: C1_1  and  O1_2
REMARK    2  A    between atoms: O1_2  and  C2_3
REMARK    3  A    between atoms: C7_8  and  O2_9
REMARK    4  A    between atoms: C12_15  and  O3_22
REMARK    5  A    between atoms: O3_22  and  C18_23
REMARK                            x       y       z     vdW  Elec       q    Type
REMARK                         _______ _______ _______ _____ _____    ______ ____
ROOT
ATOM      3  C   UNL     1      -0.787   2.893   1.346  0.00  0.00    +0.088 A 
ATOM      4  C   UNL     1      -0.261   3.752   0.399  0.00  0.00    -0.022 A 
ATOM      5  C   UNL     1      -0.365   5.127   0.560  0.00  0.00    -0.100 A 
ATOM      6  C   UNL     1      -1.008   5.645   1.661  0.00  0.00    -0.064 A 
ATOM      7  C   UNL     1      -1.175   7.119   1.870  0.00  0.00    +0.052 C 
ATOM      8  C   UNL     1      -0.613   7.965   0.758  0.00  0.00    +0.228 C 
ATOM      9  N   UNL     1       0.440   7.380  -0.017  0.00  0.00    -0.524 NA
ATOM     10  C   UNL     1       1.747   7.335   0.679  0.00  0.00    +0.228 C 
ATOM     11  C   UNL     1       2.528   6.259  -0.055  0.00  0.00    +0.009 C 
ATOM     12  C   UNL     1       1.678   5.508  -0.734  0.00  0.00    -0.112 C 
ATOM     13  C   UNL     1       1.956   4.370  -1.625  0.00  0.00    +0.050 C 
ATOM     14  C   UNL     1       0.974   3.967  -2.424  0.00  0.00    -0.057 C 
ATOM     15  C   UNL     1      -0.384   4.579  -2.460  0.00  0.00    +0.187 C 
ATOM     18  C   UNL     1      -0.510   5.929  -1.788  0.00  0.00    +0.067 C 
ATOM     19  C   UNL     1      -1.533   4.785   2.618  0.00  0.00    -0.049 A 
ATOM     20  C   UNL     1       0.263   6.010  -0.484  0.00  0.00    +0.198 C 
ATOM     21  C   UNL     1      -1.431   3.415   2.464  0.00  0.00    +0.136 A 
ENDROOT
BRANCH   3   2
ATOM      1  C   UNL     1      -0.013   1.086   0.008  0.00  0.00    +0.233 C 
ATOM      2  O   UNL     1      -0.682   1.547   1.184  0.00  0.00    -0.305 OA
ENDBRANCH   3   2
BRANCH  15  16
ATOM     16  O   UNL     1      -0.775   4.720  -3.827  0.00  0.00    -0.373 OA
ATOM     17  C   UNL     1      -1.470   3.588  -4.353  0.00  0.00    +0.200 C 
ENDBRANCH  15  16
BRANCH  21  22
ATOM     22  O   UNL     1      -1.952   2.581   3.404  0.00  0.00    -0.499 OA
ATOM     23  H   UNL     1      -2.461   2.996   4.287  0.00  0.00    +0.431 HD
ENDBRANCH  21  22
TORSDOF 3
