REMARK  Name = ZINC95485994
REMARK  12 active torsions:
REMARK  status: ('A' for Active; 'I' for Inactive)
REMARK    1  A    between atoms: C1_1  and  C2_2
REMARK    2  A    between atoms: C6_8  and  C25_33
REMARK    3  A    between atoms: C6_8  and  C26_34
REMARK    4  A    between atoms: C7_9  and  O3_32
REMARK    5  A    between atoms: C8_11  and  C21_28
REMARK    6  A    between atoms: C8_11  and  C22_29
REMARK    7  A    between atoms: C9_12  and  O1_17
REMARK    8  A    between atoms: O1_17  and  C12_18
REMARK    9  A    between atoms: C12_18  and  C13_20
REMARK   10  A    between atoms: C14_21  and  C15_22
REMARK   11  A    between atoms: C22_29  and  C23_30
REMARK   12  A    between atoms: C22_29  and  C24_31
REMARK                            x       y       z     vdW  Elec       q    Type
REMARK                         _______ _______ _______ _____ _____    ______ ____
ROOT
ATOM      1  C   UNL     1      -0.323   1.465   2.209  0.00  0.00    +0.018 C 
ATOM      2  C   UNL     1      -0.486   0.044   1.669  0.00  0.00    -0.022 C 
ATOM      3  C   UNL     1      -0.113  -0.012   0.172  0.00  0.00    +0.017 C 
ATOM      4  C   UNL     1       0.234  -1.511  -0.058  0.00  0.00    +0.002 C 
ATOM      5  C   UNL     1       1.098  -1.610  -1.261  0.00  0.00    +0.029 C 
ATOM      6  C   UNL     1       1.619  -2.938  -1.715  0.00  0.00    -0.075 C 
ATOM      7  C   UNL     1       2.091  -2.747  -3.182  0.00  0.00    +0.016 C 
ATOM      8  C   UNL     1       0.463  -3.947  -1.777  0.00  0.00    +0.027 C 
ATOM      9  C   UNL     1       2.774  -3.502  -0.970  0.00  0.00    +0.194 C 
ATOM     12  C   UNL     1       2.690  -3.612   0.529  0.00  0.00    -0.036 C 
ATOM     16  C   UNL     1       1.867  -4.834   0.938  0.00  0.00    +0.049 C 
ATOM     17  C   UNL     1       2.247  -2.419   1.290  0.00  0.00    +0.211 C 
ATOM     29  C   UNL     1       0.815  -1.991   1.249  0.00  0.00    -0.017 C 
ATOM     30  C   UNL     1       0.537  -0.915   2.325  0.00  0.00    +0.014 C 
ENDROOT
BRANCH  12  13
ATOM     13  C   UNL     1       4.134  -3.904   1.014  0.00  0.00    -0.031 C 
ATOM     14  C   UNL     1       4.684  -5.125   0.274  0.00  0.00    +0.032 C 
ATOM     15  C   UNL     1       4.120  -4.184   2.518  0.00  0.00    +0.016 C 
ENDBRANCH  12  13
BRANCH   9  10
ATOM     10  O   UNL     1       3.068  -4.806  -1.505  0.00  0.00    -0.559 OA
ATOM     11  H   UNL     1       3.297  -4.803  -2.445  0.00  0.00    +0.368 HD
ENDBRANCH   9  10
BRANCH  17  18
ATOM     18  O   UNL     1       3.053  -1.309   0.879  0.00  0.00    -0.337 OA
BRANCH  18  19
ATOM     19  C   UNL     1       3.751  -0.669   1.840  0.00  0.00    +0.494 C 
ATOM     28  O   UNL     1       3.677  -1.043   2.995  0.00  0.00    -0.509 OA
BRANCH  19  20
ATOM     20  C   UNL     1       4.596   0.473   1.493  0.00  0.00    -0.058 C 
ATOM     21  C   UNL     1       5.294   1.112   2.455  0.00  0.00    +0.136 C 
BRANCH  21  22
ATOM     22  C   UNL     1       6.144   2.261   2.106  0.00  0.00    -0.084 A 
ATOM     23  C   UNL     1       6.227   2.697   0.779  0.00  0.00    +0.032 A 
ATOM     24  C   UNL     1       7.026   3.775   0.461  0.00  0.00    +0.005 A 
ATOM     25  C   UNL     1       7.745   4.424   1.449  0.00  0.00    +0.023 A 
ATOM     26  C   UNL     1       7.668   3.999   2.764  0.00  0.00    +0.005 A 
ATOM     27  C   UNL     1       6.869   2.926   3.099  0.00  0.00    +0.039 A 
ENDBRANCH  21  22
ENDBRANCH  19  20
ENDBRANCH  18  19
ENDBRANCH  17  18
TORSDOF 6
