REMARK  Name = ZINC95486061
REMARK  20 active torsions:
REMARK  status: ('A' for Active; 'I' for Inactive)
REMARK    1  A    between atoms: C1_1  and  C2_2
REMARK    2  A    between atoms: C2_2  and  C3_4
REMARK    3  A    between atoms: C3_4  and  C4_6
REMARK    4  A    between atoms: C3_4  and  C14_18
REMARK    5  A    between atoms: C4_6  and  C5_7
REMARK    6  A    between atoms: C5_7  and  C6_8
REMARK    7  A    between atoms: C6_8  and  C7_9
REMARK    8  A    between atoms: C7_9  and  C8_10
REMARK    9  A    between atoms: C8_10  and  C9_11
REMARK   10  A    between atoms: C9_11  and  C10_12
REMARK   11  A    between atoms: C10_12  and  C11_13
REMARK   12  A    between atoms: C11_13  and  O2_14
REMARK   13  A    between atoms: O2_14  and  C12_15
REMARK   14  A    between atoms: C12_15  and  C13_17
REMARK   15  A    between atoms: C15_19  and  C16_20
REMARK   16  A    between atoms: C17_21  and  C18_22
REMARK   17  A    between atoms: C18_22  and  C19_24
REMARK   18  A    between atoms: C18_22  and  O4_26
REMARK   19  A    between atoms: O4_26  and  C21_27
REMARK   20  A    between atoms: C21_27  and  C22_29
REMARK                            x       y       z     vdW  Elec       q    Type
REMARK                         _______ _______ _______ _____ _____    ______ ____
ROOT
ATOM      3  C   UNL     1      -0.000  -0.750  -1.307  0.00  0.00    +0.105 C 
ENDROOT
BRANCH   3   2
ATOM      1  C   UNL     1      -0.018   1.503   0.010  0.00  0.00    +0.073 C 
ATOM      2  C   UNL     1       0.002  -0.004   0.002  0.00  0.00    +0.365 C 
ATOM     27  O   UNL     1       0.020  -0.613   1.044  0.00  0.00    -0.437 OA
ENDBRANCH   3   2
BRANCH   3   4
ATOM      4  C   UNL     1      -1.385  -0.907  -1.780  0.00  0.00    -0.105 C 
ATOM      5  C   UNL     1      -2.490  -1.032  -2.158  0.00  0.00    -0.064 C 
BRANCH   5   6
ATOM      6  C   UNL     1      -3.786  -1.179  -2.600  0.00  0.00    -0.035 C 
ATOM      7  C   UNL     1      -4.890  -1.304  -2.977  0.00  0.00    -0.121 C 
BRANCH   7   8
ATOM      8  C   UNL     1      -6.275  -1.461  -3.450  0.00  0.00    +0.360 C 
BRANCH   8  13
ATOM     13  C   UNL     1      -7.070  -2.234  -2.430  0.00  0.00    -0.047 C 
ATOM     14  C   UNL     1      -8.177  -1.730  -1.943  0.00  0.00    +0.053 C 
ENDBRANCH   8  13
BRANCH   8   9
ATOM      9  O   UNL     1      -6.864  -0.172  -3.636  0.00  0.00    -0.342 OA
BRANCH   9  10
ATOM     10  C   UNL     1      -7.805  -0.063  -4.587  0.00  0.00    +0.460 C 
ATOM     11  C   UNL     1      -8.471   1.265  -4.839  0.00  0.00    +0.165 C 
ATOM     12  O   UNL     1      -8.119  -1.030  -5.240  0.00  0.00    -0.501 OA
ENDBRANCH   9  10
ENDBRANCH   8   9
ENDBRANCH   7   8
ENDBRANCH   5   6
ENDBRANCH   3   4
BRANCH   3  15
ATOM     15  C   UNL     1       0.630  -2.130  -1.109  0.00  0.00    +0.048 C 
BRANCH  15  16
ATOM     16  C   UNL     1       2.106  -1.968  -0.738  0.00  0.00    +0.009 C 
BRANCH  16  17
ATOM     17  C   UNL     1       2.736  -3.348  -0.539  0.00  0.00    +0.009 C 
BRANCH  17  18
ATOM     18  C   UNL     1       4.212  -3.186  -0.168  0.00  0.00    +0.004 C 
BRANCH  18  19
ATOM     19  C   UNL     1       4.842  -4.566   0.031  0.00  0.00    +0.009 C 
BRANCH  19  20
ATOM     20  C   UNL     1       6.317  -4.404   0.402  0.00  0.00    +0.014 C 
BRANCH  20  21
ATOM     21  C   UNL     1       6.948  -5.784   0.600  0.00  0.00    +0.030 C 
BRANCH  21  22
ATOM     22  C   UNL     1       8.423  -5.622   0.971  0.00  0.00    +0.198 C 
BRANCH  22  23
ATOM     23  O   UNL     1       9.012  -6.911   1.157  0.00  0.00    -0.354 OA
BRANCH  23  24
ATOM     24  C   UNL     1      10.312  -6.945   1.489  0.00  0.00    +0.459 C 
ATOM     25  C   UNL     1      11.001  -8.268   1.701  0.00  0.00    +0.156 C 
ATOM     26  O   UNL     1      10.930  -5.915   1.617  0.00  0.00    -0.514 OA
ENDBRANCH  23  24
ENDBRANCH  22  23
ENDBRANCH  21  22
ENDBRANCH  20  21
ENDBRANCH  19  20
ENDBRANCH  18  19
ENDBRANCH  17  18
ENDBRANCH  16  17
ENDBRANCH  15  16
ENDBRANCH   3  15
TORSDOF 17
