REMARK  Name = ZINC01529208
REMARK  7 active torsions:
REMARK  status: ('A' for Active; 'I' for Inactive)
REMARK    1  A    between atoms: C1_1  and  C2_2
REMARK    2  A    between atoms: C2_2  and  C10_11
REMARK    3  A    between atoms: C3_3  and  C4_4
REMARK    4  A    between atoms: C4_4  and  C5_5
REMARK    5  A    between atoms: C5_5  and  C6_6
REMARK    6  A    between atoms: C6_6  and  C9_10
REMARK    7  A    between atoms: C7_7  and  C8_8
REMARK                            x       y       z     vdW  Elec       q    Type
REMARK                         _______ _______ _______ _____ _____    ______ ____
ROOT
ATOM      6  C   UNL     1      -0.879  -0.572   3.395  0.00  0.00    +0.066 C 
ENDROOT
BRANCH   6   7
ATOM      7  C   UNL     1      -0.876   0.170   4.707  0.00  0.00    -0.031 C 
ATOM      8  C   UNL     1       0.138  -0.175   5.766  0.00  0.00    +0.091 C 
ATOM      9  C   UNL     1      -1.773   1.133   4.930  0.00  0.00    -0.137 C 
BRANCH   9  10
ATOM     10  C   UNL     1      -1.770   1.854   6.203  0.00  0.00    +0.460 C 
ATOM     11  O   UNL     1      -2.585   2.729   6.406  0.00  0.00    -0.466 OA
ENDBRANCH   9  10
ENDBRANCH   6   7
BRANCH   6   5
ATOM      5  C   UNL     1       0.123   0.078   2.439  0.00  0.00    +0.060 C 
BRANCH   5   4
ATOM      1  C   UNL     1      -0.201   1.487   0.018  0.00  0.00    +0.073 C 
ATOM      2  C   UNL     1      -0.087  -0.015   0.009  0.00  0.00    -0.127 C 
ATOM      3  C   UNL     1      -0.213  -0.772  -1.289  0.00  0.00    +0.074 C 
ATOM      4  C   UNL     1       0.121  -0.664   1.128  0.00  0.00    -0.064 C 
ENDBRANCH   5   4
ENDBRANCH   6   5
TORSDOF 4
