REMARK  Name = ZINC95486149
REMARK  11 active torsions:
REMARK  status: ('A' for Active; 'I' for Inactive)
REMARK    1  A    between atoms: C1_1  and  C2_2
REMARK    2  A    between atoms: C6_6  and  O1_8
REMARK    3  A    between atoms: O1_8  and  C8_9
REMARK    4  A    between atoms: C9_10  and  O4_31
REMARK    5  A    between atoms: C11_12  and  C24_30
REMARK    6  A    between atoms: C12_13  and  C13_14
REMARK    7  A    between atoms: C14_15  and  O3_29
REMARK    8  A    between atoms: C16_17  and  O2_28
REMARK    9  A    between atoms: C20_21  and  C23_27
REMARK   10  A    between atoms: C21_24  and  C22_26
REMARK   11  A    between atoms: O4_31  and  C25_32
REMARK                            x       y       z     vdW  Elec       q    Type
REMARK                         _______ _______ _______ _____ _____    ______ ____
ROOT
ATOM     16  C   UNL     1      -0.207  -2.295  -4.166  0.00  0.00    -0.039 A 
ATOM     17  C   UNL     1      -1.341  -2.005  -4.931  0.00  0.00    +0.169 A 
ATOM     20  C   UNL     1      -1.208  -1.285  -6.105  0.00  0.00    -0.018 A 
ATOM     21  C   UNL     1       0.044  -0.857  -6.516  0.00  0.00    +0.157 A 
ATOM     24  C   UNL     1       1.176  -1.145  -5.757  0.00  0.00    -0.165 A 
ATOM     25  C   UNL     1       2.514  -0.661  -6.252  0.00  0.00    +0.239 C 
ATOM     26  C   UNL     1       2.364   0.757  -6.806  0.00  0.00    +0.092 C 
ATOM     27  N   UNL     1       3.490  -0.636  -5.153  0.00  0.00    -0.504 N 
ATOM     28  H   UNL     1       4.401  -0.405  -5.519  0.00  0.00    +0.432 HD
ATOM     29  H   UNL     1       3.217   0.048  -4.464  0.00  0.00    +0.429 HD
ATOM     30  C   UNL     1       3.533  -1.970  -4.533  0.00  0.00    +0.178 C 
ATOM     31  C   UNL     1       3.633  -3.043  -5.618  0.00  0.00    +0.088 C 
ATOM     32  C   UNL     1       2.250  -2.173  -3.726  0.00  0.00    +0.132 C 
ATOM     33  C   UNL     1       1.052  -1.853  -4.583  0.00  0.00    -0.043 A 
ENDROOT
BRANCH  16  15
ATOM      1  C   UNL     1      -0.982   1.129  -0.390  0.00  0.00    +0.094 C 
ATOM      2  C   UNL     1      -0.878  -0.374  -0.436  0.00  0.00    -0.007 A 
ATOM      3  C   UNL     1      -0.663  -0.996  -1.629  0.00  0.00    -0.066 A 
ATOM      4  C   UNL     1      -0.564  -2.394  -1.682  0.00  0.00    +0.052 A 
ATOM      5  C   UNL     1      -0.689  -3.148  -0.491  0.00  0.00    -0.111 A 
ATOM      6  C   UNL     1      -0.589  -4.553  -0.544  0.00  0.00    +0.195 A 
ATOM      9  C   UNL     1      -0.371  -5.180  -1.751  0.00  0.00    -0.114 A 
ATOM     10  C   UNL     1      -0.247  -4.446  -2.924  0.00  0.00    +0.015 A 
ATOM     11  C   UNL     1      -0.008  -5.161  -4.229  0.00  0.00    +0.096 C 
ATOM     12  C   UNL     1      -0.912  -2.480   0.729  0.00  0.00    +0.186 A 
ATOM     15  C   UNL     1      -0.341  -3.065  -2.909  0.00  0.00    -0.126 A 
ATOM     34  C   UNL     1      -0.997  -1.105   0.742  0.00  0.00    -0.114 A 
BRANCH   6   7
ATOM      7  O   UNL     1      -0.708  -5.287   0.592  0.00  0.00    -0.287 OA
ATOM      8  C   UNL     1      -0.596  -6.705   0.463  0.00  0.00    +0.247 C 
ENDBRANCH   6   7
BRANCH  12  13
ATOM     13  O   UNL     1      -1.035  -3.184   1.883  0.00  0.00    -0.288 OA
ATOM     14  C   UNL     1      -1.260  -2.436   3.080  0.00  0.00    +0.247 C 
ENDBRANCH  12  13
ENDBRANCH  16  15
BRANCH  17  18
ATOM     18  O   UNL     1      -2.566  -2.429  -4.524  0.00  0.00    -0.482 OA
ATOM     19  H   UNL     1      -3.032  -1.799  -3.957  0.00  0.00    +0.403 HD
ENDBRANCH  17  18
BRANCH  21  22
ATOM     22  O   UNL     1       0.169  -0.151  -7.670  0.00  0.00    -0.490 OA
ATOM     23  H   UNL     1       0.009   0.797  -7.571  0.00  0.00    +0.401 HD
ENDBRANCH  21  22
TORSDOF 5
