REMARK  Name = ZINC95486019
REMARK  12 active torsions:
REMARK  status: ('A' for Active; 'I' for Inactive)
REMARK    1  A    between atoms: C1_1  and  C2_2
REMARK    2  A    between atoms: C5_6  and  C15_20
REMARK    3  A    between atoms: C6_7  and  O2_18
REMARK    4  A    between atoms: C8_9  and  O1_16
REMARK    5  A    between atoms: C10_11  and  C12_15
REMARK    6  A    between atoms: N1_13  and  C11_14
REMARK    7  A    between atoms: O1_16  and  C13_17
REMARK    8  A    between atoms: O2_18  and  C14_19
REMARK    9  A    between atoms: C18_23  and  O4_32
REMARK   10  A    between atoms: C24_29  and  O3_30
REMARK   11  A    between atoms: O3_30  and  C25_31
REMARK   12  A    between atoms: O4_32  and  C26_33
REMARK                            x       y       z     vdW  Elec       q    Type
REMARK                         _______ _______ _______ _____ _____    ______ ____
ROOT
ATOM      1  C   UNL     1      -0.339   1.550   0.264  0.00  0.00    +0.092 C 
ATOM      2  C   UNL     1      -0.147   0.038   0.135  0.00  0.00    +0.170 C 
ATOM      3  C   UNL     1       0.686  -0.270  -1.110  0.00  0.00    +0.138 C 
ATOM      4  C   UNL     1       1.072  -1.726  -1.119  0.00  0.00    +0.001 A 
ATOM      5  C   UNL     1       1.527  -2.291  -2.314  0.00  0.00    -0.087 A 
ATOM     20  C   UNL     1       1.897  -3.639  -2.357  0.00  0.00    +0.210 A 
ATOM     23  C   UNL     1       1.811  -4.409  -1.210  0.00  0.00    -0.147 A 
ATOM     24  C   UNL     1       1.358  -3.842  -0.030  0.00  0.00    +0.203 A 
ATOM     27  C   UNL     1       0.987  -2.499   0.016  0.00  0.00    -0.204 A 
ATOM     28  C   UNL     1       0.493  -1.935   1.322  0.00  0.00    +0.236 C 
ATOM     29  C   UNL     1       1.355  -2.478   2.464  0.00  0.00    +0.098 C 
ATOM     30  N   UNL     1       0.565  -0.473   1.317  0.00  0.00    -0.382 N 
ATOM     31  H   UNL     1       1.531  -0.185   1.279  0.00  0.00    +0.422 HD
ATOM     32  C   UNL     1      -0.062   0.058   2.535  0.00  0.00    +0.323 C 
ENDROOT
BRANCH   5   6
ATOM      6  C   UNL     1       1.617  -1.461  -3.537  0.00  0.00    -0.099 A 
ATOM      7  C   UNL     1       2.783  -0.775  -3.830  0.00  0.00    +0.093 A 
ATOM      8  C   UNL     1       2.879   0.007  -4.973  0.00  0.00    -0.111 A 
ATOM      9  C   UNL     1       1.817   0.120  -5.845  0.00  0.00    +0.185 A 
ATOM     12  C   UNL     1       0.615  -0.565  -5.578  0.00  0.00    -0.100 A 
ATOM     13  C   UNL     1      -0.487  -0.467  -6.450  0.00  0.00    +0.175 A 
ATOM     16  C   UNL     1      -1.640  -1.165  -6.165  0.00  0.00    -0.110 A 
ATOM     17  C   UNL     1      -1.732  -1.948  -5.018  0.00  0.00    +0.077 A 
ATOM     18  C   UNL     1      -0.683  -2.054  -4.155  0.00  0.00    -0.047 A 
ATOM     19  C   UNL     1       0.512  -1.368  -4.417  0.00  0.00    +0.043 A 
BRANCH   9  10
ATOM     10  O   UNL     1       1.929   0.890  -6.958  0.00  0.00    -0.288 OA
ATOM     11  C   UNL     1       3.177   1.555  -7.164  0.00  0.00    +0.245 C 
ENDBRANCH   9  10
BRANCH  13  14
ATOM     14  O   UNL     1      -0.408   0.294  -7.572  0.00  0.00    -0.289 OA
ATOM     15  C   UNL     1      -1.567   0.343  -8.407  0.00  0.00    +0.245 C 
ENDBRANCH  13  14
ENDBRANCH   5   6
BRANCH  20  21
ATOM     21  O   UNL     1       2.339  -4.189  -3.518  0.00  0.00    -0.292 OA
ATOM     22  C   UNL     1       2.699  -5.572  -3.484  0.00  0.00    +0.253 C 
ENDBRANCH  20  21
BRANCH  24  25
ATOM     25  O   UNL     1       1.275  -4.602   1.093  0.00  0.00    -0.308 OA
ATOM     26  C   UNL     1       1.671  -5.971   0.981  0.00  0.00    +0.253 C 
ENDBRANCH  24  25
TORSDOF 5
