REMARK  Name = ZINC95485902
REMARK  6 active torsions:
REMARK  status: ('A' for Active; 'I' for Inactive)
REMARK    1  A    between atoms: C3_3  and  O5_18
REMARK    2  A    between atoms: C4_4  and  C7_8
REMARK    3  A    between atoms: C5_5  and  O1_7
REMARK    4  A    between atoms: C7_8  and  C8_10
REMARK    5  A    between atoms: C10_12  and  O4_17
REMARK    6  A    between atoms: C13_15  and  O3_16
REMARK                            x       y       z     vdW  Elec       q    Type
REMARK                         _______ _______ _______ _____ _____    ______ ____
ROOT
ATOM      7  C   UNL     1       3.701  -0.680  -0.038  0.00  0.00    +0.463 C 
ATOM     18  O   UNL     1       4.741  -0.056  -0.140  0.00  0.00    -0.426 OA
ENDROOT
BRANCH   7   6
ATOM      1  C   UNL     1      -0.017   1.378   0.019  0.00  0.00    +0.070 A 
ATOM      2  C   UNL     1       0.566   1.047  -1.190  0.00  0.00    -0.014 A 
ATOM      3  C   UNL     1       1.777   0.376  -1.221  0.00  0.00    +0.156 A 
ATOM      6  C   UNL     1       2.414   0.033  -0.018  0.00  0.00    -0.203 A 
ATOM     19  C   UNL     1       1.813   0.374   1.204  0.00  0.00    +0.156 A 
ATOM     22  C   UNL     1       0.601   1.045   1.210  0.00  0.00    -0.016 A 
BRANCH   3   4
ATOM      4  O   UNL     1       2.346   0.052  -2.409  0.00  0.00    -0.492 OA
ATOM      5  H   UNL     1       2.939   0.731  -2.760  0.00  0.00    +0.400 HD
ENDBRANCH   3   4
BRANCH  19  20
ATOM     20  O   UNL     1       2.418   0.048   2.373  0.00  0.00    -0.491 OA
ATOM     21  H   UNL     1       2.961   0.756   2.746  0.00  0.00    +0.398 HD
ENDBRANCH  19  20
ENDBRANCH   7   6
BRANCH   7   8
ATOM      8  C   UNL     1       3.731  -2.152   0.065  0.00  0.00    -0.171 A 
ATOM      9  C   UNL     1       2.538  -2.880   0.068  0.00  0.00    +0.068 A 
ATOM     10  C   UNL     1       2.574  -4.258   0.165  0.00  0.00    +0.084 A 
ATOM     13  C   UNL     1       3.792  -4.921   0.259  0.00  0.00    +0.046 A 
ATOM     14  C   UNL     1       4.975  -4.210   0.257  0.00  0.00    -0.002 A 
ATOM     15  C   UNL     1       4.956  -2.827   0.155  0.00  0.00    +0.160 A 
BRANCH  10  11
ATOM     11  O   UNL     1       1.414  -4.968   0.168  0.00  0.00    -0.494 OA
ATOM     12  H   UNL     1       1.113  -5.234  -0.712  0.00  0.00    +0.393 HD
ENDBRANCH  10  11
BRANCH  15  16
ATOM     16  O   UNL     1       6.120  -2.129   0.147  0.00  0.00    -0.479 OA
ATOM     17  H   UNL     1       6.426  -1.866   1.026  0.00  0.00    +0.396 HD
ENDBRANCH  15  16
ENDBRANCH   7   8
TORSDOF 6
