REMARK  Name = ZINC95485907
REMARK  6 active torsions:
REMARK  status: ('A' for Active; 'I' for Inactive)
REMARK    1  A    between atoms: C1_1  and  C2_2
REMARK    2  A    between atoms: C3_3  and  O4_36
REMARK    3  A    between atoms: C5_6  and  C30_35
REMARK    4  A    between atoms: C20_23  and  C28_31
REMARK    5  A    between atoms: C28_31  and  O3_33
REMARK    6  A    between atoms: O3_33  and  C29_34
REMARK                            x       y       z     vdW  Elec       q    Type
REMARK                         _______ _______ _______ _____ _____    ______ ____
ROOT
ATOM      1  C   UNL     1      -0.117   1.504   0.147  0.00  0.00    +0.110 C 
ATOM      2  C   UNL     1      -0.063  -0.002   0.077  0.00  0.00    -0.068 C 
ATOM      3  C   UNL     1      -0.227  -0.599  -1.131  0.00  0.00    +0.009 C 
ATOM      6  C   UNL     1      -0.216  -2.003  -1.198  0.00  0.00    +0.380 C 
ATOM      7  C   UNL     1      -0.188  -2.784  -0.011  0.00  0.00    -0.206 C 
ATOM      8  C   UNL     1      -0.499  -4.243  -0.235  0.00  0.00    +0.107 C 
ATOM      9  C   UNL     1       0.060  -2.212   1.187  0.00  0.00    +0.052 C 
ATOM     10  C   UNL     1       0.179  -2.969   2.491  0.00  0.00    -0.055 C 
ATOM     11  C   UNL     1      -1.038  -3.865   2.786  0.00  0.00    +0.064 C 
ATOM     12  C   UNL     1       0.367  -4.467   2.584  0.00  0.00    +0.025 C 
ATOM     13  C   UNL     1       0.856  -5.178   3.859  0.00  0.00    +0.109 C 
ATOM     14  C   UNL     1       1.694  -4.238   4.720  0.00  0.00    -0.058 C 
ATOM     15  C   UNL     1       1.048  -2.867   4.942  0.00  0.00    -0.063 C 
ATOM     16  C   UNL     1       0.152  -2.667   6.157  0.00  0.00    +0.065 C 
ATOM     17  C   UNL     1       1.548  -2.048   6.123  0.00  0.00    -0.010 C 
ATOM     18  C   UNL     1       2.646  -2.580   7.012  0.00  0.00    +0.078 C 
ATOM     19  C   UNL     1       2.739  -4.086   7.142  0.00  0.00    +0.016 C 
ATOM     24  C   UNL     1       1.808  -4.563   8.254  0.00  0.00    +0.055 C 
ATOM     25  C   UNL     1       1.851  -6.078   8.435  0.00  0.00    +0.056 C 
ATOM     26  C   UNL     1       1.621  -6.751   7.101  0.00  0.00    -0.118 C 
ATOM     27  C   UNL     1       0.660  -7.623   6.938  0.00  0.00    +0.007 C 
ATOM     28  C   UNL     1       2.542  -6.375   5.961  0.00  0.00    +0.113 C 
ATOM     29  C   UNL     1       3.213  -4.282   4.582  0.00  0.00    +0.052 C 
ATOM     30  C   UNL     1       2.531  -4.838   5.841  0.00  0.00    -0.084 C 
ATOM     31  C   UNL     1       0.704  -2.155   3.658  0.00  0.00    +0.035 C 
ATOM     32  C   UNL     1       0.852  -0.835   3.574  0.00  0.00    -0.040 C 
ATOM     33  C   UNL     1       0.566  -0.136   2.399  0.00  0.00    +0.134 C 
ATOM     34  O   UNL     1      -0.243  -2.574  -2.281  0.00  0.00    -0.480 OA
ATOM     35  C   UNL     1       0.182  -0.788   1.228  0.00  0.00    -0.097 C 
ENDROOT
BRANCH   3   4
ATOM      4  O   UNL     1      -0.397   0.153  -2.250  0.00  0.00    -0.461 OA
ATOM      5  H   UNL     1      -0.505  -0.365  -3.059  0.00  0.00    +0.402 HD
ENDBRANCH   3   4
BRANCH  19  20
ATOM     20  C   UNL     1       4.158  -4.375   7.598  0.00  0.00    +0.458 C 
ATOM     23  O   UNL     1       4.884  -5.060   6.917  0.00  0.00    -0.490 OA
BRANCH  20  21
ATOM     21  O   UNL     1       4.607  -3.868   8.757  0.00  0.00    -0.353 OA
ATOM     22  C   UNL     1       5.953  -4.180   9.123  0.00  0.00    +0.255 C 
ENDBRANCH  20  21
ENDBRANCH  19  20
TORSDOF 3
