REMARK  Name = ZINC00152926
REMARK  6 active torsions:
REMARK  status: ('A' for Active; 'I' for Inactive)
REMARK    1  A    between atoms: C1_1  and  O1_2
REMARK    2  A    between atoms: O1_2  and  C2_3
REMARK    3  A    between atoms: C4_5  and  C9_12
REMARK    4  A    between atoms: C6_7  and  O3_10
REMARK    5  A    between atoms: C7_8  and  O2_9
REMARK    6  A    between atoms: O3_10  and  C8_11
REMARK                            x       y       z     vdW  Elec       q    Type
REMARK                         _______ _______ _______ _____ _____    ______ ____
ROOT
ATOM      3  C   UNL     1      -0.148   1.182   2.381  0.00  0.00    +0.128 A 
ATOM      4  C   UNL     1       0.990   0.400   2.419  0.00  0.00    -0.026 A 
ATOM      5  C   UNL     1       1.538   0.025   3.652  0.00  0.00    -0.124 A 
ATOM      8  C   UNL     1       0.929   0.444   4.841  0.00  0.00    -0.036 A 
ATOM      9  C   UNL     1      -0.208   1.226   4.794  0.00  0.00    +0.128 A 
ATOM     12  C   UNL     1      -0.748   1.602   3.566  0.00  0.00    +0.075 A 
ENDROOT
BRANCH   3   2
ATOM      1  C   UNL     1      -0.013   1.086   0.008  0.00  0.00    +0.248 C 
ATOM      2  O   UNL     1      -0.682   1.547   1.184  0.00  0.00    -0.302 OA
ENDBRANCH   3   2
BRANCH   5   6
ATOM      6  C   UNL     1       2.748  -0.806   3.697  0.00  0.00    +0.495 C 
ATOM      7  O   UNL     1       3.273  -1.169   2.665  0.00  0.00    -0.451 OA
ENDBRANCH   5   6
BRANCH   9  10
ATOM     10  O   UNL     1      -0.800   1.634   5.949  0.00  0.00    -0.302 OA
ATOM     11  C   UNL     1      -0.191   1.216   7.173  0.00  0.00    +0.247 C 
ENDBRANCH   9  10
BRANCH  12  13
ATOM     13  O   UNL     1      -1.864   2.375   3.524  0.00  0.00    -0.471 OA
ATOM     14  H   UNL     1      -2.690   1.873   3.515  0.00  0.00    +0.389 HD
ENDBRANCH  12  13
TORSDOF 4
