REMARK  Name = ZINC95486202
REMARK  6 active torsions:
REMARK  status: ('A' for Active; 'I' for Inactive)
REMARK    1  A    between atoms: C1_1  and  C2_2
REMARK    2  A    between atoms: C6_7  and  C12_18
REMARK    3  A    between atoms: C6_7  and  C13_19
REMARK    4  A    between atoms: C9_11  and  C10_15
REMARK    5  A    between atoms: C10_15  and  C11_16
REMARK    6  A    between atoms: C11_16  and  O4_17
REMARK                            x       y       z     vdW  Elec       q    Type
REMARK                         _______ _______ _______ _____ _____    ______ ____
ROOT
ATOM      1  C   UNL     1      -0.019   1.524   0.010  0.00  0.00    +0.053 C 
ATOM      2  C   UNL     1       0.002  -0.004   0.002  0.00  0.00    +0.106 C 
ATOM      3  C   UNL     1       0.648  -0.458  -1.270  0.00  0.00    +0.082 C 
ATOM      4  C   UNL     1       1.966  -0.638  -1.331  0.00  0.00    -0.060 C 
ATOM      5  C   UNL     1       2.812  -0.395  -0.161  0.00  0.00    +0.388 C 
ATOM      6  C   UNL     1       2.221  -0.324   1.228  0.00  0.00    -0.087 C 
ATOM      7  C   UNL     1       2.569   1.025   1.871  0.00  0.00    +0.064 C 
ATOM      8  C   UNL     1       2.881  -1.429   2.085  0.00  0.00    +0.062 C 
ATOM      9  O   UNL     1       4.018  -0.253  -0.309  0.00  0.00    -0.446 OA
ATOM     10  O   UNL     1      -1.366  -0.453   0.038  0.00  0.00    -0.187 OA
ATOM     11  O   UNL     1      -2.048  -0.087   1.293  0.00  0.00    -0.189 OA
ATOM     12  C   UNL     1      -1.415  -0.586   2.475  0.00  0.00    +0.130 C 
ATOM     17  C   UNL     1       0.046  -0.106   2.499  0.00  0.00    +0.036 C 
ATOM     18  C   UNL     1       0.726  -0.568   1.212  0.00  0.00    -0.009 C 
ENDROOT
BRANCH  12  13
ATOM     13  C   UNL     1      -2.142  -0.067   3.713  0.00  0.00    +0.070 C 
BRANCH  13  14
ATOM     14  C   UNL     1      -3.558  -0.647   3.753  0.00  0.00    +0.176 C 
BRANCH  14  15
ATOM     15  O   UNL     1      -4.239  -0.162   4.911  0.00  0.00    -0.575 OA
ATOM     16  H   UNL     1      -5.144  -0.489   5.001  0.00  0.00    +0.384 HD
ENDBRANCH  14  15
ENDBRANCH  13  14
ENDBRANCH  12  13
TORSDOF 3
