REMARK  Name = ZINC01642327
REMARK  1 active torsions:
REMARK  status: ('A' for Active; 'I' for Inactive)
REMARK    1  A    between atoms: C1_1  and  N1_2
REMARK                            x       y       z     vdW  Elec       q    Type
REMARK                         _______ _______ _______ _____ _____    ______ ____
ROOT
ATOM      1  C   UNL     1      -1.312   2.023   0.019  0.00  0.00    +0.325 C 
ATOM      2  N   UNL     1      -0.016   1.339   0.009  0.00  0.00    -0.480 N 
ATOM      3  C   UNL     1       0.002  -0.004   0.002  0.00  0.00    +0.392 A 
ATOM      4  C   UNL     1       1.176  -0.709  -0.013  0.00  0.00    -0.235 A 
ATOM      5  C   UNL     1       1.556  -2.127  -0.024  0.00  0.00    -0.092 A 
ATOM      6  C   UNL     1       0.849  -3.326  -0.024  0.00  0.00    +0.028 A 
ATOM      7  C   UNL     1       1.532  -4.522  -0.037  0.00  0.00    -0.006 A 
ATOM      8  C   UNL     1       2.921  -4.537  -0.050  0.00  0.00    +0.012 A 
ATOM      9  C   UNL     1       3.635  -3.374  -0.050  0.00  0.00    +0.036 A 
ATOM     10  C   UNL     1       2.970  -2.139  -0.037  0.00  0.00    +0.087 A 
ATOM     11  N   UNL     1       3.428  -0.872  -0.034  0.00  0.00    -0.493 NA
ATOM     12  C   UNL     1       2.459   0.016  -0.021  0.00  0.00    +0.194 A 
ATOM     13  C   UNL     1       2.398   1.487  -0.013  0.00  0.00    -0.054 A 
ATOM     14  C   UNL     1       3.555   2.262  -0.020  0.00  0.00    +0.092 A 
ATOM     15  C   UNL     1       3.455   3.637  -0.011  0.00  0.00    -0.006 A 
ATOM     16  C   UNL     1       2.209   4.247   0.004  0.00  0.00    +0.064 A 
ATOM     17  C   UNL     1       1.057   3.492   0.010  0.00  0.00    -0.022 A 
ATOM     18  C   UNL     1       1.133   2.102   0.003  0.00  0.00    +0.157 A 
ENDROOT
TORSDOF 0
