REMARK  Name = ZINC95486236
REMARK  7 active torsions:
REMARK  status: ('A' for Active; 'I' for Inactive)
REMARK    1  A    between atoms: C1_1  and  C2_2
REMARK    2  A    between atoms: C2_2  and  C20_28
REMARK    3  A    between atoms: C3_3  and  O7_27
REMARK    4  A    between atoms: C10_11  and  O1_12
REMARK    5  A    between atoms: C12_15  and  O5_25
REMARK    6  A    between atoms: C13_16  and  C14_18
REMARK    7  A    between atoms: C17_21  and  O4_24
REMARK                            x       y       z     vdW  Elec       q    Type
REMARK                         _______ _______ _______ _____ _____    ______ ____
ROOT
ATOM      1  C   UNL     1       0.326   2.344  -0.050  0.00  0.00    +0.045 C 
ATOM      2  C   UNL     1       0.044   0.846   0.078  0.00  0.00    +0.120 C 
ATOM      3  C   UNL     1      -1.466   0.609   0.142  0.00  0.00    +0.094 C 
ATOM      4  C   UNL     1       0.632   0.105  -1.130  0.00  0.00    +0.156 C 
ATOM      7  C   UNL     1       2.119   0.456  -1.230  0.00  0.00    +0.080 C 
ATOM      8  C   UNL     1       2.770   0.301   0.121  0.00  0.00    -0.217 A 
ATOM      9  C   UNL     1       2.017   0.258   1.287  0.00  0.00    +0.220 A 
ATOM     10  C   UNL     1       2.642   0.120   2.521  0.00  0.00    -0.032 A 
ATOM     11  C   UNL     1       4.022   0.021   2.604  0.00  0.00    +0.199 A 
ATOM     12  C   UNL     1       4.783   0.060   1.424  0.00  0.00    -0.285 A 
ATOM     13  C   UNL     1       6.247  -0.051   1.526  0.00  0.00    +0.404 A 
ATOM     14  C   UNL     1       6.795  -0.192   2.828  0.00  0.00    -0.045 A 
ATOM     17  C   UNL     1       5.961  -0.217   3.903  0.00  0.00    +0.133 A 
ATOM     26  O   UNL     1       6.959  -0.022   0.535  0.00  0.00    -0.453 OA
ATOM     27  O   UNL     1       4.628  -0.113   3.801  0.00  0.00    -0.190 OA
ATOM     28  C   UNL     1       4.150   0.202   0.184  0.00  0.00    +0.242 A 
ATOM     31  O   UNL     1       0.661   0.340   1.262  0.00  0.00    -0.289 OA
ENDROOT
BRANCH  17  18
ATOM     18  C   UNL     1       6.551  -0.366   5.246  0.00  0.00    -0.063 A 
ATOM     19  C   UNL     1       6.026  -1.300   6.143  0.00  0.00    +0.068 A 
ATOM     20  C   UNL     1       6.581  -1.436   7.396  0.00  0.00    -0.014 A 
ATOM     21  C   UNL     1       7.661  -0.646   7.770  0.00  0.00    +0.127 A 
ATOM     24  C   UNL     1       8.187   0.285   6.881  0.00  0.00    -0.012 A 
ATOM     25  C   UNL     1       7.641   0.423   5.624  0.00  0.00    +0.089 A 
BRANCH  21  22
ATOM     22  O   UNL     1       8.205  -0.782   9.007  0.00  0.00    -0.498 OA
ATOM     23  H   UNL     1       8.918  -1.434   9.053  0.00  0.00    +0.396 HD
ENDBRANCH  21  22
ENDBRANCH  17  18
BRANCH   4   5
ATOM      5  O   UNL     1      -0.042   0.514  -2.321  0.00  0.00    -0.550 OA
ATOM      6  H   UNL     1       0.282   0.082  -3.124  0.00  0.00    +0.387 HD
ENDBRANCH   4   5
BRANCH  14  15
ATOM     15  O   UNL     1       8.141  -0.301   2.999  0.00  0.00    -0.450 OA
ATOM     16  H   UNL     1       8.646  -0.272   2.175  0.00  0.00    +0.407 HD
ENDBRANCH  14  15
BRANCH  28  29
ATOM     29  O   UNL     1       4.887   0.242  -0.956  0.00  0.00    -0.471 OA
ATOM     30  H   UNL     1       5.161   1.133  -1.215  0.00  0.00    +0.403 HD
ENDBRANCH  28  29
TORSDOF 5
