REMARK  Name = ZINC95485908
REMARK  17 active torsions:
REMARK  status: ('A' for Active; 'I' for Inactive)
REMARK    1  A    between atoms: C1_1  and  C2_2
REMARK    2  A    between atoms: C3_4  and  O16_53
REMARK    3  A    between atoms: C4_6  and  O15_52
REMARK    4  A    between atoms: C5_8  and  O14_51
REMARK    5  A    between atoms: C6_10  and  O2_13
REMARK    6  A    between atoms: O2_13  and  C7_14
REMARK    7  A    between atoms: C10_17  and  C13_21
REMARK    8  A    between atoms: C12_19  and  O3_20
REMARK    9  A    between atoms: C14_22  and  O8_34
REMARK   10  A    between atoms: C17_26  and  O7_33
REMARK   11  A    between atoms: C19_28  and  O6_32
REMARK   12  A    between atoms: O8_34  and  C22_35
REMARK   13  A    between atoms: C23_37  and  O13_50
REMARK   14  A    between atoms: C24_39  and  O12_49
REMARK   15  A    between atoms: C25_41  and  O11_48
REMARK   16  A    between atoms: C26_43  and  C27_46
REMARK   17  A    between atoms: C27_46  and  O10_47
REMARK                            x       y       z     vdW  Elec       q    Type
REMARK                         _______ _______ _______ _____ _____    ______ ____
ROOT
ATOM     18  C   UNL     1       6.862  -0.577   2.698  0.00  0.00    +0.206 A 
ATOM     19  C   UNL     1       7.458  -0.129   1.557  0.00  0.00    -0.090 A 
ATOM     36  C   UNL     1       8.858   0.099   1.544  0.00  0.00    +0.412 A 
ATOM     37  C   UNL     1       9.599  -0.167   2.788  0.00  0.00    -0.264 A 
ATOM     38  C   UNL     1      10.984   0.032   2.865  0.00  0.00    +0.221 A 
ATOM     41  C   UNL     1      11.644  -0.228   4.051  0.00  0.00    -0.055 A 
ATOM     42  C   UNL     1      10.937  -0.684   5.159  0.00  0.00    +0.196 A 
ATOM     45  C   UNL     1       9.567  -0.883   5.090  0.00  0.00    -0.026 A 
ATOM     46  C   UNL     1       8.887  -0.627   3.909  0.00  0.00    +0.183 A 
ATOM     47  O   UNL     1       9.427   0.500   0.541  0.00  0.00    -0.454 OA
ATOM     48  O   UNL     1       7.552  -0.810   3.828  0.00  0.00    -0.202 OA
ENDROOT
BRANCH  18  17
ATOM     14  C   UNL     1       2.666  -1.242   2.684  0.00  0.00    +0.134 A 
ATOM     15  C   UNL     1       3.182  -0.052   2.188  0.00  0.00    -0.028 A 
ATOM     16  C   UNL     1       4.542   0.167   2.191  0.00  0.00    +0.128 A 
ATOM     17  C   UNL     1       5.406  -0.810   2.694  0.00  0.00    -0.098 A 
ATOM     49  C   UNL     1       4.887  -2.007   3.194  0.00  0.00    +0.098 A 
ATOM     50  C   UNL     1       3.521  -2.218   3.192  0.00  0.00    +0.073 A 
BRANCH  50  51
ATOM     51  O   UNL     1       3.012  -3.380   3.682  0.00  0.00    -0.480 OA
ATOM     52  H   UNL     1       2.925  -4.080   3.021  0.00  0.00    +0.384 HD
ENDBRANCH  50  51
BRANCH  14  13
ATOM     13  O   UNL     1       1.324  -1.452   2.679  0.00  0.00    -0.283 OA
BRANCH  13  12
ATOM      1  C   UNL     1       0.063   3.056   3.446  0.00  0.00    +0.074 C 
ATOM      2  C   UNL     1      -0.150   1.868   2.506  0.00  0.00    +0.141 C 
ATOM      3  C   UNL     1      -1.635   1.495   2.483  0.00  0.00    +0.170 C 
ATOM      6  C   UNL     1      -1.832   0.268   1.588  0.00  0.00    +0.203 C 
ATOM      9  C   UNL     1      -0.953  -0.875   2.107  0.00  0.00    +0.146 C 
ATOM     12  C   UNL     1       0.505  -0.411   2.144  0.00  0.00    +0.304 C 
ATOM     53  O   UNL     1       0.613   0.752   2.968  0.00  0.00    -0.377 OA
BRANCH   3   4
ATOM      4  O   UNL     1      -2.395   2.590   1.968  0.00  0.00    -0.550 OA
ATOM      5  H   UNL     1      -2.313   3.403   2.485  0.00  0.00    +0.381 HD
ENDBRANCH   3   4
BRANCH   6   7
ATOM      7  O   UNL     1      -3.204  -0.131   1.618  0.00  0.00    -0.535 OA
ATOM      8  H   UNL     1      -3.401  -0.904   1.072  0.00  0.00    +0.380 HD
ENDBRANCH   6   7
BRANCH   9  10
ATOM     10  O   UNL     1      -1.373  -1.240   3.423  0.00  0.00    -0.536 OA
ATOM     11  H   UNL     1      -0.859  -1.960   3.814  0.00  0.00    +0.389 HD
ENDBRANCH   9  10
ENDBRANCH  13  12
ENDBRANCH  14  13
ENDBRANCH  18  17
BRANCH  38  39
ATOM     39  O   UNL     1      11.673   0.476   1.783  0.00  0.00    -0.472 OA
ATOM     40  H   UNL     1      11.738   1.439   1.727  0.00  0.00    +0.403 HD
ENDBRANCH  38  39
BRANCH  42  43
ATOM     43  O   UNL     1      11.595  -0.937   6.319  0.00  0.00    -0.487 OA
ATOM     44  H   UNL     1      11.652  -0.176   6.913  0.00  0.00    +0.404 HD
ENDBRANCH  42  43
BRANCH  19  20
ATOM     20  O   UNL     1       6.716   0.097   0.439  0.00  0.00    -0.284 OA
BRANCH  20  21
ATOM     21  C   UNL     1       7.028  -0.685  -0.716  0.00  0.00    +0.326 C 
ATOM     22  C   UNL     1       6.371  -0.059  -1.949  0.00  0.00    +0.144 C 
ATOM     25  C   UNL     1       4.849  -0.079  -1.772  0.00  0.00    +0.159 C 
ATOM     28  C   UNL     1       4.392  -1.522  -1.539  0.00  0.00    +0.176 C 
ATOM     31  C   UNL     1       5.126  -2.091  -0.322  0.00  0.00    +0.198 C 
ATOM     35  O   UNL     1       6.537  -2.015  -0.539  0.00  0.00    -0.360 OA
BRANCH  22  23
ATOM     23  O   UNL     1       6.727  -0.809  -3.112  0.00  0.00    -0.542 OA
ATOM     24  H   UNL     1       7.670  -0.778  -3.326  0.00  0.00    +0.390 HD
ENDBRANCH  22  23
BRANCH  25  26
ATOM     26  O   UNL     1       4.489   0.726  -0.648  0.00  0.00    -0.526 OA
ATOM     27  H   UNL     1       4.754   1.653  -0.727  0.00  0.00    +0.378 HD
ENDBRANCH  25  26
BRANCH  28  29
ATOM     29  O   UNL     1       2.983  -1.544  -1.301  0.00  0.00    -0.550 OA
ATOM     30  H   UNL     1       2.456  -1.193  -2.032  0.00  0.00    +0.380 HD
ENDBRANCH  28  29
BRANCH  31  32
ATOM     32  C   UNL     1       4.719  -3.552  -0.117  0.00  0.00    +0.202 C 
BRANCH  32  33
ATOM     33  O   UNL     1       5.313  -4.048   1.084  0.00  0.00    -0.561 OA
ATOM     34  H   UNL     1       5.097  -4.971   1.277  0.00  0.00    +0.378 HD
ENDBRANCH  32  33
ENDBRANCH  31  32
ENDBRANCH  20  21
ENDBRANCH  19  20
TORSDOF 16
