REMARK  Name = ZINC86037206
REMARK  7 active torsions:
REMARK  status: ('A' for Active; 'I' for Inactive)
REMARK    1  A    between atoms: C1_1  and  C2_2
REMARK    2  A    between atoms: C6_6  and  O2_9
REMARK    3  A    between atoms: C7_7  and  O1_8
REMARK    4  A    between atoms: C8_10  and  C28_32
REMARK    5  A    between atoms: C11_13  and  C27_31
REMARK    6  A    between atoms: C18_21  and  C26_30
REMARK    7  A    between atoms: C21_24  and  C25_29
REMARK                            x       y       z     vdW  Elec       q    Type
REMARK                         _______ _______ _______ _____ _____    ______ ____
ROOT
ATOM      1  C   UNL     1      -0.142   1.854  -0.214  0.00  0.00    +0.116 C 
ATOM      2  C   UNL     1      -0.199   0.348  -0.265  0.00  0.00    -0.028 A 
ATOM      3  C   UNL     1      -0.152  -0.359  -1.467  0.00  0.00    -0.153 A 
ATOM      4  C   UNL     1      -0.213  -1.756  -1.450  0.00  0.00    -0.011 A 
ATOM      5  C   UNL     1      -0.233  -2.586  -2.708  0.00  0.00    +0.010 C 
ATOM      6  C   UNL     1      -1.693  -3.041  -2.849  0.00  0.00    +0.058 C 
ATOM      7  C   UNL     1       0.617  -3.830  -2.492  0.00  0.00    +0.038 C 
ATOM      8  C   UNL     1       0.967  -4.570  -3.775  0.00  0.00    +0.026 C 
ATOM      9  C   UNL     1       1.589  -3.630  -4.812  0.00  0.00    -0.025 C 
ATOM     10  C   UNL     1       2.774  -2.926  -4.139  0.00  0.00    +0.024 C 
ATOM     11  C   UNL     1       2.042  -4.399  -6.039  0.00  0.00    +0.013 C 
ATOM     12  C   UNL     1       3.069  -5.475  -5.699  0.00  0.00    +0.059 C 
ATOM     13  C   UNL     1       4.476  -4.938  -5.718  0.00  0.00    -0.104 C 
ATOM     14  C   UNL     1       4.915  -4.067  -6.871  0.00  0.00    +0.052 C 
ATOM     15  C   UNL     1       3.877  -2.973  -7.096  0.00  0.00    +0.021 C 
ATOM     16  C   UNL     1       5.320  -5.233  -4.752  0.00  0.00    -0.015 C 
ATOM     17  C   UNL     1       2.470  -3.549  -7.218  0.00  0.00    -0.039 C 
ATOM     18  C   UNL     1       2.443  -4.448  -8.481  0.00  0.00    +0.015 C 
ATOM     19  C   UNL     1       1.499  -2.398  -7.495  0.00  0.00    +0.018 C 
ATOM     20  C   UNL     1       1.139  -1.630  -6.229  0.00  0.00    +0.025 C 
ATOM     21  C   UNL     1       0.537  -2.583  -5.196  0.00  0.00    -0.015 C 
ATOM     22  C   UNL     1      -0.699  -3.240  -5.814  0.00  0.00    +0.044 C 
ATOM     23  C   UNL     1       0.158  -1.830  -3.935  0.00  0.00    +0.001 C 
ATOM     24  C   UNL     1       0.219  -0.504  -3.968  0.00  0.00    -0.095 C 
ATOM     25  C   UNL     1      -0.290  -2.426  -0.241  0.00  0.00    -0.012 A 
ATOM     26  C   UNL     1      -0.337  -1.723   0.951  0.00  0.00    +0.124 A 
ATOM     29  C   UNL     1      -0.041   0.316  -2.773  0.00  0.00    +0.429 C 
ATOM     30  O   UNL     1      -0.168   1.516  -2.918  0.00  0.00    -0.449 OA
ATOM     31  C   UNL     1      -0.295  -0.332   0.939  0.00  0.00    +0.058 A 
ENDROOT
BRANCH  26  27
ATOM     27  O   UNL     1      -0.423  -2.393   2.129  0.00  0.00    -0.490 OA
ATOM     28  H   UNL     1       0.433  -2.613   2.520  0.00  0.00    +0.398 HD
ENDBRANCH  26  27
BRANCH  31  32
ATOM     32  O   UNL     1      -0.349   0.366   2.105  0.00  0.00    -0.484 OA
ATOM     33  H   UNL     1      -1.246   0.593   2.386  0.00  0.00    +0.392 HD
ENDBRANCH  31  32
TORSDOF 2
